REMARK  Name = ZINC28537532
REMARK  10 active torsions:
REMARK  status: ('A' for Active; 'I' for Inactive)
REMARK    1  A    between atoms: C_3  and  O_37
REMARK    2  A    between atoms: C_6  and  C_7
REMARK    3  A    between atoms: C_15  and  O_35
REMARK    4  A    between atoms: C_17  and  O_18
REMARK    5  A    between atoms: O_18  and  C_19
REMARK    6  A    between atoms: C_21  and  O_34
REMARK    7  A    between atoms: C_23  and  O_33
REMARK    8  A    between atoms: C_25  and  O_32
REMARK    9  A    between atoms: C_27  and  C_30
REMARK   10  A    between atoms: C_30  and  O_31
REMARK                            x       y       z     vdW  Elec       q    Type
REMARK                         _______ _______ _______ _____ _____    ______ ____
ROOT
ATOM      1  C   UNL     1      -1.293  -0.774   0.011  0.00  0.00    +0.211 C 
ATOM      2  C   UNL     1      -1.619  -1.246  -1.414  0.00  0.00    +0.129 C 
ATOM      3  C   UNL     1      -2.910  -2.041  -1.340  0.00  0.00    +0.174 C 
ATOM      4  O   UNL     1      -3.769  -1.943  -2.191  0.00  0.00    -0.292 OA
ATOM      5  C   UNL     1      -3.066  -2.933  -0.186  0.00  0.00    +0.101 A 
ATOM      6  C   UNL     1      -2.171  -2.818   0.894  0.00  0.00    +0.139 A 
ATOM      7  C   UNL     1      -2.320  -3.649   1.989  0.00  0.00    +0.092 A 
ATOM      8  C   UNL     1      -3.341  -4.591   2.017  0.00  0.00    +0.124 A 
ATOM      9  C   UNL     1      -4.222  -4.714   0.950  0.00  0.00    +0.092 A 
ATOM     10  C   UNL     1      -4.092  -3.890  -0.154  0.00  0.00    +0.141 A 
ATOM     11  O   UNL     1      -1.167  -1.909   0.867  0.00  0.00    -0.483 OA
ENDROOT
BRANCH   1  17
ATOM     12  C   UNL     1      -0.017   1.378   0.010  0.00  0.00    +0.011 A 
ATOM     13  C   UNL     1       1.169   2.087   0.002  0.00  0.00    +0.046 A 
ATOM     14  C   UNL     1       2.380   1.409  -0.013  0.00  0.00    +0.117 A 
ATOM     15  C   UNL     1       2.396   0.022  -0.021  0.00  0.00    +0.046 A 
ATOM     16  C   UNL     1       1.207  -0.681  -0.013  0.00  0.00    +0.011 A 
ATOM     17  C   UNL     1       0.002  -0.004   0.002  0.00  0.00    -0.007 A 
BRANCH  14  18
ATOM     18  O   UNL     1       3.548   2.104  -0.021  0.00  0.00    -0.507 OA
ATOM     19  H   UNL     1       3.895   2.300   0.860  0.00  0.00    +0.292 HD
ENDBRANCH  14  18
ENDBRANCH   1  17
BRANCH   8  20
ATOM     20  O   UNL     1      -3.478  -5.401   3.097  0.00  0.00    -0.507 OA
ATOM     21  H   UNL     1      -4.054  -5.043   3.786  0.00  0.00    +0.292 HD
ENDBRANCH   8  20
BRANCH  10  22
ATOM     22  O   UNL     1      -4.950  -4.006  -1.198  0.00  0.00    -0.460 OA
BRANCH  22  23
ATOM     23  C   UNL     1      -5.969  -5.003  -1.093  0.00  0.00    +0.339 C 
ATOM     24  C   UNL     1      -6.908  -4.903  -2.298  0.00  0.00    +0.214 C 
ATOM     25  C   UNL     1      -7.960  -6.012  -2.208  0.00  0.00    +0.180 C 
ATOM     26  C   UNL     1      -7.252  -7.368  -2.134  0.00  0.00    +0.177 C 
ATOM     27  C   UNL     1      -6.300  -7.373  -0.935  0.00  0.00    +0.179 C 
ATOM     28  O   UNL     1      -5.367  -6.299  -1.066  0.00  0.00    -0.331 OA
BRANCH  26  29
ATOM     29  O   UNL     1      -8.223  -8.406  -1.979  0.00  0.00    -0.386 OA
ATOM     30  H   UNL     1      -8.862  -8.458  -2.703  0.00  0.00    +0.210 HD
ENDBRANCH  26  29
BRANCH  25  31
ATOM     31  O   UNL     1      -8.798  -5.971  -3.366  0.00  0.00    -0.386 OA
ATOM     32  H   UNL     1      -9.273  -5.136  -3.478  0.00  0.00    +0.210 HD
ENDBRANCH  25  31
BRANCH  24  33
ATOM     33  O   UNL     1      -7.554  -3.628  -2.295  0.00  0.00    -0.383 OA
ATOM     34  H   UNL     1      -6.945  -2.879  -2.345  0.00  0.00    +0.210 HD
ENDBRANCH  24  33
BRANCH  27  35
ATOM     35  C   UNL     1      -5.545  -8.703  -0.889  0.00  0.00    +0.190 C 
BRANCH  35  36
ATOM     36  O   UNL     1      -4.743  -8.755   0.293  0.00  0.00    -0.392 OA
ATOM     37  H   UNL     1      -4.235  -9.572   0.388  0.00  0.00    +0.210 HD
ENDBRANCH  35  36
ENDBRANCH  27  35
ENDBRANCH  22  23
ENDBRANCH  10  22
TORSDOF 10
