REMARK  Name = ZINC38041030
REMARK  2 active torsions:
REMARK  status: ('A' for Active; 'I' for Inactive)
REMARK    1  A    between atoms: C_7  and  N_10
REMARK    2  A    between atoms: N_10  and  C_11
REMARK                            x       y       z     vdW  Elec       q    Type
REMARK                         _______ _______ _______ _____ _____    ______ ____
ROOT
ATOM      1  N   UNL     1       0.153   0.354  -2.422  0.00  0.00    +0.389 N 
ATOM      2  H   UNL     1      -0.849   0.434  -2.505  0.00  0.00    -0.084 HD
ATOM      3  H   UNL     1       0.547   1.260  -2.216  0.00  0.00    -0.084 HD
ENDROOT
BRANCH   1  10
ATOM      4  C   UNL     1      -1.993  -0.975  -1.463  0.00  0.00    +0.000 C 
ATOM      5  C   UNL     1      -2.405   0.071  -0.443  0.00  0.00    +0.019 C 
ATOM      6  C   UNL     1      -1.488   1.294  -0.516  0.00  0.00    +0.104 C 
ATOM      7  N   UNL     1      -0.313   1.053   0.336  0.00  0.00    -0.317 N 
ATOM      8  C   UNL     1       0.623   0.179  -0.036  0.00  0.00    +0.199 C 
ATOM      9  O   UNL     1       1.591  -0.008   0.671  0.00  0.00    -0.278 OA
ATOM     10  C   UNL     1       0.482  -0.581  -1.338  0.00  0.00    +0.016 C 
ATOM     11  C   UNL     1      -0.643  -1.609  -1.180  0.00  0.00    -0.007 C 
ATOM     12  H   UNL     1      -0.218   1.534   1.173  0.00  0.00    +0.149 HD
ENDBRANCH   1  10
BRANCH   1  13
ATOM     13  C   UNL     1       0.711  -0.146  -3.686  0.00  0.00    -0.068 C 
ATOM     14  C   UNL     1      -0.001  -1.443  -4.082  0.00  0.00    -0.001 C 
ATOM     15  C   UNL     1       0.542  -1.926  -5.429  0.00  0.00    +0.079 C 
ATOM     16  N   UNL     1       0.318  -0.892  -6.447  0.00  0.00    -0.316 NA
ATOM     17  C   UNL     1       1.030   0.347  -6.112  0.00  0.00    +0.079 C 
ATOM     18  C   UNL     1       0.502   0.898  -4.786  0.00  0.00    -0.001 C 
ATOM     19  H   UNL     1       0.580  -1.224  -7.363  0.00  0.00    +0.122 HD
ENDBRANCH   1  13
TORSDOF 2
