REMARK  Name = ZINC40749845
REMARK  3 active torsions:
REMARK  status: ('A' for Active; 'I' for Inactive)
REMARK    1  A    between atoms: C_5  and  S_8
REMARK    2  A    between atoms: S_8  and  N_11
REMARK    3  A    between atoms: C_19  and  N_21
REMARK                            x       y       z     vdW  Elec       q    Type
REMARK                         _______ _______ _______ _____ _____    ______ ____
ROOT
ATOM      1  S   UNL     1       0.890  -2.437  -0.007  0.00  0.00    +0.064 S 
ATOM      2  O   UNL     1      -0.411  -2.794  -0.452  0.00  0.00    -0.153 OA
ATOM      3  O   UNL     1       2.069  -2.885  -0.663  0.00  0.00    -0.153 OA
ENDROOT
BRANCH   1   8
ATOM      4  C   UNL     1      -0.162   1.441   0.106  0.00  0.00    +0.037 A 
ATOM      5  C   UNL     1       1.056   2.088   0.008  0.00  0.00    +0.021 A 
ATOM      6  C   UNL     1       2.223   1.354  -0.096  0.00  0.00    +0.037 A 
ATOM      7  C   UNL     1       2.173  -0.029  -0.100  0.00  0.00    +0.070 A 
ATOM      8  C   UNL     1       0.955  -0.676  -0.001  0.00  0.00    +0.142 A 
ATOM      9  C   UNL     1      -0.213   0.058   0.102  0.00  0.00    +0.070 A 
ATOM     10 CL   UNL     1      -1.742  -0.755   0.227  0.00  0.00    -0.081 Cl
ATOM     11 CL   UNL     1       3.638  -0.950  -0.231  0.00  0.00    -0.081 Cl
ATOM     12 BR   UNL     1       1.125   3.978   0.013  0.00  0.00    -0.050 Br
ENDBRANCH   1   8
BRANCH   1  13
ATOM     13  N   UNL     1       1.006  -2.937   1.567  0.00  0.00    -0.171 NA
ATOM     14  C   UNL     1       2.231  -3.250   2.343  0.00  0.00    +0.079 C 
ATOM     15  C   UNL     1       1.863  -4.522   3.139  0.00  0.00    +0.022 C 
ATOM     16  C   UNL     1       0.326  -4.475   3.268  0.00  0.00    +0.022 C 
ATOM     17  C   UNL     1      -0.090  -3.171   2.538  0.00  0.00    +0.079 C 
ATOM     18  C   UNL     1      -0.048  -2.024   3.560  0.00  0.00    +0.004 C 
ATOM     19  C   UNL     1       1.272  -2.095   4.332  0.00  0.00    -0.072 C 
ATOM     20  C   UNL     1       2.447  -2.100   3.339  0.00  0.00    +0.004 C 
BRANCH  19  21
ATOM     21  N   UNL     1       1.298  -3.317   5.146  0.00  0.00    +0.380 N 
ATOM     22  H   UNL     1       1.218  -4.123   4.545  0.00  0.00    -0.090 HD
ATOM     23  H   UNL     1       2.166  -3.363   5.657  0.00  0.00    -0.090 HD
ATOM     24  H   UNL     1       0.526  -3.304   5.796  0.00  0.00    -0.090 HD
ENDBRANCH  19  21
ENDBRANCH   1  13
TORSDOF 3
