REMARK  Name = ZINC22064070
REMARK  13 active torsions:
REMARK  status: ('A' for Active; 'I' for Inactive)
REMARK    1  A    between atoms: C_1  and  C_2
REMARK    2  A    between atoms: C_11  and  O_13
REMARK    3  A    between atoms: O_13  and  C_14
REMARK    4  A    between atoms: C_16  and  O_44
REMARK    5  A    between atoms: C_18  and  O_43
REMARK    6  A    between atoms: C_20  and  O_27
REMARK    7  A    between atoms: C_22  and  C_25
REMARK    8  A    between atoms: C_25  and  O_26
REMARK    9  A    between atoms: O_27  and  C_28
REMARK   10  A    between atoms: C_30  and  O_42
REMARK   11  A    between atoms: C_32  and  O_41
REMARK   12  A    between atoms: C_34  and  O_40
REMARK   13  A    between atoms: C_36  and  C_39
REMARK                            x       y       z     vdW  Elec       q    Type
REMARK                         _______ _______ _______ _____ _____    ______ ____
ROOT
ATOM      1  C   UNL     1       3.541   7.384   0.005  0.00  0.00    +0.339 C 
ATOM      2  C   UNL     1       4.940   7.949  -0.255  0.00  0.00    +0.214 C 
ATOM      3  C   UNL     1       5.877   7.513   0.876  0.00  0.00    +0.180 C 
ATOM      4  C   UNL     1       5.298   7.986   2.213  0.00  0.00    +0.184 C 
ATOM      5  C   UNL     1       3.886   7.420   2.378  0.00  0.00    +0.179 C 
ATOM      6  O   UNL     1       3.075   7.837   1.278  0.00  0.00    -0.331 OA
ENDROOT
BRANCH   3   7
ATOM      7  O   UNL     1       5.990   6.089   0.881  0.00  0.00    -0.386 OA
ATOM      8  H   UNL     1       6.625   5.590   1.628  0.00  0.00    +0.210 HD
ENDBRANCH   3   7
BRANCH   2   9
ATOM      9  O   UNL     1       5.432   7.451  -1.501  0.00  0.00    -0.383 OA
ATOM     10  H   UNL     1       6.428   7.750  -1.858  0.00  0.00    +0.210 HD
ENDBRANCH   2   9
BRANCH   1  11
ATOM     11  O   UNL     1       3.595   5.956  -0.002  0.00  0.00    -0.461 OA
BRANCH  11  22
ATOM     12  C   UNL     1      -2.602   3.983   0.047  0.00  0.00    +0.045 C 
ATOM     13  C   UNL     1      -1.290   3.242   0.031  0.00  0.00    -0.033 A 
ATOM     14  C   UNL     1      -1.255   1.884   0.018  0.00  0.00    +0.096 A 
ATOM     15  C   UNL     1      -0.014   1.214   0.009  0.00  0.00    +0.337 A 
ATOM     16  O   UNL     1       0.002  -0.004   0.002  0.00  0.00    -0.245 OA
ATOM     17  O   UNL     1       1.149   1.883   0.001  0.00  0.00    -0.422 OA
ATOM     18  C   UNL     1       1.185   3.233   0.008  0.00  0.00    +0.143 A 
ATOM     19  C   UNL     1      -0.017   3.966   0.023  0.00  0.00    +0.021 A 
ATOM     20  C   UNL     1       0.016   5.365   0.029  0.00  0.00    +0.015 A 
ATOM     21  C   UNL     1       1.216   6.015   0.021  0.00  0.00    +0.046 A 
ATOM     22  C   UNL     1       2.409   5.295   0.006  0.00  0.00    +0.128 A 
ATOM     23  C   UNL     1       2.395   3.910  -0.001  0.00  0.00    +0.092 A 
ENDBRANCH  11  22
ENDBRANCH   1  11
BRANCH   5  24
ATOM     24  C   UNL     1       3.278   7.936   3.684  0.00  0.00    +0.190 C 
BRANCH  24  25
ATOM     25  O   UNL     1       2.008   7.317   3.896  0.00  0.00    -0.392 OA
ATOM     26  H   UNL     1       1.417   7.566   4.790  0.00  0.00    +0.210 HD
ENDBRANCH  24  25
ENDBRANCH   5  24
BRANCH   4  27
ATOM     27  O   UNL     1       5.246   9.414   2.233  0.00  0.00    -0.340 OA
BRANCH  27  28
ATOM     28  C   UNL     1       6.427  10.032   2.748  0.00  0.00    +0.282 C 
ATOM     29  C   UNL     1       6.311  11.552   2.607  0.00  0.00    +0.201 C 
ATOM     30  C   UNL     1       7.554  12.209   3.215  0.00  0.00    +0.179 C 
ATOM     31  C   UNL     1       7.687  11.770   4.676  0.00  0.00    +0.174 C 
ATOM     32  C   UNL     1       7.750  10.241   4.737  0.00  0.00    +0.149 C 
ATOM     33  O   UNL     1       6.580   9.693   4.128  0.00  0.00    -0.343 OA
ATOM     34  C   UNL     1       7.824   9.791   6.198  0.00  0.00    +0.041 C 
BRANCH  31  35
ATOM     35  O   UNL     1       8.883  12.319   5.233  0.00  0.00    -0.387 OA
ATOM     36  H   UNL     1       9.149  12.111   6.280  0.00  0.00    +0.210 HD
ENDBRANCH  31  35
BRANCH  30  37
ATOM     37  O   UNL     1       7.420  13.631   3.154  0.00  0.00    -0.386 OA
ATOM     38  H   UNL     1       8.221  14.276   3.546  0.00  0.00    +0.210 HD
ENDBRANCH  30  37
BRANCH  29  39
ATOM     39  O   UNL     1       5.145  12.007   3.295  0.00  0.00    -0.384 OA
ATOM     40  H   UNL     1       4.895  13.079   3.304  0.00  0.00    +0.210 HD
ENDBRANCH  29  39
ENDBRANCH  27  28
ENDBRANCH   4  27
TORSDOF 11
