REMARK  Name = ZINC31158986
REMARK  14 active torsions:
REMARK  status: ('A' for Active; 'I' for Inactive)
REMARK    1  A    between atoms: C_1  and  C_2
REMARK    2  A    between atoms: C_2  and  C_4
REMARK    3  A    between atoms: C_2  and  O_31
REMARK    4  A    between atoms: C_4  and  C_5
REMARK    5  A    between atoms: C_5  and  C_6
REMARK    6  A    between atoms: C_6  and  C_7
REMARK    7  A    between atoms: C_9  and  O_30
REMARK    8  A    between atoms: C_11  and  O_13
REMARK    9  A    between atoms: O_13  and  C_14
REMARK   10  A    between atoms: C_16  and  O_29
REMARK   11  A    between atoms: C_18  and  O_28
REMARK   12  A    between atoms: C_20  and  O_27
REMARK   13  A    between atoms: C_22  and  C_25
REMARK   14  A    between atoms: C_25  and  O_26
REMARK                            x       y       z     vdW  Elec       q    Type
REMARK                         _______ _______ _______ _____ _____    ______ ____
ROOT
ATOM      1  O   UNL     1       4.051  -6.553   1.081  0.00  0.00    -0.461 OA
ENDROOT
BRANCH   1   6
ATOM      2  C   UNL     1       1.740  -4.040   2.341  0.00  0.00    -0.040 A 
ATOM      3  C   UNL     1       0.752  -4.843   2.880  0.00  0.00    +0.049 A 
ATOM      4  C   UNL     1       0.868  -6.224   2.817  0.00  0.00    +0.121 A 
ATOM      5  C   UNL     1       1.975  -6.799   2.213  0.00  0.00    +0.091 A 
ATOM      6  C   UNL     1       2.965  -5.992   1.673  0.00  0.00    +0.128 A 
ATOM      7  C   UNL     1       2.842  -4.611   1.733  0.00  0.00    +0.049 A 
BRANCH   4   8
ATOM      8  O   UNL     1      -0.103  -7.013   3.348  0.00  0.00    -0.507 OA
ATOM      9  H   UNL     1      -0.808  -7.241   2.726  0.00  0.00    +0.292 HD
ENDBRANCH   4   8
BRANCH   2  10
ATOM     10  C   UNL     1       1.612  -2.541   2.410  0.00  0.00    +0.035 C 
BRANCH  10  11
ATOM     11  C   UNL     1       0.872  -2.034   1.171  0.00  0.00    +0.007 C 
BRANCH  11  12
ATOM     12  C   UNL     1       0.742  -0.511   1.242  0.00  0.00    +0.031 C 
BRANCH  12  14
ATOM     13  C   UNL     1      -0.019   1.526   0.010  0.00  0.00    +0.037 C 
ATOM     14  C   UNL     1       0.002  -0.004   0.002  0.00  0.00    +0.111 C 
BRANCH  14  15
ATOM     15  O   UNL     1      -1.339  -0.499   0.012  0.00  0.00    -0.392 OA
ATOM     16  H   UNL     1      -1.853  -0.225   0.784  0.00  0.00    +0.210 HD
ENDBRANCH  14  15
ENDBRANCH  12  14
ENDBRANCH  11  12
ENDBRANCH  10  11
ENDBRANCH   2  10
ENDBRANCH   1   6
BRANCH   1  17
ATOM     17  C   UNL     1       4.109  -7.981   1.050  0.00  0.00    +0.339 C 
ATOM     18  C   UNL     1       5.331  -8.425   0.242  0.00  0.00    +0.214 C 
ATOM     19  C   UNL     1       5.420  -9.954   0.264  0.00  0.00    +0.180 C 
ATOM     20  C   UNL     1       5.482 -10.429   1.719  0.00  0.00    +0.177 C 
ATOM     21  C   UNL     1       4.254  -9.908   2.470  0.00  0.00    +0.179 C 
ATOM     22  O   UNL     1       4.215  -8.482   2.384  0.00  0.00    -0.331 OA
BRANCH  20  23
ATOM     23  O   UNL     1       5.494 -11.858   1.754  0.00  0.00    -0.386 OA
ATOM     24  H   UNL     1       6.244 -12.257   1.292  0.00  0.00    +0.210 HD
ENDBRANCH  20  23
BRANCH  19  25
ATOM     25  O   UNL     1       6.598 -10.374  -0.428  0.00  0.00    -0.386 OA
ATOM     26  H   UNL     1       6.627 -10.101  -1.355  0.00  0.00    +0.210 HD
ENDBRANCH  19  25
BRANCH  18  27
ATOM     27  O   UNL     1       5.201  -7.973  -1.108  0.00  0.00    -0.383 OA
ATOM     28  H   UNL     1       5.135  -7.012  -1.196  0.00  0.00    +0.210 HD
ENDBRANCH  18  27
BRANCH  21  29
ATOM     29  C   UNL     1       4.338 -10.328   3.939  0.00  0.00    +0.190 C 
BRANCH  29  30
ATOM     30  O   UNL     1       3.139  -9.943   4.614  0.00  0.00    -0.392 OA
ATOM     31  H   UNL     1       3.123 -10.179   5.552  0.00  0.00    +0.210 HD
ENDBRANCH  29  30
ENDBRANCH  21  29
ENDBRANCH   1  17
TORSDOF 13
