REMARK  Name = ZINC41143991
REMARK  6 active torsions:
REMARK  status: ('A' for Active; 'I' for Inactive)
REMARK    1  A    between atoms: C_1  and  C_2
REMARK    2  A    between atoms: C_5  and  N_9
REMARK    3  A    between atoms: C_6  and  C_8
REMARK    4  A    between atoms: C_10  and  C_17
REMARK    5  A    between atoms: C_13  and  C_15
REMARK    6  A    between atoms: C_15  and  N_16
REMARK                            x       y       z     vdW  Elec       q    Type
REMARK                         _______ _______ _______ _____ _____    ______ ____
ROOT
ATOM      1  N   UNL     1       0.059  -4.167  -0.021  0.00  0.00    -0.216 N 
ATOM      2  C   UNL     1      -0.909  -5.034  -0.712  0.00  0.00    +0.140 C 
ATOM      3  C   UNL     1      -0.408  -6.455  -0.383  0.00  0.00    +0.080 C 
ATOM      4  C   UNL     1       0.814  -6.218   0.476  0.00  0.00    +0.022 C 
ATOM      5  N   UNL     1       1.002  -4.970   0.619  0.00  0.00    -0.190 NA
ENDROOT
BRANCH   1  10
ATOM      6  C   UNL     1      -0.018   1.503   0.010  0.00  0.00    +0.044 C 
ATOM      7  C   UNL     1       0.002  -0.004   0.002  0.00  0.00    -0.050 A 
ATOM      8  C   UNL     1       0.006  -0.687  -1.201  0.00  0.00    +0.005 A 
ATOM      9  C   UNL     1       0.025  -2.068  -1.212  0.00  0.00    +0.025 A 
ATOM     10  C   UNL     1       0.041  -2.771  -0.013  0.00  0.00    +0.055 A 
ATOM     11  C   UNL     1       0.037  -2.081   1.193  0.00  0.00    -0.027 A 
ATOM     12  C   UNL     1       0.023  -0.700   1.197  0.00  0.00    +0.008 A 
ATOM     13  C   UNL     1       0.054  -2.839   2.495  0.00  0.00    +0.046 C 
ENDBRANCH   1  10
BRANCH   2  14
ATOM     14  C   UNL     1      -2.298  -4.817  -0.170  0.00  0.00    +0.012 A 
ATOM     15  C   UNL     1      -3.480  -4.794  -0.834  0.00  0.00    +0.013 A 
ATOM     16  C   UNL     1      -4.645  -4.576  -0.122  0.00  0.00    +0.008 A 
ATOM     17  C   UNL     1      -4.571  -4.392   1.218  0.00  0.00    +0.045 A 
ATOM     18  S   UNL     1      -2.816  -4.532   1.515  0.00  0.00    -0.100 S 
ENDBRANCH   2  14
BRANCH   4  19
ATOM     19  C   UNL     1       1.681  -7.298   1.067  0.00  0.00    -0.033 C 
BRANCH  19  20
ATOM     20  N   UNL     1       2.770  -6.685   1.839  0.00  0.00    +0.382 N 
ATOM     21  H   UNL     1       3.326  -6.102   1.231  0.00  0.00    -0.090 HD
ATOM     22  H   UNL     1       2.381  -6.122   2.581  0.00  0.00    -0.090 HD
ATOM     23  H   UNL     1       3.352  -7.408   2.235  0.00  0.00    -0.090 HD
ENDBRANCH  19  20
ENDBRANCH   4  19
TORSDOF 4
