REMARK  Name = ZINC09045825
REMARK  10 active torsions:
REMARK  status: ('A' for Active; 'I' for Inactive)
REMARK    1  A    between atoms: C_1  and  C_2
REMARK    2  A    between atoms: C_2  and  O_3
REMARK    3  A    between atoms: O_3  and  C_4
REMARK    4  A    between atoms: C_7  and  N_10
REMARK    5  A    between atoms: C_11  and  C_13
REMARK    6  A    between atoms: C_13  and  C_15
REMARK    7  A    between atoms: C_13  and  O_16
REMARK    8  A    between atoms: O_16  and  C_17
REMARK    9  A    between atoms: C_27  and  C_28
REMARK   10  A    between atoms: C_31  and  C_34
REMARK                            x       y       z     vdW  Elec       q    Type
REMARK                         _______ _______ _______ _____ _____    ______ ____
ROOT
ATOM      1  C   UNL     1      -2.542  -0.002   1.850  0.00  0.00    +0.212 A 
ATOM      2  C   UNL     1      -2.365  -1.285   1.272  0.00  0.00    +0.235 A 
ATOM      3  O   UNL     1      -1.898  -1.417   0.152  0.00  0.00    -0.283 OA
ATOM      4  C   UNL     1      -2.763  -2.454   2.080  0.00  0.00    +0.071 A 
ATOM      5  C   UNL     1      -2.620  -3.753   1.593  0.00  0.00    +0.035 A 
ATOM      6  C   UNL     1      -3.009  -4.819   2.376  0.00  0.00    +0.043 A 
ATOM      7  C   UNL     1      -3.540  -4.603   3.641  0.00  0.00    +0.043 A 
ATOM      8  C   UNL     1      -3.686  -3.322   4.132  0.00  0.00    +0.085 A 
ATOM      9  C   UNL     1      -3.299  -2.233   3.358  0.00  0.00    +0.158 A 
ATOM     10  O   UNL     1      -3.435  -0.973   3.822  0.00  0.00    -0.449 OA
ATOM     11  C   UNL     1      -3.073   0.101   3.102  0.00  0.00    +0.181 A 
ATOM     12 CL   UNL     1      -4.352  -3.070   5.716  0.00  0.00    -0.080 Cl
ATOM     13 CL   UNL     1      -2.835  -6.439   1.778  0.00  0.00    -0.083 Cl
ENDROOT
BRANCH  11  14
ATOM     14  C   UNL     1      -3.256   1.443   3.687  0.00  0.00    +0.021 A 
ATOM     15  C   UNL     1      -2.797   1.715   4.978  0.00  0.00    +0.012 A 
ATOM     16  C   UNL     1      -2.968   2.973   5.517  0.00  0.00    +0.004 A 
ATOM     17  C   UNL     1      -3.601   3.962   4.786  0.00  0.00    -0.050 A 
ATOM     18  C   UNL     1      -4.063   3.699   3.508  0.00  0.00    +0.004 A 
ATOM     19  C   UNL     1      -3.895   2.447   2.954  0.00  0.00    +0.012 A 
ATOM     20  C   UNL     1      -3.790   5.332   5.384  0.00  0.00    +0.044 C 
ENDBRANCH  11  14
BRANCH   1  21
ATOM     21  O   UNL     1      -2.190   1.116   1.160  0.00  0.00    -0.473 OA
BRANCH  21  22
ATOM     22  C   UNL     1      -0.828   1.538   1.259  0.00  0.00    +0.256 C 
ATOM     23  C   UNL     1      -0.033   0.976   0.079  0.00  0.00    +0.062 C 
BRANCH  22  25
ATOM     24  N   UNL     1       0.397   3.674   1.496  0.00  0.00    -0.282 N 
ATOM     25  C   UNL     1      -0.766   3.044   1.235  0.00  0.00    +0.258 C 
ATOM     26  O   UNL     1      -1.761   3.688   0.981  0.00  0.00    -0.271 OA
ATOM     27  H   UNL     1       1.206   3.159   1.641  0.00  0.00    +0.155 HD
BRANCH  24  31
ATOM     28  C   UNL     1       0.515   7.838   1.678  0.00  0.00    +0.121 A 
ATOM     29  C   UNL     1       1.319   7.084   2.520  0.00  0.00    +0.047 A 
ATOM     30  C   UNL     1       1.280   5.705   2.460  0.00  0.00    +0.027 A 
ATOM     31  C   UNL     1       0.436   5.073   1.557  0.00  0.00    +0.034 A 
ATOM     32  C   UNL     1      -0.365   5.829   0.711  0.00  0.00    +0.027 A 
ATOM     33  C   UNL     1      -0.329   7.207   0.775  0.00  0.00    +0.047 A 
BRANCH  28  34
ATOM     34  O   UNL     1       0.553   9.196   1.738  0.00  0.00    -0.492 OA
BRANCH  34  36
ATOM     35  C   UNL     1      -0.121  11.414   1.054  0.00  0.00    +0.048 C 
ATOM     36  C   UNL     1      -0.301   9.909   0.841  0.00  0.00    +0.225 C 
ENDBRANCH  34  36
ENDBRANCH  28  34
ENDBRANCH  24  31
ENDBRANCH  22  25
ENDBRANCH  21  22
ENDBRANCH   1  21
TORSDOF 7
