REMARK  Name = ZINC65265923
REMARK  4 active torsions:
REMARK  status: ('A' for Active; 'I' for Inactive)
REMARK    1  A    between atoms: C_1  and  C_2
REMARK    2  A    between atoms: C_2  and  N_3
REMARK    3  A    between atoms: C_6  and  C_8
REMARK    4  A    between atoms: N_25  and  C_26
REMARK                            x       y       z     vdW  Elec       q    Type
REMARK                         _______ _______ _______ _____ _____    ______ ____
ROOT
ATOM      1  C   UNL     1      -4.654  -0.724   1.381  0.00  0.00    +0.267 C 
ATOM      2  O   UNL     1      -5.631  -1.354   1.026  0.00  0.00    -0.268 OA
ATOM      3  N   UNL     1      -4.719   0.062   2.474  0.00  0.00    -0.294 N 
ATOM      4  C   UNL     1      -3.619   0.879   3.008  0.00  0.00    +0.110 C 
ATOM      5  C   UNL     1      -4.160   1.627   4.248  0.00  0.00    +0.050 C 
ATOM      6  C   UNL     1      -5.682   1.595   4.028  0.00  0.00    +0.091 C 
ATOM      7  C   UNL     1      -5.909   0.250   3.328  0.00  0.00    +0.138 C 
ATOM      8  C   UNL     1      -6.438   1.702   5.308  0.00  0.00    +0.095 C 
ATOM      9  N   UNL     1      -7.697   2.247   5.232  0.00  0.00    -0.303 N 
ATOM     10  C   UNL     1      -7.844   3.624   5.363  0.00  0.00    +0.037 A 
ATOM     11  C   UNL     1      -8.844   4.142   6.174  0.00  0.00    +0.023 A 
ATOM     12  C   UNL     1      -9.002   5.508   6.295  0.00  0.00    +0.002 A 
ATOM     13  C   UNL     1      -8.157   6.354   5.599  0.00  0.00    +0.000 A 
ATOM     14  C   UNL     1      -7.160   5.840   4.799  0.00  0.00    +0.007 A 
ATOM     15  C   UNL     1      -6.981   4.465   4.672  0.00  0.00    -0.012 A 
ATOM     16  C   UNL     1      -5.841   4.005   3.800  0.00  0.00    +0.119 C 
ATOM     17  N   UNL     1      -6.106   2.712   3.155  0.00  0.00    -0.299 NA
ATOM     18  N   UNL     1      -5.935   1.304   6.431  0.00  0.00    -0.372 N 
ATOM     19  H   UNL     1      -5.656   2.658   2.254  0.00  0.00    +0.123 HD
ATOM     20  H   UNL     1      -5.043   0.923   6.455  0.00  0.00    +0.161 HD
ATOM     21  H   UNL     1      -8.472   1.680   5.090  0.00  0.00    +0.153 HD
ENDROOT
BRANCH   1  25
ATOM     22  N   UNL     1      -1.372  -0.511   0.012  0.00  0.00    -0.271 N 
ATOM     23  C   UNL     1      -1.884  -1.374  -0.892  0.00  0.00    +0.109 A 
ATOM     24  C   UNL     1      -3.173  -1.600  -0.545  0.00  0.00    +0.054 A 
ATOM     25  C   UNL     1      -3.395  -0.821   0.615  0.00  0.00    +0.147 A 
ATOM     26  N   UNL     1      -2.262  -0.203   0.886  0.00  0.00    -0.167 NA
BRANCH  22  28
ATOM     27  C   UNL     1      -0.019   1.526   0.010  0.00  0.00    +0.029 C 
ATOM     28  C   UNL     1       0.002  -0.004   0.002  0.00  0.00    +0.140 C 
ENDBRANCH  22  28
ENDBRANCH   1  25
BRANCH  18  29
ATOM     29  C   UNL     1      -6.713   1.427   7.666  0.00  0.00    +0.080 C 
ATOM     30  C   UNL     1      -6.478   2.813   8.302  0.00  0.00    +0.024 C 
ATOM     31  C   UNL     1      -6.466   2.534   9.826  0.00  0.00    +0.002 C 
ATOM     32  C   UNL     1      -5.731   1.174   9.919  0.00  0.00    +0.002 C 
ATOM     33  C   UNL     1      -6.238   0.385   8.694  0.00  0.00    +0.024 C 
ENDBRANCH  18  29
TORSDOF 3
