REMARK  Name = ZINC20393240
REMARK  6 active torsions:
REMARK  status: ('A' for Active; 'I' for Inactive)
REMARK    1  A    between atoms: C_6  and  C_7
REMARK    2  A    between atoms: C_7  and  C_8
REMARK    3  A    between atoms: C_8  and  N_9
REMARK    4  A    between atoms: C_13  and  N_14
REMARK    5  A    between atoms: N_14  and  C_15
REMARK    6  A    between atoms: C_21  and  N_23
REMARK                            x       y       z     vdW  Elec       q    Type
REMARK                         _______ _______ _______ _____ _____    ______ ____
ROOT
ATOM      1  N   UNL     1      -2.991  -1.857  -0.698  0.00  0.00    -0.221 N 
ATOM      2  C   UNL     1      -2.966  -3.190  -0.902  0.00  0.00    +0.260 C 
ATOM      3  O   UNL     1      -1.921  -3.811  -0.846  0.00  0.00    -0.269 OA
ATOM      4  C   UNL     1      -4.238  -3.874  -1.196  0.00  0.00    +0.113 C 
ATOM      5  C   UNL     1      -4.290  -5.238  -1.416  0.00  0.00    +0.086 C 
ATOM      6  C   UNL     1      -5.453  -3.040  -1.244  0.00  0.00    +0.258 C 
ATOM      7  N   UNL     1      -5.326  -1.716  -1.019  0.00  0.00    -0.235 N 
ATOM      8  C   UNL     1      -4.135  -1.161  -0.752  0.00  0.00    +0.315 C 
ATOM      9  O   UNL     1      -4.090   0.037  -0.554  0.00  0.00    -0.252 OA
ATOM     10  O   UNL     1      -6.540  -3.533  -1.481  0.00  0.00    -0.270 OA
ATOM     11  H   UNL     1      -6.116  -1.153  -1.047  0.00  0.00    +0.159 HD
ENDROOT
BRANCH   5  12
ATOM     12  N   UNL     1      -3.149  -5.947  -1.526  0.00  0.00    -0.348 N 
ATOM     13  H   UNL     1      -2.293  -5.490  -1.532  0.00  0.00    +0.146 HD
BRANCH  12  14
ATOM     14  C   UNL     1      -3.202  -7.407  -1.638  0.00  0.00    +0.055 C 
ATOM     15  C   UNL     1      -3.415  -7.799  -3.101  0.00  0.00    +0.020 C 
ATOM     16  C   UNL     1      -2.257  -7.264  -3.946  0.00  0.00    +0.002 C 
ATOM     17  C   UNL     1      -0.941  -7.862  -3.445  0.00  0.00    -0.001 C 
ATOM     18  C   UNL     1      -0.728  -7.469  -1.982  0.00  0.00    -0.014 C 
ATOM     19  C   UNL     1      -1.885  -8.004  -1.136  0.00  0.00    -0.055 C 
BRANCH  19  20
ATOM     20  N   UNL     1      -1.681  -7.627   0.269  0.00  0.00    +0.381 N 
ATOM     21  H   UNL     1      -2.444  -7.980   0.826  0.00  0.00    -0.090 HD
ATOM     22  H   UNL     1      -0.813  -8.021   0.600  0.00  0.00    -0.090 HD
ATOM     23  H   UNL     1      -1.645  -6.622   0.345  0.00  0.00    -0.090 HD
ENDBRANCH  19  20
ENDBRANCH  12  14
ENDBRANCH   5  12
BRANCH   1  24
ATOM     24  C   UNL     1      -1.740  -1.154  -0.405  0.00  0.00    +0.123 C 
BRANCH  24  25
ATOM     25  C   UNL     1      -1.508  -1.136   1.108  0.00  0.00    +0.054 C 
BRANCH  25  31
ATOM     26  C   UNL     1      -0.229   0.952   1.627  0.00  0.00    +0.006 A 
ATOM     27  C   UNL     1       0.951   1.616   1.904  0.00  0.00    +0.038 A 
ATOM     28  C   UNL     1       2.142   0.913   1.964  0.00  0.00    +0.123 A 
ATOM     29  C   UNL     1       2.150  -0.454   1.746  0.00  0.00    +0.038 A 
ATOM     30  C   UNL     1       0.969  -1.115   1.469  0.00  0.00    +0.006 A 
ATOM     31  C   UNL     1      -0.221  -0.413   1.410  0.00  0.00    -0.046 A 
ATOM     32  F   UNL     1       3.296   1.562   2.234  0.00  0.00    -0.205 F 
ENDBRANCH  25  31
ENDBRANCH  24  25
ENDBRANCH   1  24
TORSDOF 6
