REMARK  Name = ZINC35397184
REMARK  8 active torsions:
REMARK  status: ('A' for Active; 'I' for Inactive)
REMARK    1  A    between atoms: C_1  and  C_2
REMARK    2  A    between atoms: C_6  and  N_9
REMARK    3  A    between atoms: C_7  and  C_8
REMARK    4  A    between atoms: C_10  and  C_12
REMARK    5  A    between atoms: C_12  and  S_13
REMARK    6  A    between atoms: S_13  and  C_14
REMARK    7  A    between atoms: N_19  and  C_22
REMARK    8  A    between atoms: C_24  and  C_25
REMARK                            x       y       z     vdW  Elec       q    Type
REMARK                         _______ _______ _______ _____ _____    ______ ____
ROOT
ATOM      1  C   UNL     1      -0.333  -7.412   4.943  0.00  0.00    +0.120 C 
ATOM      2  N   UNL     1      -0.342  -6.762   6.069  0.00  0.00    -0.246 NA
ATOM      3  C   UNL     1      -0.444  -7.755   7.143  0.00  0.00    +0.150 C 
ATOM      4  C   UNL     1       0.777  -7.668   8.059  0.00  0.00    +0.035 C 
ATOM      5  C   UNL     1       0.621  -8.672   9.203  0.00  0.00    -0.075 C 
ATOM      6  N   UNL     1      -0.598  -8.368   9.963  0.00  0.00    +0.378 N 
ATOM      7  C   UNL     1      -1.776  -8.532   9.103  0.00  0.00    -0.075 C 
ATOM      8  C   UNL     1      -1.719  -7.522   7.955  0.00  0.00    +0.035 C 
ATOM      9  C   UNL     1      -0.699  -9.281  11.109  0.00  0.00    -0.096 C 
ATOM     10  N   UNL     1      -0.494  -9.068   6.493  0.00  0.00    -0.251 NA
ATOM     11  C   UNL     1      -0.434  -8.866   5.211  0.00  0.00    +0.100 C 
ATOM     12  H   UNL     1      -0.556  -7.417  10.296  0.00  0.00    -0.082 HD
ENDROOT
BRANCH  11  13
ATOM     13  C   UNL     1      -0.461  -9.926   4.177  0.00  0.00    +0.003 A 
ATOM     14  C   UNL     1      -0.044 -11.220   4.490  0.00  0.00    +0.011 A 
ATOM     15  C   UNL     1      -0.070 -12.203   3.523  0.00  0.00    +0.016 A 
ATOM     16  C   UNL     1      -0.509 -11.908   2.244  0.00  0.00    +0.018 A 
ATOM     17  C   UNL     1      -0.924 -10.625   1.927  0.00  0.00    +0.016 A 
ATOM     18  C   UNL     1      -0.907  -9.635   2.887  0.00  0.00    +0.011 A 
ATOM     19 BR   UNL     1      -0.543 -13.261   0.923  0.00  0.00    -0.050 Br
ENDBRANCH  11  13
BRANCH   1  20
ATOM     20  S   UNL     1      -0.224  -6.678   3.345  0.00  0.00    -0.095 S 
BRANCH  20  21
ATOM     21  C   UNL     1      -0.126  -4.899   3.686  0.00  0.00    +0.172 C 
BRANCH  21  23
ATOM     22  N   UNL     1       0.057  -2.798   2.393  0.00  0.00    -0.285 N 
ATOM     23  C   UNL     1      -0.028  -4.143   2.385  0.00  0.00    +0.227 C 
ATOM     24  O   UNL     1      -0.024  -4.745   1.333  0.00  0.00    -0.275 OA
ATOM     25  H   UNL     1       0.135  -2.321   3.234  0.00  0.00    +0.155 HD
BRANCH  22  31
ATOM     26  C   UNL     1       1.214   1.235  -0.171  0.00  0.00    +0.044 C 
ATOM     27  C   UNL     1       0.585  -0.132  -0.084  0.00  0.00    -0.046 A 
ATOM     28  C   UNL     1      -0.019  -0.686  -1.198  0.00  0.00    +0.004 A 
ATOM     29  C   UNL     1      -0.598  -1.940  -1.122  0.00  0.00    +0.002 A 
ATOM     30  C   UNL     1      -0.574  -2.642   0.067  0.00  0.00    +0.023 A 
ATOM     31  C   UNL     1       0.031  -2.089   1.187  0.00  0.00    +0.037 A 
ATOM     32  C   UNL     1       0.616  -0.831   1.106  0.00  0.00    -0.026 A 
ATOM     33  C   UNL     1       1.280  -0.229   2.318  0.00  0.00    +0.046 C 
ENDBRANCH  22  31
ENDBRANCH  21  23
ENDBRANCH  20  21
ENDBRANCH   1  20
TORSDOF 5
