REMARK  Name = ZINC63375990
REMARK  9 active torsions:
REMARK  status: ('A' for Active; 'I' for Inactive)
REMARK    1  A    between atoms: C_1  and  C_2
REMARK    2  A    between atoms: C_2  and  C_3
REMARK    3  A    between atoms: C_3  and  C_5
REMARK    4  A    between atoms: C_3  and  N_6
REMARK    5  A    between atoms: C_7  and  C_9
REMARK    6  A    between atoms: C_14  and  N_15
REMARK    7  A    between atoms: C_31  and  C_36
REMARK    8  A    between atoms: C_39  and  O_42
REMARK    9  A    between atoms: O_42  and  C_43
REMARK                            x       y       z     vdW  Elec       q    Type
REMARK                         _______ _______ _______ _____ _____    ______ ____
ROOT
ATOM      1  N   UNL     1       1.794   0.345  -6.177  0.00  0.00    -0.192 N 
ATOM      2  C   UNL     1       2.350  -0.848  -6.470  0.00  0.00    +0.248 C 
ATOM      3  O   UNL     1       1.775  -1.900  -6.648  0.00  0.00    -0.273 OA
ATOM      4  C   UNL     1       3.842  -0.600  -6.530  0.00  0.00    +0.169 C 
ATOM      5  C   UNL     1       4.561  -1.482  -5.494  0.00  0.00    +0.065 C 
ATOM      6  C   UNL     1       5.864  -0.789  -5.172  0.00  0.00    -0.034 C 
ATOM      7  C   UNL     1       6.783  -1.055  -4.250  0.00  0.00    -0.001 A 
ATOM      8  C   UNL     1       6.907  -2.158  -3.283  0.00  0.00    +0.010 A 
ATOM      9  C   UNL     1       7.987  -2.112  -2.458  0.00  0.00    +0.001 A 
ATOM     10  C   UNL     1       8.942  -1.092  -2.498  0.00  0.00    +0.002 A 
ATOM     11  C   UNL     1       8.910  -0.044  -3.359  0.00  0.00    +0.026 A 
ATOM     12  C   UNL     1       7.825   0.016  -4.280  0.00  0.00    +0.043 A 
ATOM     13  N   UNL     1       7.558   0.882  -5.212  0.00  0.00    -0.375 N 
ATOM     14  C   UNL     1       6.353   0.446  -5.919  0.00  0.00    +0.131 C 
ATOM     15  C   UNL     1       5.238   1.497  -5.832  0.00  0.00    +0.135 C 
ATOM     16  N   UNL     1       3.966   0.815  -6.123  0.00  0.00    -0.264 N 
ATOM     17  C   UNL     1       2.722   1.298  -6.014  0.00  0.00    +0.317 C 
ATOM     18  O   UNL     1       2.465   2.464  -5.790  0.00  0.00    -0.252 OA
ATOM     19  H   UNL     1       8.071   1.683  -5.405  0.00  0.00    +0.160 HD
ENDROOT
BRANCH   1  25
ATOM     20  C   UNL     1      -0.218   0.414  -4.823  0.00  0.00    +0.059 A 
ATOM     21  C   UNL     1      -1.592   0.640  -4.722  0.00  0.00    +0.015 A 
ATOM     22  C   UNL     1      -2.314   1.001  -5.839  0.00  0.00    +0.001 A 
ATOM     23  C   UNL     1      -1.683   1.141  -7.064  0.00  0.00    +0.002 A 
ATOM     24  C   UNL     1      -0.325   0.921  -7.179  0.00  0.00    +0.025 A 
ATOM     25  C   UNL     1       0.419   0.563  -6.064  0.00  0.00    +0.058 A 
BRANCH  20  27
ATOM     26  N   UNL     1      -0.055  -0.114  -2.441  0.00  0.00    -0.309 N 
ATOM     27  C   UNL     1       0.561   0.028  -3.631  0.00  0.00    +0.246 C 
ATOM     28  O   UNL     1       1.758  -0.163  -3.722  0.00  0.00    -0.270 OA
ATOM     29  H   UNL     1      -1.010   0.038  -2.368  0.00  0.00    +0.149 HD
BRANCH  26  30
ATOM     30  C   UNL     1       0.718  -0.497  -1.257  0.00  0.00    +0.070 C 
ATOM     31  C   UNL     1       0.849  -2.021  -1.205  0.00  0.00    +0.028 C 
BRANCH  30  33
ATOM     32  C   UNL     1      -0.019   1.526   0.010  0.00  0.00    +0.005 C 
ATOM     33  C   UNL     1       0.002  -0.004   0.002  0.00  0.00    +0.018 C 
ENDBRANCH  30  33
ENDBRANCH  26  30
ENDBRANCH  20  27
ENDBRANCH   1  25
BRANCH  15  34
ATOM     34  C   UNL     1       5.212   2.104  -4.453  0.00  0.00    -0.024 A 
ATOM     35  C   UNL     1       4.607   1.426  -3.411  0.00  0.00    +0.009 A 
ATOM     36  C   UNL     1       4.582   1.981  -2.147  0.00  0.00    +0.046 A 
ATOM     37  C   UNL     1       5.165   3.220  -1.922  0.00  0.00    +0.120 A 
ATOM     38  C   UNL     1       5.771   3.898  -2.970  0.00  0.00    +0.046 A 
ATOM     39  C   UNL     1       5.798   3.337  -4.231  0.00  0.00    +0.009 A 
BRANCH  37  40
ATOM     40  O   UNL     1       5.141   3.768  -0.679  0.00  0.00    -0.495 OA
ATOM     41  C   UNL     1       5.760   5.047  -0.522  0.00  0.00    +0.277 C 
ENDBRANCH  37  40
ENDBRANCH  15  34
TORSDOF 6
