REMARK  Name = ZINC61684980
REMARK  7 active torsions:
REMARK  status: ('A' for Active; 'I' for Inactive)
REMARK    1  A    between atoms: C_1  and  C_2
REMARK    2  A    between atoms: C_2  and  C_3
REMARK    3  A    between atoms: C_2  and  C_4
REMARK    4  A    between atoms: C_2  and  C_5
REMARK    5  A    between atoms: C_5  and  C_7
REMARK    6  A    between atoms: C_5  and  N_15
REMARK    7  A    between atoms: N_9  and  C_10
REMARK                            x       y       z     vdW  Elec       q    Type
REMARK                         _______ _______ _______ _____ _____    ______ ____
ROOT
ATOM      1  C   UNL     1       0.718  -0.497  -1.257  0.00  0.00    +0.019 C 
ENDROOT
BRANCH   1   3
ATOM      2  C   UNL     1      -0.019   1.526   0.010  0.00  0.00    +0.009 C 
ATOM      3  C   UNL     1       0.002  -0.004   0.002  0.00  0.00    -0.042 C 
ATOM      4  C   UNL     1       0.742  -0.511   1.242  0.00  0.00    +0.009 C 
ATOM      5  C   UNL     1      -1.433  -0.534   0.013  0.00  0.00    +0.009 C 
ENDBRANCH   1   3
BRANCH   1   6
ATOM      6  C   UNL     1       2.132   0.024  -1.268  0.00  0.00    +0.203 C 
ATOM      7  O   UNL     1       3.046  -0.694  -0.921  0.00  0.00    -0.277 OA
ATOM      8  N   UNL     1       2.381   1.288  -1.662  0.00  0.00    -0.283 N 
ATOM      9  H   UNL     1       1.650   1.863  -1.940  0.00  0.00    +0.155 HD
BRANCH   8  10
ATOM     10  C   UNL     1       3.701   1.776  -1.672  0.00  0.00    +0.093 A 
ATOM     11  C   UNL     1       4.854   1.052  -1.303  0.00  0.00    +0.180 A 
ATOM     12  N   UNL     1       5.885   1.836  -1.444  0.00  0.00    -0.085 NA
ATOM     13  O   UNL     1       5.422   3.091  -1.910  0.00  0.00    -0.361 OA
ATOM     14  C   UNL     1       4.087   3.016  -2.043  0.00  0.00    +0.253 A 
ENDBRANCH   8  10
ENDBRANCH   1   6
BRANCH   1  15
ATOM     15  N   UNL     1       0.738  -1.966  -1.265  0.00  0.00    +0.386 N 
ATOM     16  H   UNL     1       1.210  -2.292  -2.095  0.00  0.00    -0.089 HD
ATOM     17  H   UNL     1       1.226  -2.301  -0.447  0.00  0.00    -0.089 HD
ATOM     18  H   UNL     1      -0.208  -2.316  -1.258  0.00  0.00    -0.089 HD
ENDBRANCH   1  15
TORSDOF 4
