REMARK  Name = ZINC37264049
REMARK  13 active torsions:
REMARK  status: ('A' for Active; 'I' for Inactive)
REMARK    1  A    between atoms: C_1  and  C_2
REMARK    2  A    between atoms: C_2  and  C_3
REMARK    3  A    between atoms: C_3  and  C_5
REMARK    4  A    between atoms: C_3  and  N_6
REMARK    5  A    between atoms: C_7  and  C_9
REMARK    6  A    between atoms: C_9  and  N_10
REMARK    7  A    between atoms: C_13  and  C_23
REMARK    8  A    between atoms: N_15  and  C_16
REMARK    9  A    between atoms: C_20  and  C_22
REMARK   10  A    between atoms: C_23  and  C_24
REMARK   11  A    between atoms: C_23  and  C_25
REMARK   12  A    between atoms: C_23  and  C_26
REMARK   13  A    between atoms: C_27  and  C_33
REMARK                            x       y       z     vdW  Elec       q    Type
REMARK                         _______ _______ _______ _____ _____    ______ ____
ROOT
ATOM      1  N   UNL     1      -9.220   1.024   1.647  0.00  0.00    -0.246 N 
ATOM      2  C   UNL     1      -8.746   0.086   0.718  0.00  0.00    +0.136 A 
ATOM      3  C   UNL     1      -9.419  -1.034   0.367  0.00  0.00    +0.034 A 
ATOM      4  C   UNL     1      -8.653  -1.717  -0.578  0.00  0.00    +0.075 A 
ATOM      5  N   UNL     1      -7.554  -1.032  -0.787  0.00  0.00    -0.169 NA
ATOM      6  N   UNL     1      -7.585   0.115   0.022  0.00  0.00    -0.218 N 
ATOM      7  C   UNL     1     -10.758  -1.443   0.926  0.00  0.00    +0.118 C 
ATOM      8  S   UNL     1     -12.045  -0.358   0.210  0.00  0.00    -0.138 S 
ATOM      9  C   UNL     1     -11.223   1.270   0.239  0.00  0.00    +0.166 C 
ATOM     10  C   UNL     1     -10.478   1.460   1.527  0.00  0.00    +0.231 C 
ATOM     11  O   UNL     1     -11.017   2.015   2.462  0.00  0.00    -0.274 OA
ENDROOT
BRANCH   6  12
ATOM     12  C   UNL     1      -6.596   1.105   0.097  0.00  0.00    +0.068 A 
ATOM     13  C   UNL     1      -6.953   2.431   0.299  0.00  0.00    +0.028 A 
ATOM     14  C   UNL     1      -5.977   3.405   0.372  0.00  0.00    +0.002 A 
ATOM     15  C   UNL     1      -4.644   3.060   0.243  0.00  0.00    +0.003 A 
ATOM     16  C   UNL     1      -4.284   1.740   0.041  0.00  0.00    -0.048 A 
ATOM     17  C   UNL     1      -5.256   0.761  -0.026  0.00  0.00    +0.031 A 
ATOM     18  C   UNL     1      -2.831   1.369  -0.099  0.00  0.00    +0.044 C 
ENDBRANCH   6  12
BRANCH   7  19
ATOM     19  C   UNL     1     -11.041  -2.878   0.561  0.00  0.00    +0.007 A 
ATOM     20  C   UNL     1     -11.718  -3.370  -0.504  0.00  0.00    +0.012 A 
ATOM     21  C   UNL     1     -11.854  -4.739  -0.637  0.00  0.00    +0.008 A 
ATOM     22  C   UNL     1     -11.307  -5.549   0.302  0.00  0.00    +0.045 A 
ATOM     23  S   UNL     1     -10.564  -4.370   1.418  0.00  0.00    -0.100 S 
ENDBRANCH   7  19
BRANCH   4  24
ATOM     24  C   UNL     1      -9.024  -3.017  -1.243  0.00  0.00    +0.007 C 
ATOM     25  C   UNL     1     -10.464  -2.937  -1.752  0.00  0.00    +0.017 C 
ATOM     26  C   UNL     1      -8.081  -3.275  -2.420  0.00  0.00    +0.017 C 
ATOM     27  C   UNL     1      -8.902  -4.160  -0.233  0.00  0.00    +0.017 C 
ENDBRANCH   4  24
BRANCH   1  28
ATOM     28  C   UNL     1      -8.358   1.510   2.727  0.00  0.00    +0.210 C 
BRANCH  28  30
ATOM     29  N   UNL     1      -7.807   0.872   5.053  0.00  0.00    -0.311 N 
ATOM     30  C   UNL     1      -8.509   0.617   3.931  0.00  0.00    +0.231 C 
ATOM     31  O   UNL     1      -9.263  -0.333   3.891  0.00  0.00    -0.274 OA
ATOM     32  H   UNL     1      -7.204   1.632   5.085  0.00  0.00    +0.149 HD
BRANCH  29  33
ATOM     33  C   UNL     1      -7.954   0.003   6.223  0.00  0.00    +0.070 C 
ATOM     34  C   UNL     1      -7.018  -1.199   6.087  0.00  0.00    +0.028 C 
BRANCH  33  36
ATOM     35  C   UNL     1      -8.610   1.915   7.692  0.00  0.00    +0.005 C 
ATOM     36  C   UNL     1      -7.597   0.787   7.488  0.00  0.00    +0.018 C 
ENDBRANCH  33  36
ENDBRANCH  29  33
ENDBRANCH  28  30
ENDBRANCH   1  28
TORSDOF 7
