REMARK  Name = ZINC09786172
REMARK  6 active torsions:
REMARK  status: ('A' for Active; 'I' for Inactive)
REMARK    1  A    between atoms: C_4  and  N_10
REMARK    2  A    between atoms: C_5  and  C_7
REMARK    3  A    between atoms: C_11  and  C_13
REMARK    4  A    between atoms: C_13  and  C_14
REMARK    5  A    between atoms: N_22  and  C_23
REMARK    6  A    between atoms: C_23  and  C_24
REMARK                            x       y       z     vdW  Elec       q    Type
REMARK                         _______ _______ _______ _____ _____    ______ ____
ROOT
ATOM      1  C   UNL     1       7.769  -0.546  -4.476  0.00  0.00    +0.059 A 
ATOM      2  C   UNL     1       8.450  -0.773  -3.326  0.00  0.00    +0.072 A 
ATOM      3  S   UNL     1       7.212  -0.336  -2.115  0.00  0.00    -0.060 S 
ATOM      4  C   UNL     1       5.948   0.091  -3.227  0.00  0.00    +0.166 A 
ATOM      5  N   UNL     1       6.523  -0.122  -4.395  0.00  0.00    -0.229 NA
ATOM      6  N   UNL     1       4.660   0.537  -2.956  0.00  0.00    -0.248 N 
ATOM      7  C   UNL     1       4.254   0.688  -1.679  0.00  0.00    +0.306 C 
ATOM      8  O   UNL     1       5.014   0.433  -0.765  0.00  0.00    -0.252 OA
ATOM      9  N   UNL     1       3.005   1.121  -1.416  0.00  0.00    -0.294 N 
ATOM     10  H   UNL     1       4.054   0.741  -3.685  0.00  0.00    +0.158 HD
ATOM     11  H   UNL     1       2.398   1.324  -2.146  0.00  0.00    +0.151 HD
ENDROOT
BRANCH   1  12
ATOM     12  C   UNL     1       8.418  -0.781  -5.816  0.00  0.00    +0.152 C 
BRANCH  12  14
ATOM     13  N   UNL     1       7.955  -2.082  -7.868  0.00  0.00    -0.285 N 
ATOM     14  C   UNL     1       7.569  -1.725  -6.627  0.00  0.00    +0.223 C 
ATOM     15  O   UNL     1       6.538  -2.165  -6.163  0.00  0.00    -0.275 OA
ATOM     16  H   UNL     1       8.744  -1.681  -8.264  0.00  0.00    +0.155 HD
BRANCH  13  20
ATOM     17  C   UNL     1       5.753  -4.907 -10.004  0.00  0.00    +0.001 A 
ATOM     18  C   UNL     1       5.112  -4.010  -9.165  0.00  0.00    +0.002 A 
ATOM     19  C   UNL     1       5.838  -3.076  -8.454  0.00  0.00    +0.024 A 
ATOM     20  C   UNL     1       7.220  -3.025  -8.582  0.00  0.00    +0.046 A 
ATOM     21  C   UNL     1       7.873  -3.932  -9.430  0.00  0.00    +0.058 A 
ATOM     22  C   UNL     1       7.124  -4.874 -10.140  0.00  0.00    +0.015 A 
BRANCH  21  23
ATOM     23  C   UNL     1       9.341  -3.892  -9.570  0.00  0.00    +0.243 C 
ATOM     24  O   UNL     1       9.997  -3.139  -8.877  0.00  0.00    -0.270 OA
ATOM     25  N   UNL     1       9.954  -4.691 -10.466  0.00  0.00    -0.325 N 
ATOM     26  H   UNL     1       9.430  -5.291 -11.019  0.00  0.00    +0.145 HD
ATOM     27  H   UNL     1      10.919  -4.664 -10.559  0.00  0.00    +0.145 HD
ENDBRANCH  21  23
ENDBRANCH  13  20
ENDBRANCH  12  14
ENDBRANCH   1  12
BRANCH   9  28
ATOM     28  C   UNL     1       2.563   1.284  -0.029  0.00  0.00    +0.148 C 
BRANCH  28  29
ATOM     29  C   UNL     1       1.139   1.776  -0.010  0.00  0.00    +0.007 A 
ATOM     30  C   UNL     1      -0.011   1.058   0.009  0.00  0.00    +0.013 A 
ATOM     31  C   UNL     1      -1.220   1.730   0.019  0.00  0.00    +0.008 A 
ATOM     32  C   UNL     1      -1.219   3.085   0.021  0.00  0.00    +0.045 A 
ATOM     33  S   UNL     1       0.528   3.453  -0.006  0.00  0.00    -0.100 S 
ENDBRANCH  28  29
ENDBRANCH   9  28
TORSDOF 6
