REMARK  Name = ZINC15135221
REMARK  14 active torsions:
REMARK  status: ('A' for Active; 'I' for Inactive)
REMARK    1  A    between atoms: C_4  and  N_24
REMARK    2  A    between atoms: C_5  and  N_7
REMARK    3  A    between atoms: N_7  and  C_8
REMARK    4  A    between atoms: C_10  and  O_23
REMARK    5  A    between atoms: C_12  and  O_22
REMARK    6  A    between atoms: C_14  and  O_21
REMARK    7  A    between atoms: C_16  and  C_19
REMARK    8  A    between atoms: C_19  and  O_20
REMARK    9  A    between atoms: N_24  and  C_25
REMARK   10  A    between atoms: C_27  and  O_40
REMARK   11  A    between atoms: C_29  and  O_39
REMARK   12  A    between atoms: C_31  and  O_38
REMARK   13  A    between atoms: C_33  and  C_36
REMARK   14  A    between atoms: C_36  and  O_37
REMARK                            x       y       z     vdW  Elec       q    Type
REMARK                         _______ _______ _______ _____ _____    ______ ____
ROOT
ATOM      1  C   UNL     1      -3.449  -2.511   3.707  0.00  0.00    +0.002 A 
ATOM      2  C   UNL     1      -3.478  -1.128   3.697  0.00  0.00    +0.002 A 
ATOM      3  C   UNL     1      -2.365  -0.412   3.298  0.00  0.00    +0.025 A 
ATOM      4  C   UNL     1      -1.218  -1.081   2.896  0.00  0.00    +0.050 A 
ATOM      5  C   UNL     1      -1.189  -2.475   2.906  0.00  0.00    +0.050 A 
ATOM      6  C   UNL     1      -2.308  -3.185   3.313  0.00  0.00    +0.025 A 
ENDROOT
BRANCH   5   7
ATOM      7  N   UNL     1      -0.033  -3.156   2.506  0.00  0.00    -0.316 N 
ATOM      8  H   UNL     1       0.720  -2.663   2.143  0.00  0.00    +0.149 HD
BRANCH   7   9
ATOM      9  C   UNL     1       0.041  -4.614   2.635  0.00  0.00    +0.235 C 
ATOM     10  C   UNL     1       1.479  -5.026   2.960  0.00  0.00    +0.192 C 
ATOM     11  C   UNL     1       2.393  -4.615   1.801  0.00  0.00    +0.178 C 
ATOM     12  C   UNL     1       1.881  -5.259   0.509  0.00  0.00    +0.177 C 
ATOM     13  C   UNL     1       0.427  -4.838   0.279  0.00  0.00    +0.177 C 
ATOM     14  O   UNL     1      -0.362  -5.222   1.407  0.00  0.00    -0.348 OA
BRANCH  12  15
ATOM     15  O   UNL     1       2.684  -4.825  -0.591  0.00  0.00    -0.386 OA
ATOM     16  H   UNL     1       3.620  -5.054  -0.509  0.00  0.00    +0.210 HD
ENDBRANCH  12  15
BRANCH  11  17
ATOM     17  O   UNL     1       3.726  -5.059   2.064  0.00  0.00    -0.386 OA
ATOM     18  H   UNL     1       4.110  -4.694   2.872  0.00  0.00    +0.210 HD
ENDBRANCH  11  17
BRANCH  10  19
ATOM     19  O   UNL     1       1.541  -6.442   3.140  0.00  0.00    -0.385 OA
ATOM     20  H   UNL     1       0.982  -6.772   3.857  0.00  0.00    +0.210 HD
ENDBRANCH  10  19
BRANCH  13  21
ATOM     21  C   UNL     1      -0.110  -5.525  -0.978  0.00  0.00    +0.190 C 
BRANCH  21  22
ATOM     22  O   UNL     1      -1.426  -5.044  -1.258  0.00  0.00    -0.392 OA
ATOM     23  H   UNL     1      -1.830  -5.437  -2.044  0.00  0.00    +0.210 HD
ENDBRANCH  21  22
ENDBRANCH  13  21
ENDBRANCH   7   9
ENDBRANCH   5   7
BRANCH   4  24
ATOM     24  N   UNL     1      -0.091  -0.358   2.487  0.00  0.00    -0.316 N 
ATOM     25  H   UNL     1       0.712  -0.827   2.210  0.00  0.00    +0.149 HD
BRANCH  24  26
ATOM     26  C   UNL     1      -0.124   1.107   2.477  0.00  0.00    +0.235 C 
ATOM     27  C   UNL     1       1.255   1.651   2.860  0.00  0.00    +0.192 C 
ATOM     28  C   UNL     1       2.281   1.202   1.814  0.00  0.00    +0.178 C 
ATOM     29  C   UNL     1       1.829   1.684   0.432  0.00  0.00    +0.177 C 
ATOM     30  C   UNL     1       0.428   1.138   0.143  0.00  0.00    +0.177 C 
ATOM     31  O   UNL     1      -0.470   1.567   1.170  0.00  0.00    -0.348 OA
BRANCH  29  32
ATOM     32  O   UNL     1       1.799   3.112   0.409  0.00  0.00    -0.386 OA
ATOM     33  H   UNL     1       2.655   3.526   0.585  0.00  0.00    +0.210 HD
ENDBRANCH  29  32
BRANCH  28  34
ATOM     34  O   UNL     1       3.557   1.766   2.123  0.00  0.00    -0.386 OA
ATOM     35  H   UNL     1       3.905   1.503   2.986  0.00  0.00    +0.210 HD
ENDBRANCH  28  34
BRANCH  27  36
ATOM     36  O   UNL     1       1.630   1.146   4.144  0.00  0.00    -0.385 OA
ATOM     37  H   UNL     1       1.023   1.393   4.855  0.00  0.00    +0.210 HD
ENDBRANCH  27  36
BRANCH  30  38
ATOM     38  C   UNL     1      -0.056   1.664  -1.210  0.00  0.00    +0.190 C 
BRANCH  38  39
ATOM     39  O   UNL     1      -1.312   1.064  -1.533  0.00  0.00    -0.392 OA
ATOM     40  H   UNL     1      -1.679   1.352  -2.380  0.00  0.00    +0.210 HD
ENDBRANCH  38  39
ENDBRANCH  30  38
ENDBRANCH  24  26
ENDBRANCH   4  24
TORSDOF 14
