REMARK  Name = ZINC58407840
REMARK  5 active torsions:
REMARK  status: ('A' for Active; 'I' for Inactive)
REMARK    1  A    between atoms: C_1  and  C_2
REMARK    2  A    between atoms: C_4  and  N_22
REMARK    3  A    between atoms: N_8  and  C_9
REMARK    4  A    between atoms: C_12  and  N_15
REMARK    5  A    between atoms: N_18  and  C_21
REMARK                            x       y       z     vdW  Elec       q    Type
REMARK                         _______ _______ _______ _____ _____    ______ ____
ROOT
ATOM      1  C   UNL     1       0.164  -4.817   1.344  0.00  0.00    +0.033 A 
ATOM      2  C   UNL     1       0.172  -4.122   2.547  0.00  0.00    +0.025 A 
ATOM      3  C   UNL     1       0.275  -4.808   3.740  0.00  0.00    +0.025 A 
ATOM      4  C   UNL     1       0.371  -6.193   3.739  0.00  0.00    +0.030 A 
ATOM      5  C   UNL     1       0.363  -6.888   2.537  0.00  0.00    +0.025 A 
ATOM      6  C   UNL     1       0.254  -6.203   1.343  0.00  0.00    +0.025 A 
ENDROOT
BRANCH   1  14
ATOM      7  C   UNL     1       2.550   0.900  -0.346  0.00  0.00    +0.045 C 
ATOM      8  C   UNL     1       1.872  -0.443  -0.257  0.00  0.00    -0.030 A 
ATOM      9  C   UNL     1       1.238  -0.983  -1.369  0.00  0.00    +0.031 A 
ATOM     10  C   UNL     1       0.625  -2.222  -1.244  0.00  0.00    +0.065 A 
ATOM     11  C   UNL     1       0.668  -2.877  -0.010  0.00  0.00    +0.144 A 
ATOM     12  N   UNL     1       1.284  -2.325   1.022  0.00  0.00    -0.238 NA
ATOM     13  C   UNL     1       1.879  -1.150   0.927  0.00  0.00    +0.116 A 
ATOM     14  N   UNL     1       0.058  -4.121   0.134  0.00  0.00    -0.298 N 
ATOM     15  H   UNL     1      -0.440  -4.505  -0.605  0.00  0.00    +0.154 HD
BRANCH  10  16
ATOM     16  N   UNL     1      -0.027  -2.806  -2.336  0.00  0.00    -0.355 N 
ATOM     17  H   UNL     1      -0.053  -2.345  -3.189  0.00  0.00    +0.142 HD
ATOM     18  H   UNL     1      -0.453  -3.672  -2.240  0.00  0.00    +0.142 HD
ENDBRANCH  10  16
ENDBRANCH   1  14
BRANCH   4  19
ATOM     19  N   UNL     1       0.476  -6.888   4.949  0.00  0.00    -0.333 N 
ATOM     20  C   UNL     1       0.718  -8.339   4.969  0.00  0.00    +0.086 C 
ATOM     21  C   UNL     1       1.893  -8.623   5.912  0.00  0.00    -0.060 C 
ATOM     22  N   UNL     1       1.614  -8.036   7.229  0.00  0.00    +0.380 N 
ATOM     23  C   UNL     1       1.539  -6.574   7.120  0.00  0.00    -0.060 C 
ATOM     24  C   UNL     1       0.353  -6.188   6.237  0.00  0.00    +0.086 C 
ATOM     25  C   UNL     1       2.688  -8.401   8.162  0.00  0.00    -0.096 C 
ATOM     26  H   UNL     1       0.736  -8.392   7.575  0.00  0.00    -0.082 HD
ENDBRANCH   4  19
TORSDOF 3
