REMARK  Name = ZINC31001237
REMARK  10 active torsions:
REMARK  status: ('A' for Active; 'I' for Inactive)
REMARK    1  A    between atoms: C_1  and  C_2
REMARK    2  A    between atoms: C_5  and  N_9
REMARK    3  A    between atoms: C_6  and  C_8
REMARK    4  A    between atoms: C_13  and  C_15
REMARK    5  A    between atoms: C_15  and  C_17
REMARK    6  A    between atoms: C_15  and  N_18
REMARK    7  A    between atoms: N_18  and  C_19
REMARK    8  A    between atoms: N_18  and  C_20
REMARK    9  A    between atoms: C_20  and  C_21
REMARK   10  A    between atoms: N_23  and  C_24
REMARK                            x       y       z     vdW  Elec       q    Type
REMARK                         _______ _______ _______ _____ _____    ______ ____
ROOT
ATOM      1  C   UNL     1      -1.162   3.044   1.289  0.00  0.00    +0.017 C 
ATOM      2  C   UNL     1      -1.905   3.388   2.581  0.00  0.00    -0.004 C 
ENDROOT
BRANCH   1   7
ATOM      3  N   UNL     1      -3.435   6.370  -1.334  0.00  0.00    -0.269 N 
ATOM      4  C   UNL     1      -3.099   5.079  -1.145  0.00  0.00    +0.310 C 
ATOM      5  O   UNL     1      -3.477   4.231  -1.929  0.00  0.00    -0.252 OA
ATOM      6  N   UNL     1      -2.343   4.728  -0.085  0.00  0.00    -0.241 N 
ATOM      7  C   UNL     1      -2.007   3.437   0.104  0.00  0.00    +0.207 C 
ATOM      8  O   UNL     1      -2.384   2.591  -0.678  0.00  0.00    -0.277 OA
ATOM      9  H   UNL     1      -3.041   7.146  -0.661  0.00  0.00    +0.156 HD
ATOM     10  H   UNL     1      -2.000   5.495   0.624  0.00  0.00    +0.159 HD
BRANCH   3  15
ATOM     11  C   UNL     1      -6.879   7.806  -5.607  0.00  0.00    +0.044 C 
ATOM     12  C   UNL     1      -5.964   7.425  -4.473  0.00  0.00    -0.050 A 
ATOM     13  C   UNL     1      -5.198   6.277  -4.560  0.00  0.00    +0.005 A 
ATOM     14  C   UNL     1      -4.359   5.924  -3.521  0.00  0.00    +0.024 A 
ATOM     15  C   UNL     1      -4.284   6.725  -2.389  0.00  0.00    +0.038 A 
ATOM     16  C   UNL     1      -5.058   7.874  -2.302  0.00  0.00    -0.029 A 
ATOM     17  C   UNL     1      -5.892   8.224  -3.346  0.00  0.00    +0.008 A 
ATOM     18  C   UNL     1      -4.985   8.742  -1.072  0.00  0.00    +0.045 C 
ENDBRANCH   3  15
ENDBRANCH   1   7
BRANCH   1  19
ATOM     19  N   UNL     1      -0.898   1.599   1.245  0.00  0.00    +0.391 N 
ATOM     20  C   UNL     1       0.139   1.224   2.215  0.00  0.00    -0.094 C 
ATOM     21  H   UNL     1      -0.525   1.354   0.239  0.00  0.00    -0.080 HD
BRANCH  19  22
ATOM     22  C   UNL     1      -2.131   0.832   1.468  0.00  0.00    +0.020 C 
BRANCH  22  23
ATOM     23  C   UNL     1      -1.876  -0.624   1.175  0.00  0.00    +0.201 C 
ATOM     24  O   UNL     1      -0.776  -0.987   0.816  0.00  0.00    -0.278 OA
ATOM     25  N   UNL     1      -2.870  -1.523   1.313  0.00  0.00    -0.286 N 
ATOM     26  H   UNL     1      -3.889  -1.184   1.553  0.00  0.00    +0.155 HD
BRANCH  25  27
ATOM     27  C   UNL     1      -2.607  -2.888   1.151  0.00  0.00    +0.052 A 
ATOM     28  C   UNL     1      -1.324  -3.378   1.352  0.00  0.00    +0.025 A 
ATOM     29  C   UNL     1      -1.068  -4.727   1.197  0.00  0.00    +0.002 A 
ATOM     30  C   UNL     1      -2.087  -5.588   0.830  0.00  0.00    +0.002 A 
ATOM     31  C   UNL     1      -3.365  -5.103   0.623  0.00  0.00    +0.022 A 
ATOM     32  C   UNL     1      -3.628  -3.755   0.782  0.00  0.00    +0.062 A 
ATOM     33 CL   UNL     1      -5.233  -3.147   0.521  0.00  0.00    -0.082 Cl
ENDBRANCH  25  27
ENDBRANCH  22  23
ENDBRANCH  19  22
ENDBRANCH   1  19
TORSDOF 6
