REMARK  Name = ZINC63375124
REMARK  11 active torsions:
REMARK  status: ('A' for Active; 'I' for Inactive)
REMARK    1  A    between atoms: C_1  and  S_2
REMARK    2  A    between atoms: S_2  and  C_3
REMARK    3  A    between atoms: C_3  and  C_4
REMARK    4  A    between atoms: C_4  and  C_5
REMARK    5  A    between atoms: C_5  and  C_7
REMARK    6  A    between atoms: C_5  and  N_33
REMARK    7  A    between atoms: C_12  and  C_15
REMARK    8  A    between atoms: N_17  and  CA_18
REMARK    9  A    between atoms: CA_18  and  CB_20
REMARK   10  A    between atoms: CA_18  and  C_30
REMARK   11  A    between atoms: CB_20  and  CG_21
REMARK                            x       y       z     vdW  Elec       q    Type
REMARK                         _______ _______ _______ _____ _____    ______ ____
ROOT
ATOM      1  C   UNK A   0      -5.247  -5.806  -4.870  0.00  0.00    +0.217 C 
ATOM      2  O   UNK A   0      -5.902  -4.915  -5.368  0.00  0.00    -0.275 OA
ATOM      3  N   TRP A   1      -5.440  -7.082  -5.256  0.00  0.00    -0.302 N 
ATOM      4  H   TRP A   1      -4.916  -7.795  -4.858  0.00  0.00    +0.150 HD
ENDROOT
BRANCH   1  10
ATOM      5  C   UNK A   0      -3.482  -3.878  -0.109  0.00  0.00    +0.201 C 
ATOM      6  O   UNK A   0      -3.682  -4.558   0.875  0.00  0.00    -0.277 OA
ATOM      7  N   UNK A   0      -3.373  -4.460  -1.320  0.00  0.00    -0.303 N 
ATOM      8  C   UNK A   0      -3.126  -3.650  -2.521  0.00  0.00    +0.108 C 
ATOM      9  C   UNK A   0      -4.198  -3.976  -3.565  0.00  0.00    +0.032 C 
ATOM     10  C   UNK A   0      -4.216  -5.486  -3.818  0.00  0.00    +0.078 C 
ATOM     11  C   UNK A   0      -4.567  -6.217  -2.520  0.00  0.00    +0.032 C 
ATOM     12  C   UNK A   0      -3.494  -5.918  -1.463  0.00  0.00    +0.108 C 
BRANCH   5  13
ATOM     13  C   UNK A   0      -3.356  -2.382   0.021  0.00  0.00    +0.014 C 
BRANCH  13  14
ATOM     14  N   UNK A   0      -3.967  -1.948   1.285  0.00  0.00    +0.386 N 
ATOM     15  H   UNK A   0      -3.495  -2.394   2.057  0.00  0.00    -0.089 HD
ATOM     16  H   UNK A   0      -3.883  -0.946   1.372  0.00  0.00    -0.089 HD
ATOM     17  H   UNK A   0      -4.943  -2.205   1.293  0.00  0.00    -0.089 HD
ENDBRANCH  13  14
BRANCH  13  18
ATOM     18  C   UNK A   0      -1.877  -1.992   0.009  0.00  0.00    +0.003 C 
BRANCH  18  19
ATOM     19  C   UNK A   0      -1.752  -0.467   0.016  0.00  0.00    +0.068 C 
BRANCH  19  21
ATOM     20  C   UNK A   0      -0.022   1.810   0.012  0.00  0.00    +0.084 C 
ATOM     21  S   UNK A   0       0.002  -0.004   0.002  0.00  0.00    -0.164 S 
ENDBRANCH  19  21
ENDBRANCH  18  19
ENDBRANCH  13  18
ENDBRANCH   5  13
ENDBRANCH   1  10
BRANCH   3  22
ATOM     22  CA  TRP A   1      -6.442  -7.394  -6.279  0.00  0.00    +0.190 C 
BRANCH  22  23
ATOM     23  C   TRP A   1      -7.795  -7.537  -5.630  0.00  0.00    +0.376 C 
ATOM     24  O   TRP A   1      -8.803  -7.255  -6.254  0.00  0.00    -0.244 OA
ATOM     25  OXT TRP A   1      -7.880  -7.936  -4.481  0.00  0.00    -0.244 OA
ENDBRANCH  22  23
BRANCH  22  26
ATOM     26  CB  TRP A   1      -6.069  -8.704  -6.976  0.00  0.00    +0.067 C 
BRANCH  26  27
ATOM     27  CG  TRP A   1      -4.775  -8.523  -7.727  0.00  0.00    -0.039 C 
ATOM     28  CD2 TRP A   1      -3.532  -8.827  -7.291  0.00  0.00    -0.001 A 
ATOM     29  CE3 TRP A   1      -3.031  -9.396  -6.034  0.00  0.00    +0.010 A 
ATOM     30  CZ3 TRP A   1      -1.701  -9.589  -5.886  0.00  0.00    +0.001 A 
ATOM     31  CH2 TRP A   1      -0.791  -9.261  -6.900  0.00  0.00    +0.002 A 
ATOM     32  CZ2 TRP A   1      -1.175  -8.735  -8.082  0.00  0.00    +0.026 A 
ATOM     33  CE2 TRP A   1      -2.550  -8.490  -8.346  0.00  0.00    +0.043 A 
ATOM     34  NE1 TRP A   1      -3.163  -7.996  -9.395  0.00  0.00    -0.380 N 
ATOM     35  CD1 TRP A   1      -4.605  -7.970  -9.125  0.00  0.00    +0.144 C 
ATOM     36  HE1 TRP A   1      -2.735  -7.700 -10.214  0.00  0.00    +0.160 HD
ENDBRANCH  26  27
ENDBRANCH  22  26
ENDBRANCH   3  22
TORSDOF 10
