REMARK  Name = ZINC19079456
REMARK  16 active torsions:
REMARK  status: ('A' for Active; 'I' for Inactive)
REMARK    1  A    between atoms: C_1  and  C_2
REMARK    2  A    between atoms: C_2  and  C_3
REMARK    3  A    between atoms: C_2  and  C_4
REMARK    4  A    between atoms: C_4  and  C_6
REMARK    5  A    between atoms: C_4  and  N_17
REMARK    6  A    between atoms: N_8  and  C_9
REMARK    7  A    between atoms: C_9  and  C_10
REMARK    8  A    between atoms: C_10  and  N_60
REMARK    9  A    between atoms: C_11  and  C_12
REMARK   10  A    between atoms: C_11  and  C_13
REMARK   11  A    between atoms: C_11  and  N_60
REMARK   12  A    between atoms: C_14  and  C_15
REMARK   13  A    between atoms: C_14  and  C_16
REMARK   14  A    between atoms: C_14  and  N_60
REMARK   15  A    between atoms: N_17  and  S_18
REMARK   16  A    between atoms: S_18  and  C_21
REMARK                            x       y       z     vdW  Elec       q    Type
REMARK                         _______ _______ _______ _____ _____    ______ ____
ROOT
ATOM      1  C   UNL     1       3.906   8.742  -2.943  0.00  0.00    +0.165 C 
ENDROOT
BRANCH   1   2
ATOM      2  C   UNL     1       3.254   7.834  -3.954  0.00  0.00    +0.232 C 
ATOM      3  O   UNL     1       3.892   6.938  -4.465  0.00  0.00    -0.274 OA
ATOM      4  N   UNL     1       1.962   8.018  -4.291  0.00  0.00    -0.316 N 
ATOM      5  H   UNL     1       1.452   8.735  -3.882  0.00  0.00    +0.149 HD
BRANCH   4   6
ATOM      6  C   UNL     1       1.328   7.136  -5.273  0.00  0.00    +0.086 C 
BRANCH   6   7
ATOM      7  C   UNL     1      -0.129   7.558  -5.473  0.00  0.00    -0.059 C 
BRANCH   7   8
ATOM      8  N   UNL     1      -0.700   6.775  -6.588  0.00  0.00    +0.384 N 
ATOM      9  H   UNL     1       0.002   6.695  -7.333  0.00  0.00    -0.081 HD
BRANCH   8  10
ATOM     10  C   UNL     1      -1.061   5.420  -6.122  0.00  0.00    -0.074 C 
ATOM     11  C   UNL     1       0.143   4.498  -6.327  0.00  0.00    -0.014 C 
ATOM     12  C   UNL     1      -1.435   5.449  -4.638  0.00  0.00    -0.014 C 
ENDBRANCH   8  10
BRANCH   8  13
ATOM     13  C   UNL     1      -1.895   7.459  -7.126  0.00  0.00    -0.074 C 
ATOM     14  C   UNL     1      -2.309   6.776  -8.431  0.00  0.00    -0.014 C 
ATOM     15  C   UNL     1      -3.050   7.387  -6.125  0.00  0.00    -0.014 C 
ENDBRANCH   8  13
ENDBRANCH   7   8
ENDBRANCH   6   7
ENDBRANCH   4   6
ENDBRANCH   1   2
BRANCH   1  17
ATOM     16  C   UNL     1       4.445  11.117  -2.386  0.00  0.00    +0.009 C 
ATOM     17  C   UNL     1       3.858  10.185  -3.448  0.00  0.00    +0.010 C 
ATOM     18  C   UNL     1       4.675  10.302  -4.737  0.00  0.00    +0.009 C 
ENDBRANCH   1  17
BRANCH   1  19
ATOM     19  N   UNL     1       5.301   8.337  -2.753  0.00  0.00    -0.178 NA
ATOM     20  H   UNL     1       5.985   8.648  -3.367  0.00  0.00    +0.149 HD
BRANCH  19  21
ATOM     21  S   UNL     1       5.712   7.350  -1.488  0.00  0.00    +0.061 S 
ATOM     22  O   UNL     1       7.112   7.128  -1.584  0.00  0.00    -0.153 OA
ATOM     23  O   UNL     1       4.770   6.286  -1.482  0.00  0.00    -0.153 OA
BRANCH  21  24
ATOM     24  C   UNL     1       5.448   8.265  -0.006  0.00  0.00    +0.133 A 
ATOM     25  C   UNL     1       4.503   7.864   0.878  0.00  0.00    +0.031 A 
ATOM     26  C   UNL     1       4.267   8.564   2.062  0.00  0.00    +0.004 A 
ATOM     27  C   UNL     1       4.972   9.676   2.380  0.00  0.00    +0.031 A 
ATOM     28  C   UNL     1       5.978  10.155   1.500  0.00  0.00    +0.102 A 
ATOM     29  C   UNL     1       6.224   9.422   0.262  0.00  0.00    +0.126 A 
ATOM     30  N   UNL     1       7.190   9.980  -0.465  0.00  0.00    -0.189 NA
ATOM     31  S   UNL     1       7.676  11.233   0.340  0.00  0.00    +0.117 S 
ATOM     32  N   UNL     1       6.771  11.217   1.619  0.00  0.00    -0.191 NA
ENDBRANCH  21  24
ENDBRANCH  19  21
ENDBRANCH   1  19
TORSDOF 10
