REMARK  Name = ZINC04821010
REMARK  8 active torsions:
REMARK  status: ('A' for Active; 'I' for Inactive)
REMARK    1  A    between atoms: C_1  and  C_2
REMARK    2  A    between atoms: C_3  and  C_20
REMARK    3  A    between atoms: C_4  and  C_10
REMARK    4  A    between atoms: C_13  and  O_18
REMARK    5  A    between atoms: C_14  and  O_17
REMARK    6  A    between atoms: O_18  and  C_19
REMARK    7  A    between atoms: C_20  and  O_22
REMARK    8  A    between atoms: O_22  and  C_23
REMARK                            x       y       z     vdW  Elec       q    Type
REMARK                         _______ _______ _______ _____ _____    ______ ____
ROOT
ATOM      1  C   UNL     1       2.379   0.754   0.015  0.00  0.00    +0.061 C 
ATOM      2  C   UNL     1       1.122   1.585   0.011  0.00  0.00    +0.021 C 
ATOM      3  C   UNL     1       1.216   2.933   0.018  0.00  0.00    +0.078 C 
ATOM      4  C   UNL     1      -0.072   3.730   0.014  0.00  0.00    +0.145 C 
ATOM      5  N   UNL     1      -1.330   2.964   0.002  0.00  0.00    -0.288 N 
ATOM      6  C   UNL     1      -1.262   1.618  -0.009  0.00  0.00    +0.304 C 
ATOM      7  O   UNL     1      -2.295   0.978  -0.023  0.00  0.00    -0.252 OA
ATOM      8  N   UNL     1      -0.094   0.964   0.001  0.00  0.00    -0.273 N 
ATOM      9  H   UNL     1      -2.188   3.418  -0.001  0.00  0.00    +0.151 HD
ATOM     10  H   UNL     1      -0.113  -0.006  -0.004  0.00  0.00    +0.156 HD
ENDROOT
BRANCH   4  11
ATOM     11  C   UNL     1      -0.061   4.624  -1.199  0.00  0.00    -0.005 A 
ATOM     12  C   UNL     1       0.787   4.345  -2.254  0.00  0.00    +0.011 A 
ATOM     13  C   UNL     1       0.801   5.162  -3.369  0.00  0.00    +0.050 A 
ATOM     14  C   UNL     1      -0.037   6.264  -3.431  0.00  0.00    +0.162 A 
ATOM     15  C   UNL     1      -0.892   6.545  -2.370  0.00  0.00    +0.173 A 
ATOM     16  C   UNL     1      -0.904   5.719  -1.257  0.00  0.00    +0.068 A 
ATOM     17 BR   UNL     1      -2.069   6.093   0.185  0.00  0.00    -0.046 Br
BRANCH  15  18
ATOM     18  O   UNL     1      -1.716   7.626  -2.426  0.00  0.00    -0.503 OA
ATOM     19  H   UNL     1      -2.582   7.440  -2.816  0.00  0.00    +0.292 HD
ENDBRANCH  15  18
BRANCH  14  20
ATOM     20  O   UNL     1      -0.025   7.068  -4.528  0.00  0.00    -0.491 OA
ATOM     21  C   UNL     1       0.877   6.718  -5.579  0.00  0.00    +0.277 C 
ENDBRANCH  14  20
ENDBRANCH   4  11
BRANCH   3  22
ATOM     22  C   UNL     1       2.475   3.577   0.030  0.00  0.00    +0.338 C 
ATOM     23  O   UNL     1       3.495   2.920   0.121  0.00  0.00    -0.245 OA
BRANCH  22  24
ATOM     24  O   UNL     1       2.545   4.922  -0.060  0.00  0.00    -0.465 OA
ATOM     25  C   UNL     1       3.849   5.499  -0.155  0.00  0.00    +0.280 C 
ENDBRANCH  22  24
ENDBRANCH   3  22
TORSDOF 5
