REMARK  Name = ZINC65967635
REMARK  4 active torsions:
REMARK  status: ('A' for Active; 'I' for Inactive)
REMARK    1  A    between atoms: C_1  and  C_2
REMARK    2  A    between atoms: C_2  and  C_3
REMARK    3  A    between atoms: C_2  and  N_14
REMARK    4  A    between atoms: C_9  and  C_11
REMARK                            x       y       z     vdW  Elec       q    Type
REMARK                         _______ _______ _______ _____ _____    ______ ____
ROOT
ATOM      1  C   UNL     1       0.012   1.515   0.041  0.00  0.00    -0.004 C 
ATOM      2  C   UNL     1       0.011  -0.014  -0.002  0.00  0.00    +0.017 C 
ENDROOT
BRANCH   2   3
ATOM      3  N   UNL     1       0.813  -0.536   1.113  0.00  0.00    +0.389 N 
ATOM      4  C   UNL     1       2.060   0.169   1.130  0.00  0.00    -0.074 C 
ATOM      5  C   UNL     1       3.187  -0.529   1.828  0.00  0.00    -0.027 C 
ATOM      6  C   UNL     1       2.802  -1.208   3.124  0.00  0.00    +0.005 C 
ATOM      7  C   UNL     1       2.271  -2.619   2.947  0.00  0.00    -0.012 C 
ATOM      8  C   UNL     1       3.199  -3.446   2.054  0.00  0.00    +0.007 C 
ATOM      9  C   UNL     1       3.316  -2.735   0.705  0.00  0.00    -0.012 C 
ATOM     10  C   UNL     1       4.032  -1.399   0.926  0.00  0.00    +0.005 C 
ATOM     11  C   UNL     1       1.958  -2.506   0.075  0.00  0.00    -0.012 C 
ATOM     12  C   UNL     1       0.887  -1.967   0.977  0.00  0.00    -0.067 C 
ATOM     13  C   UNL     1       0.869  -2.638   2.347  0.00  0.00    -0.012 C 
ATOM     14  H   UNL     1       0.325  -0.329   1.971  0.00  0.00    -0.080 HD
ENDBRANCH   2   3
BRANCH   2  15
ATOM     15  C   UNL     1      -1.404  -0.519   0.118  0.00  0.00    +0.202 C 
ATOM     16  O   UNL     1      -1.853  -0.813   1.206  0.00  0.00    -0.277 OA
ATOM     17  N   UNL     1      -2.171  -0.643  -0.983  0.00  0.00    -0.302 N 
ATOM     18  C   UNL     1      -1.683  -0.184  -2.291  0.00  0.00    +0.108 C 
ATOM     19  C   UNL     1      -2.716   0.773  -2.894  0.00  0.00    +0.020 C 
ATOM     20  C   UNL     1      -4.081   0.082  -2.940  0.00  0.00    +0.016 C 
ATOM     21  C   UNL     1      -4.523  -0.273  -1.518  0.00  0.00    +0.092 C 
ATOM     22  C   UNL     1      -3.508  -1.247  -0.900  0.00  0.00    +0.120 C 
BRANCH  21  23
ATOM     23  C   UNL     1      -5.881  -0.925  -1.562  0.00  0.00    +0.215 C 
ATOM     24  O   UNL     1      -6.027  -2.051  -1.137  0.00  0.00    -0.276 OA
ATOM     25  N   UNL     1      -6.933  -0.255  -2.072  0.00  0.00    -0.329 N 
ATOM     26  H   UNL     1      -6.817   0.646  -2.411  0.00  0.00    +0.145 HD
ATOM     27  H   UNL     1      -7.808  -0.675  -2.100  0.00  0.00    +0.145 HD
ENDBRANCH  21  23
ENDBRANCH   2  15
TORSDOF 3
