REMARK  Name = ZINC12872682
REMARK  8 active torsions:
REMARK  status: ('A' for Active; 'I' for Inactive)
REMARK    1  A    between atoms: C_1  and  C_2
REMARK    2  A    between atoms: C_16  and  C_18
REMARK    3  A    between atoms: C_18  and  C_20
REMARK    4  A    between atoms: C_18  and  O_21
REMARK    5  A    between atoms: N_24  and  C_27
REMARK    6  A    between atoms: C_27  and  C_28
REMARK    7  A    between atoms: C_33  and  O_34
REMARK    8  A    between atoms: O_34  and  C_35
REMARK                            x       y       z     vdW  Elec       q    Type
REMARK                         _______ _______ _______ _____ _____    ______ ____
ROOT
ATOM      1  C   UNL     1       0.213   5.249   0.136  0.00  0.00    +0.045 C 
ATOM      2  C   UNL     1       0.145   3.746   0.063  0.00  0.00    -0.029 A 
ATOM      3  C   UNL     1       1.306   3.010  -0.062  0.00  0.00    +0.005 A 
ATOM      4  C   UNL     1       1.254   1.630  -0.131  0.00  0.00    +0.001 A 
ATOM      5  C   UNL     1       0.032   0.983  -0.073  0.00  0.00    +0.004 A 
ATOM      6  C   UNL     1      -1.129   1.714   0.047  0.00  0.00    -0.027 A 
ATOM      7  C   UNL     1      -1.089   3.103   0.122  0.00  0.00    +0.039 A 
ATOM      8  N   UNL     1      -2.381   3.617   0.246  0.00  0.00    -0.286 N 
ATOM      9  C   UNL     1      -3.316   2.647   0.250  0.00  0.00    +0.211 C 
ATOM     10  O   UNL     1      -4.516   2.798   0.342  0.00  0.00    -0.277 OA
ATOM     11  C   UNL     1      -2.582   1.340   0.130  0.00  0.00    +0.050 C 
ATOM     12  C   UNL     1      -3.033   0.553  -1.106  0.00  0.00    +0.088 C 
ATOM     13  C   UNL     1      -2.977  -0.936  -0.663  0.00  0.00    +0.075 C 
ATOM     14  C   UNL     1      -2.489  -0.896   0.801  0.00  0.00    -0.028 C 
ATOM     15  C   UNL     1      -4.426  -1.364  -0.695  0.00  0.00    +0.224 C 
ATOM     16  O   UNL     1      -4.837  -2.469  -0.409  0.00  0.00    -0.275 OA
ATOM     17  N   UNL     1      -5.185  -0.335  -1.089  0.00  0.00    -0.237 N 
ATOM     18  C   UNL     1      -4.507   0.788  -1.348  0.00  0.00    +0.225 C 
ATOM     19  O   UNL     1      -4.998   1.833  -1.719  0.00  0.00    -0.275 OA
ATOM     20  H   UNL     1      -2.583   4.564   0.310  0.00  0.00    +0.155 HD
ATOM     21  N   UNL     1      -2.835   0.454   1.253  0.00  0.00    +0.396 N 
ATOM     22  H   UNL     1      -3.826   0.495   1.521  0.00  0.00    -0.083 HD
ATOM     23  H   UNL     1      -2.252   0.720   2.054  0.00  0.00    -0.083 HD
ENDROOT
BRANCH  14  24
ATOM     24  C   UNL     1      -3.204  -1.964   1.631  0.00  0.00    +0.098 C 
ATOM     25  C   UNL     1      -2.717  -3.350   1.207  0.00  0.00    +0.036 C 
BRANCH  24  26
ATOM     26  O   UNL     1      -2.915  -1.761   3.016  0.00  0.00    -0.394 OA
ATOM     27  H   UNL     1      -1.974  -1.813   3.234  0.00  0.00    +0.210 HD
ENDBRANCH  24  26
ENDBRANCH  14  24
BRANCH  17  28
ATOM     28  C   UNL     1      -6.641  -0.431  -1.224  0.00  0.00    +0.155 C 
BRANCH  28  29
ATOM     29  C   UNL     1      -6.988  -0.868  -2.624  0.00  0.00    +0.012 A 
ATOM     30  C   UNL     1      -7.391   0.065  -3.559  0.00  0.00    +0.009 A 
ATOM     31  C   UNL     1      -7.709  -0.335  -4.844  0.00  0.00    +0.001 A 
ATOM     32  C   UNL     1      -7.624  -1.670  -5.196  0.00  0.00    +0.004 A 
ATOM     33  C   UNL     1      -7.221  -2.606  -4.264  0.00  0.00    +0.046 A 
ATOM     34  C   UNL     1      -6.897  -2.207  -2.976  0.00  0.00    +0.125 A 
BRANCH  34  35
ATOM     35  O   UNL     1      -6.495  -3.126  -2.059  0.00  0.00    -0.495 OA
ATOM     36  C   UNL     1      -6.424  -4.486  -2.491  0.00  0.00    +0.277 C 
ENDBRANCH  34  35
ENDBRANCH  28  29
ENDBRANCH  17  28
TORSDOF 5
