REMARK  Name = ZINC21939033
REMARK  13 active torsions:
REMARK  status: ('A' for Active; 'I' for Inactive)
REMARK    1  A    between atoms: C_1  and  C_2
REMARK    2  A    between atoms: C_2  and  C_3
REMARK    3  A    between atoms: C_2  and  C_4
REMARK    4  A    between atoms: C_4  and  C_6
REMARK    5  A    between atoms: C_4  and  N_21
REMARK    6  A    between atoms: N_8  and  C_9
REMARK    7  A    between atoms: C_9  and  C_10
REMARK    8  A    between atoms: C_10  and  C_11
REMARK    9  A    between atoms: C_11  and  N_12
REMARK   10  A    between atoms: N_12  and  C_13
REMARK   11  A    between atoms: N_12  and  C_14
REMARK   12  A    between atoms: C_14  and  C_15
REMARK   13  A    between atoms: C_22  and  C_24
REMARK                            x       y       z     vdW  Elec       q    Type
REMARK                         _______ _______ _______ _____ _____    ______ ____
ROOT
ATOM      1  C   UNL     1      -2.108   7.258  -0.936  0.00  0.00    +0.161 C 
ENDROOT
BRANCH   1   2
ATOM      2  C   UNL     1      -2.178   7.893  -2.301  0.00  0.00    +0.234 C 
ATOM      3  O   UNL     1      -2.384   7.206  -3.280  0.00  0.00    -0.274 OA
ATOM      4  N   UNL     1      -2.013   9.224  -2.434  0.00  0.00    -0.314 N 
ATOM      5  H   UNL     1      -1.910   9.857  -1.541  0.00  0.00    +0.149 HD
BRANCH   4   6
ATOM      6  C   UNL     1      -1.970   9.826  -3.769  0.00  0.00    +0.102 C 
BRANCH   6   7
ATOM      7  C   UNL     1      -1.776  11.338  -3.639  0.00  0.00    +0.000 C 
BRANCH   7   8
ATOM      8  C   UNL     1      -1.731  11.968  -5.033  0.00  0.00    -0.077 C 
BRANCH   8   9
ATOM      9  N   UNL     1      -1.544  13.420  -4.909  0.00  0.00    +0.381 N 
ATOM     10  C   UNL     1      -0.226  13.734  -4.341  0.00  0.00    -0.096 C 
ATOM     11  H   UNL     1      -2.309  13.802  -4.217  0.00  0.00    -0.082 HD
BRANCH   9  12
ATOM     12  C   UNL     1      -1.732  14.088  -6.204  0.00  0.00    -0.043 C 
BRANCH  12  13
ATOM     13  C   UNL     1      -1.777  15.580  -5.997  0.00  0.00    -0.064 A 
ATOM     14  C   UNL     1      -2.986  16.209  -5.765  0.00  0.00    +0.002 A 
ATOM     15  C   UNL     1      -3.026  17.577  -5.571  0.00  0.00    +0.000 A 
ATOM     16  C   UNL     1      -1.860  18.317  -5.620  0.00  0.00    +0.000 A 
ATOM     17  C   UNL     1      -0.652  17.689  -5.858  0.00  0.00    +0.000 A 
ATOM     18  C   UNL     1      -0.611  16.320  -6.047  0.00  0.00    +0.002 A 
ENDBRANCH  12  13
ENDBRANCH   9  12
ENDBRANCH   8   9
ENDBRANCH   7   8
ENDBRANCH   6   7
ENDBRANCH   4   6
ENDBRANCH   1   2
BRANCH   1  19
ATOM     19  N   UNL     1      -1.918   5.812  -1.080  0.00  0.00    -0.303 N 
ATOM     20  C   UNL     1      -1.338   5.107  -0.088  0.00  0.00    +0.220 C 
ATOM     21  O   UNL     1      -0.973   5.669   0.922  0.00  0.00    -0.275 OA
ATOM     22  H   UNL     1      -2.249   5.302  -1.996  0.00  0.00    +0.149 HD
BRANCH  20  23
ATOM     23  C   UNL     1      -1.143   3.620  -0.236  0.00  0.00    +0.048 C 
ATOM     24  C   UNL     1      -0.260   3.340  -1.454  0.00  0.00    +0.019 C 
ATOM     25  C   UNL     1      -0.062   1.830  -1.604  0.00  0.00    -0.009 C 
ATOM     26  C   UNL     1       0.614   1.277  -0.347  0.00  0.00    +0.007 C 
ATOM     27  C   UNL     1      -0.269   1.558   0.871  0.00  0.00    -0.009 C 
ATOM     28  C   UNL     1      -0.467   3.067   1.021  0.00  0.00    +0.019 C 
ATOM     29  C   UNL     1      -1.628   0.881   0.683  0.00  0.00    +0.007 C 
ATOM     30  C   UNL     1      -2.303   1.433  -0.574  0.00  0.00    -0.009 C 
ATOM     31  C   UNL     1      -1.421   1.153  -1.792  0.00  0.00    +0.007 C 
ATOM     32  C   UNL     1      -2.502   2.943  -0.424  0.00  0.00    +0.019 C 
ENDBRANCH  20  23
ENDBRANCH   1  19
BRANCH   1  34
ATOM     33  C   UNL     1      -4.570   6.835  -0.898  0.00  0.00    +0.009 C 
ATOM     34  C   UNL     1      -3.410   7.528  -0.180  0.00  0.00    +0.012 C 
ATOM     35  C   UNL     1      -3.295   6.985   1.245  0.00  0.00    +0.009 C 
ENDBRANCH   1  34
TORSDOF 10
