REMARK  Name = ZINC46285566
REMARK  11 active torsions:
REMARK  status: ('A' for Active; 'I' for Inactive)
REMARK    1  A    between atoms: C_1  and  C_2
REMARK    2  A    between atoms: C_6  and  O_9
REMARK    3  A    between atoms: C_7  and  C_8
REMARK    4  A    between atoms: O_9  and  C_10
REMARK    5  A    between atoms: C_10  and  C_12
REMARK    6  A    between atoms: C_10  and  C_13
REMARK    7  A    between atoms: N_15  and  N_16
REMARK    8  A    between atoms: N_19  and  C_20
REMARK    9  A    between atoms: C_20  and  C_21
REMARK   10  A    between atoms: N_27  and  C_28
REMARK   11  A    between atoms: N_27  and  C_29
REMARK                            x       y       z     vdW  Elec       q    Type
REMARK                         _______ _______ _______ _____ _____    ______ ____
ROOT
ATOM      1  N   UNL     1       1.239  -6.668   4.679  0.00  0.00    -0.218 N 
ATOM      2  C   UNL     1       1.370  -8.005   4.789  0.00  0.00    +0.316 C 
ATOM      3  O   UNL     1       1.879  -8.485   5.784  0.00  0.00    -0.251 OA
ATOM      4  N   UNL     1       0.937  -8.809   3.798  0.00  0.00    -0.294 N 
ATOM      5  H   UNL     1       1.550  -6.089   5.392  0.00  0.00    +0.174 HD
ATOM      6  H   UNL     1       0.531  -8.425   3.005  0.00  0.00    +0.151 HD
ENDROOT
BRANCH   1   9
ATOM      7  C   UNL     1       0.520  -4.777   3.422  0.00  0.00    +0.270 C 
ATOM      8  O   UNL     1       0.910  -4.054   4.314  0.00  0.00    -0.270 OA
ATOM      9  N   UNL     1       0.652  -6.114   3.533  0.00  0.00    -0.230 N 
ATOM     10  H   UNL     1       0.340  -6.693   2.820  0.00  0.00    +0.173 HD
BRANCH   7  11
ATOM     11  C   UNL     1      -0.111  -4.182   2.190  0.00  0.00    +0.257 C 
ATOM     12  C   UNL     1      -1.578  -4.608   2.112  0.00  0.00    +0.062 C 
BRANCH  11  13
ATOM     13  O   UNL     1      -0.032  -2.757   2.256  0.00  0.00    -0.480 OA
BRANCH  13  19
ATOM     14  C   UNL     1       0.282   1.470  -0.165  0.00  0.00    +0.044 C 
ATOM     15  C   UNL     1       0.078  -0.024  -0.143  0.00  0.00    -0.044 A 
ATOM     16  C   UNL     1      -0.149  -0.708  -1.323  0.00  0.00    +0.004 A 
ATOM     17  C   UNL     1      -0.337  -2.077  -1.305  0.00  0.00    +0.004 A 
ATOM     18  C   UNL     1      -0.298  -2.766  -0.108  0.00  0.00    +0.046 A 
ATOM     19  C   UNL     1      -0.070  -2.082   1.077  0.00  0.00    +0.125 A 
ATOM     20  C   UNL     1       0.124  -0.708   1.056  0.00  0.00    -0.006 A 
ATOM     21  C   UNL     1       0.378   0.037   2.341  0.00  0.00    +0.048 C 
ENDBRANCH  13  19
ENDBRANCH  11  13
ENDBRANCH   7  11
ENDBRANCH   1   9
BRANCH   4  22
ATOM     22  C   UNL     1       1.080 -10.262   3.919  0.00  0.00    +0.141 C 
BRANCH  22  23
ATOM     23  C   UNL     1       0.522 -10.925   2.686  0.00  0.00    -0.026 A 
ATOM     24  C   UNL     1      -0.815 -11.295   2.623  0.00  0.00    +0.023 A 
ATOM     25  C   UNL     1      -1.296 -11.901   1.479  0.00  0.00    +0.084 A 
ATOM     26  N   UNL     1      -0.502 -12.131   0.451  0.00  0.00    -0.350 N 
ATOM     27  C   UNL     1       0.778 -11.794   0.472  0.00  0.00    +0.098 A 
ATOM     28  C   UNL     1       1.328 -11.175   1.591  0.00  0.00    +0.047 A 
ATOM     29  N   UNL     1       1.579 -12.055  -0.633  0.00  0.00    -0.323 N 
ATOM     30  C   UNL     1       0.980 -12.581  -1.863  0.00  0.00    +0.130 C 
ATOM     31  C   UNL     1       3.021 -11.805  -0.570  0.00  0.00    +0.130 C 
ATOM     32  H   UNL     1      -0.865 -12.558  -0.341  0.00  0.00    +0.166 HD
ENDBRANCH  22  23
ENDBRANCH   4  22
TORSDOF 6
