REMARK  Name = ZINC20418599
REMARK  14 active torsions:
REMARK  status: ('A' for Active; 'I' for Inactive)
REMARK    1  A    between atoms: C_1  and  C_2
REMARK    2  A    between atoms: C_2  and  C_4
REMARK    3  A    between atoms: C_2  and  N_16
REMARK    4  A    between atoms: C_4  and  N_5
REMARK    5  A    between atoms: N_5  and  C_6
REMARK    6  A    between atoms: C_6  and  C_7
REMARK    7  A    between atoms: C_10  and  O_15
REMARK    8  A    between atoms: C_11  and  O_13
REMARK    9  A    between atoms: O_13  and  C_14
REMARK   10  A    between atoms: N_16  and  C_17
REMARK   11  A    between atoms: C_17  and  C_18
REMARK   12  A    between atoms: C_21  and  O_26
REMARK   13  A    between atoms: C_22  and  O_24
REMARK   14  A    between atoms: O_24  and  C_25
REMARK                            x       y       z     vdW  Elec       q    Type
REMARK                         _______ _______ _______ _____ _____    ______ ____
ROOT
ATOM      1  C   UNL     1      -5.983   5.905  -2.833  0.00  0.00    -0.012 C 
ATOM      2  C   UNL     1      -4.711   5.056  -2.807  0.00  0.00    -0.061 C 
ENDROOT
BRANCH   2   3
ATOM      3  N   UNL     1      -3.639   5.759  -3.524  0.00  0.00    +0.384 N 
ATOM      4  H   UNL     1      -3.735   6.842  -3.358  0.00  0.00    -0.085 HD
ATOM      5  H   UNL     1      -2.662   5.416  -3.150  0.00  0.00    -0.085 HD
BRANCH   3   6
ATOM      6  C   UNL     1      -3.709   5.495  -4.967  0.00  0.00    -0.046 C 
BRANCH   6   7
ATOM      7  C   UNL     1      -2.596   6.230  -5.668  0.00  0.00    -0.061 A 
ATOM      8  C   UNL     1      -2.804   7.516  -6.132  0.00  0.00    +0.005 A 
ATOM      9  C   UNL     1      -1.785   8.197  -6.771  0.00  0.00    +0.049 A 
ATOM     10  C   UNL     1      -0.554   7.587  -6.956  0.00  0.00    +0.158 A 
ATOM     11  C   UNL     1      -0.347   6.291  -6.494  0.00  0.00    +0.161 A 
ATOM     12  C   UNL     1      -1.371   5.616  -5.850  0.00  0.00    +0.051 A 
BRANCH  11  13
ATOM     13  O   UNL     1       0.859   5.689  -6.673  0.00  0.00    -0.491 OA
ATOM     14  C   UNL     1       1.000   4.358  -6.172  0.00  0.00    +0.277 C 
ENDBRANCH  11  13
BRANCH  10  15
ATOM     15  O   UNL     1       0.448   8.253  -7.589  0.00  0.00    -0.503 OA
ATOM     16  H   UNL     1       1.424   7.768  -7.736  0.00  0.00    +0.292 HD
ENDBRANCH  10  15
ENDBRANCH   6   7
ENDBRANCH   3   6
ENDBRANCH   2   3
BRANCH   2  17
ATOM     17  C   UNL     1      -4.285   4.820  -1.356  0.00  0.00    +0.065 C 
BRANCH  17  18
ATOM     18  N   UNL     1      -3.000   4.108  -1.333  0.00  0.00    -0.314 NA
ATOM     19  H   UNL     1      -3.108   3.141  -1.845  0.00  0.00    +0.122 HD
BRANCH  18  20
ATOM     20  C   UNL     1      -2.559   3.864   0.047  0.00  0.00    +0.116 C 
BRANCH  20  21
ATOM     21  C   UNL     1      -1.241   3.133   0.031  0.00  0.00    -0.030 A 
ATOM     22  C   UNL     1      -1.219   1.751   0.017  0.00  0.00    +0.009 A 
ATOM     23  C   UNL     1      -0.013   1.076   0.008  0.00  0.00    +0.049 A 
ATOM     24  C   UNL     1       1.178   1.785   0.000  0.00  0.00    +0.158 A 
ATOM     25  C   UNL     1       1.155   3.176   0.008  0.00  0.00    +0.162 A 
ATOM     26  C   UNL     1      -0.057   3.846   0.023  0.00  0.00    +0.054 A 
BRANCH  25  27
ATOM     27  O   UNL     1       2.321   3.877   0.001  0.00  0.00    -0.491 OA
ATOM     28  C   UNL     1       2.222   5.302   0.010  0.00  0.00    +0.277 C 
ENDBRANCH  25  27
BRANCH  24  29
ATOM     29  O   UNL     1       2.365   1.123  -0.015  0.00  0.00    -0.503 OA
ATOM     30  H   UNL     1       3.310   1.687  -0.021  0.00  0.00    +0.292 HD
ENDBRANCH  24  29
ENDBRANCH  20  21
ENDBRANCH  18  20
ENDBRANCH  17  18
ENDBRANCH   2  17
TORSDOF 11
