REMARK  Name = ZINC35427112
REMARK  7 active torsions:
REMARK  status: ('A' for Active; 'I' for Inactive)
REMARK    1  A    between atoms: C_1  and  N_2
REMARK    2  A    between atoms: C_16  and  C_31
REMARK    3  A    between atoms: N_22  and  C_23
REMARK    4  A    between atoms: C_28  and  O_29
REMARK    5  A    between atoms: O_29  and  C_30
REMARK    6  A    between atoms: C_34  and  O_37
REMARK    7  A    between atoms: O_37  and  C_38
REMARK                            x       y       z     vdW  Elec       q    Type
REMARK                         _______ _______ _______ _____ _____    ______ ____
ROOT
ATOM      1  C   UNL     1      -0.381   1.624   0.275  0.00  0.00    -0.096 C 
ATOM      2  N   UNL     1      -0.292   0.158   0.237  0.00  0.00    +0.381 N 
ATOM      3  C   UNL     1      -1.644  -0.414   0.198  0.00  0.00    -0.074 C 
ATOM      4  C   UNL     1      -1.581  -1.902  -0.160  0.00  0.00    +0.018 C 
ATOM      5  C   UNL     1      -0.607  -2.576   0.803  0.00  0.00    -0.034 A 
ATOM      6  C   UNL     1      -0.567  -3.969   1.004  0.00  0.00    +0.004 A 
ATOM      7  C   UNL     1       0.343  -4.430   1.905  0.00  0.00    +0.090 A 
ATOM      8  S   UNL     1       1.178  -2.982   2.475  0.00  0.00    -0.077 S 
ATOM      9  C   UNL     1       0.271  -1.808   1.504  0.00  0.00    -0.021 A 
ATOM     10  C   UNL     1       0.410  -0.323   1.442  0.00  0.00    -0.036 C 
ATOM     11  N   UNL     1       0.490  -5.769   2.246  0.00  0.00    -0.312 N 
ATOM     12  C   UNL     1       1.592  -6.542   2.384  0.00  0.00    +0.092 A 
ATOM     13  C   UNL     1       1.187  -7.802   2.662  0.00  0.00    +0.020 A 
ATOM     14  C   UNL     1      -0.224  -7.794   2.714  0.00  0.00    +0.025 A 
ATOM     15  C   UNL     1      -0.627  -6.536   2.481  0.00  0.00    +0.049 A 
ATOM     16  C   UNL     1      -2.012  -5.962   2.498  0.00  0.00    +0.155 C 
ATOM     17  N   UNL     1      -2.463  -5.572   1.140  0.00  0.00    -0.268 N 
ATOM     18  C   UNL     1      -1.463  -4.937   0.264  0.00  0.00    +0.148 C 
ATOM     19  C   UNL     1      -3.728  -5.787   0.728  0.00  0.00    +0.308 C 
ATOM     20  O   UNL     1      -4.530  -6.312   1.475  0.00  0.00    -0.252 OA
ATOM     21  N   UNL     1      -4.104  -5.419  -0.513  0.00  0.00    -0.266 N 
ATOM     22  H   UNL     1      -3.446  -5.077  -1.138  0.00  0.00    +0.156 HD
ATOM     23  H   UNL     1       0.218  -0.127  -0.586  0.00  0.00    -0.082 HD
ENDROOT
BRANCH  21  24
ATOM     24  C   UNL     1      -5.447  -5.530  -0.901  0.00  0.00    +0.077 A 
ATOM     25  C   UNL     1      -6.458  -5.320   0.025  0.00  0.00    +0.027 A 
ATOM     26  C   UNL     1      -7.780  -5.431  -0.359  0.00  0.00    +0.002 A 
ATOM     27  C   UNL     1      -8.100  -5.750  -1.666  0.00  0.00    +0.004 A 
ATOM     28  C   UNL     1      -7.098  -5.961  -2.595  0.00  0.00    +0.047 A 
ATOM     29  C   UNL     1      -5.769  -5.846  -2.218  0.00  0.00    +0.141 A 
BRANCH  29  30
ATOM     30  O   UNL     1      -4.782  -6.048  -3.132  0.00  0.00    -0.493 OA
ATOM     31  C   UNL     1      -5.188  -6.368  -4.464  0.00  0.00    +0.277 C 
ENDBRANCH  29  30
ENDBRANCH  21  24
BRANCH  16  32
ATOM     32  C   UNL     1      -2.028  -4.745   3.387  0.00  0.00    -0.021 A 
ATOM     33  C   UNL     1      -2.906  -3.710   3.126  0.00  0.00    +0.009 A 
ATOM     34  C   UNL     1      -2.923  -2.594   3.939  0.00  0.00    +0.046 A 
ATOM     35  C   UNL     1      -2.057  -2.512   5.020  0.00  0.00    +0.120 A 
ATOM     36  C   UNL     1      -1.176  -3.552   5.280  0.00  0.00    +0.046 A 
ATOM     37  C   UNL     1      -1.167  -4.669   4.467  0.00  0.00    +0.009 A 
BRANCH  35  38
ATOM     38  O   UNL     1      -2.070  -1.415   5.821  0.00  0.00    -0.495 OA
ATOM     39  C   UNL     1      -1.151  -1.399   6.915  0.00  0.00    +0.277 C 
ENDBRANCH  35  38
ENDBRANCH  16  32
TORSDOF 4
