REMARK  Name = ZINC09872652
REMARK  13 active torsions:
REMARK  status: ('A' for Active; 'I' for Inactive)
REMARK    1  A    between atoms: C_1  and  C_2
REMARK    2  A    between atoms: C_2  and  C_3
REMARK    3  A    between atoms: C_3  and  C_5
REMARK    4  A    between atoms: C_3  and  C_6
REMARK    5  A    between atoms: C_11  and  O_12
REMARK    6  A    between atoms: O_12  and  C_13
REMARK    7  A    between atoms: C_13  and  C_15
REMARK    8  A    between atoms: C_13  and  C_16
REMARK    9  A    between atoms: N_18  and  N_19
REMARK   10  A    between atoms: C_20  and  C_22
REMARK   11  A    between atoms: C_25  and  N_28
REMARK   12  A    between atoms: C_29  and  C_31
REMARK   13  A    between atoms: C_36  and  C_37
REMARK                            x       y       z     vdW  Elec       q    Type
REMARK                         _______ _______ _______ _____ _____    ______ ____
ROOT
ATOM      1  N   UNL     1       4.207   3.025   0.611  0.00  0.00    -0.230 N 
ATOM      2  C   UNL     1       2.987   2.456   0.676  0.00  0.00    +0.260 C 
ATOM      3  O   UNL     1       2.059   3.061   1.177  0.00  0.00    -0.269 OA
ATOM      4  H   UNL     1       4.947   2.542   0.212  0.00  0.00    +0.173 HD
ENDROOT
BRANCH   2   5
ATOM      5  C   UNL     1       2.777   1.097   0.140  0.00  0.00    +0.038 A 
ATOM      6  C   UNL     1       1.513   0.505   0.207  0.00  0.00    +0.015 A 
ATOM      7  C   UNL     1       1.321  -0.763  -0.294  0.00  0.00    +0.024 A 
ATOM      8  C   UNL     1       2.383  -1.455  -0.867  0.00  0.00    +0.034 A 
ATOM      9  C   UNL     1       3.643  -0.868  -0.935  0.00  0.00    +0.024 A 
ATOM     10  C   UNL     1       3.842   0.399  -0.435  0.00  0.00    +0.015 A 
BRANCH   8  11
ATOM     11  N   UNL     1       2.185  -2.738  -1.374  0.00  0.00    -0.281 N 
ATOM     12  C   UNL     1       2.886  -3.154  -2.447  0.00  0.00    +0.249 C 
ATOM     13  O   UNL     1       3.614  -2.379  -3.035  0.00  0.00    -0.270 OA
ATOM     14  H   UNL     1       1.543  -3.331  -0.954  0.00  0.00    +0.155 HD
BRANCH  12  15
ATOM     15  C   UNL     1       2.770  -4.554  -2.908  0.00  0.00    +0.040 A 
ATOM     16  C   UNL     1       2.038  -5.479  -2.162  0.00  0.00    +0.013 A 
ATOM     17  C   UNL     1       1.930  -6.782  -2.600  0.00  0.00    +0.001 A 
ATOM     18  C   UNL     1       2.554  -7.176  -3.771  0.00  0.00    +0.000 A 
ATOM     19  C   UNL     1       3.286  -6.266  -4.512  0.00  0.00    +0.004 A 
ATOM     20  C   UNL     1       3.398  -4.957  -4.087  0.00  0.00    -0.038 A 
ATOM     21  C   UNL     1       4.196  -3.967  -4.896  0.00  0.00    +0.044 C 
ENDBRANCH  12  15
ENDBRANCH   8  11
ENDBRANCH   2   5
BRANCH   1  24
ATOM     22  C   UNL     1       5.625   4.885   1.055  0.00  0.00    +0.270 C 
ATOM     23  O   UNL     1       6.551   4.280   0.555  0.00  0.00    -0.270 OA
ATOM     24  N   UNL     1       4.406   4.315   1.120  0.00  0.00    -0.231 N 
ATOM     25  H   UNL     1       3.666   4.798   1.519  0.00  0.00    +0.173 HD
BRANCH  22  26
ATOM     26  C   UNL     1       5.840   6.272   1.602  0.00  0.00    +0.257 C 
ATOM     27  C   UNL     1       5.026   7.275   0.782  0.00  0.00    +0.062 C 
BRANCH  26  28
ATOM     28  O   UNL     1       7.227   6.607   1.523  0.00  0.00    -0.480 OA
BRANCH  28  34
ATOM     29  C   UNL     1       9.036   7.853   2.436  0.00  0.00    -0.003 A 
ATOM     30  C   UNL     1       9.496   8.819   3.309  0.00  0.00    +0.007 A 
ATOM     31  C   UNL     1       8.609   9.491   4.129  0.00  0.00    +0.001 A 
ATOM     32  C   UNL     1       7.258   9.198   4.077  0.00  0.00    +0.004 A 
ATOM     33  C   UNL     1       6.792   8.236   3.201  0.00  0.00    +0.046 A 
ATOM     34  C   UNL     1       7.682   7.557   2.382  0.00  0.00    +0.125 A 
BRANCH  29  35
ATOM     35  C   UNL     1      10.004   7.121   1.542  0.00  0.00    +0.019 C 
ATOM     36  C   UNL     1      11.033   6.383   2.401  0.00  0.00    +0.012 C 
BRANCH  35  38
ATOM     37  C   UNL     1      11.612   7.373  -0.354  0.00  0.00    +0.004 C 
ATOM     38  C   UNL     1      10.722   8.125   0.637  0.00  0.00    +0.004 C 
ENDBRANCH  35  38
ENDBRANCH  29  35
ENDBRANCH  28  34
ENDBRANCH  26  28
ENDBRANCH  22  26
ENDBRANCH   1  24
TORSDOF 9
