REMARK  Name = ZINC22263984
REMARK  3 active torsions:
REMARK  status: ('A' for Active; 'I' for Inactive)
REMARK    1  A    between atoms: N_13  and  C_17
REMARK    2  A    between atoms: C_17  and  C_18
REMARK    3  A    between atoms: N_20  and  C_21
REMARK                            x       y       z     vdW  Elec       q    Type
REMARK                         _______ _______ _______ _____ _____    ______ ____
ROOT
ATOM      1  C   UNL     1      -0.017   1.375   0.010  0.00  0.00    +0.000 A 
ATOM      2  C   UNL     1       1.174   2.078   0.002  0.00  0.00    +0.000 A 
ATOM      3  C   UNL     1       2.373   1.395  -0.016  0.00  0.00    +0.006 A 
ATOM      4  C   UNL     1       2.394   0.006  -0.025  0.00  0.00    -0.012 A 
ATOM      5  C   UNL     1       1.207  -0.693  -0.013  0.00  0.00    -0.042 A 
ATOM      6  C   UNL     1       0.002  -0.004   0.002  0.00  0.00    +0.004 A 
ATOM      7  C   UNL     1       1.158  -2.199  -0.009  0.00  0.00    +0.035 C 
ATOM      8  C   UNL     1       2.489  -2.783  -0.478  0.00  0.00    +0.008 C 
ATOM      9  C   UNL     1       3.616  -2.145   0.344  0.00  0.00    +0.040 C 
ATOM     10  C   UNL     1       3.731  -0.679  -0.052  0.00  0.00    +0.138 C 
ATOM     11  C   UNL     1       4.355  -0.552  -1.424  0.00  0.00    +0.251 C 
ATOM     12  O   UNL     1       3.919  -0.982  -2.470  0.00  0.00    -0.272 OA
ATOM     13  N   UNL     1       5.499   0.138  -1.238  0.00  0.00    -0.215 N 
ATOM     14  C   UNL     1       5.678   0.460   0.049  0.00  0.00    +0.310 C 
ATOM     15  O   UNL     1       6.636   1.083   0.463  0.00  0.00    -0.252 OA
ATOM     16  N   UNL     1       4.677   0.017   0.833  0.00  0.00    -0.281 N 
ATOM     17  H   UNL     1       4.596   0.133   1.792  0.00  0.00    +0.152 HD
ENDROOT
BRANCH  13  18
ATOM     18  C   UNL     1       6.431   0.492  -2.312  0.00  0.00    +0.214 C 
BRANCH  18  19
ATOM     19  C   UNL     1       6.048   1.831  -2.888  0.00  0.00    +0.236 C 
ATOM     20  O   UNL     1       5.092   2.431  -2.445  0.00  0.00    -0.274 OA
ATOM     21  N   UNL     1       6.769   2.362  -3.895  0.00  0.00    -0.266 N 
ATOM     22  H   UNL     1       7.534   1.883  -4.250  0.00  0.00    +0.156 HD
BRANCH  21  23
ATOM     23  C   UNL     1       6.415   3.603  -4.429  0.00  0.00    +0.172 A 
ATOM     24  C   UNL     1       7.165   4.147  -5.471  0.00  0.00    +0.219 A 
ATOM     25  C   UNL     1       6.799   5.381  -5.990  0.00  0.00    +0.056 A 
ATOM     26  C   UNL     1       5.696   6.026  -5.448  0.00  0.00    +0.024 A 
ATOM     27  C   UNL     1       5.001   5.426  -4.417  0.00  0.00    +0.113 A 
ATOM     28  N   UNL     1       5.367   4.250  -3.945  0.00  0.00    -0.236 NA
ATOM     29  O   UNL     1       8.239   3.479  -5.971  0.00  0.00    -0.284 OA
ENDBRANCH  21  23
ENDBRANCH  18  19
ENDBRANCH  13  18
TORSDOF 3
