REMARK  Name = ZINC40740512
REMARK  13 active torsions:
REMARK  status: ('A' for Active; 'I' for Inactive)
REMARK    1  A    between atoms: C_1  and  C_2
REMARK    2  A    between atoms: C_2  and  CA_3
REMARK    3  A    between atoms: CA_3  and  C_5
REMARK    4  A    between atoms: CA_3  and  N_7
REMARK    5  A    between atoms: C_5  and  O_6
REMARK    6  A    between atoms: N_7  and  C_8
REMARK    7  A    between atoms: C_8  and  C_9
REMARK    8  A    between atoms: C_11  and  O_26
REMARK    9  A    between atoms: C_12  and  O_16
REMARK   10  A    between atoms: O_16  and  C_17
REMARK   11  A    between atoms: C_17  and  C_18
REMARK   12  A    between atoms: O_26  and  C_27
REMARK   13  A    between atoms: C_27  and  C_28
REMARK                            x       y       z     vdW  Elec       q    Type
REMARK                         _______ _______ _______ _____ _____    ______ ____
ROOT
ATOM      1  C   UNL     1      -0.107  -0.086  -4.873  0.00  0.00    -0.060 A 
ATOM      2  C   UNL     1      -1.007  -0.977  -5.428  0.00  0.00    +0.051 A 
ATOM      3  C   UNL     1      -1.739  -0.616  -6.548  0.00  0.00    +0.163 A 
ATOM      4  C   UNL     1      -1.567   0.644  -7.111  0.00  0.00    +0.176 A 
ATOM      5  C   UNL     1      -0.664   1.534  -6.550  0.00  0.00    +0.063 A 
ATOM      6  C   UNL     1       0.060   1.169  -5.429  0.00  0.00    +0.021 A 
ATOM      7 BR   UNL     1      -0.427   3.248  -7.312  0.00  0.00    -0.046 Br
ENDROOT
BRANCH   1   8
ATOM      8  C   UNL     1       0.688  -0.480  -3.655  0.00  0.00    -0.046 C 
BRANCH   8   9
ATOM      9  N   UNL     1      -0.057  -0.113  -2.444  0.00  0.00    +0.385 N 
ATOM     10  H1  UNL     1      -0.945  -0.593  -2.436  0.00  0.00    -0.085 HD
ATOM     11  H2  UNL     1      -0.214   0.884  -2.435  0.00  0.00    -0.085 HD
BRANCH   9  12
ATOM     12  CA  UNL     1       0.718  -0.497  -1.257  0.00  0.00    -0.046 C 
BRANCH  12  14
ATOM     13  C   UNL     1      -0.019   1.526   0.010  0.00  0.00    +0.002 C 
ATOM     14  C   UNL     1       0.002  -0.004   0.002  0.00  0.00    -0.017 C 
ENDBRANCH  12  14
BRANCH  12  15
ATOM     15  C   UNL     1       0.849  -2.021  -1.205  0.00  0.00    +0.140 C 
BRANCH  15  16
ATOM     16  O   UNL     1      -0.442  -2.604  -1.018  0.00  0.00    -0.397 OA
ATOM     17  H   UNL     1      -0.435  -3.570  -0.976  0.00  0.00    +0.209 HD
ENDBRANCH  15  16
ENDBRANCH  12  15
ENDBRANCH   9  12
ENDBRANCH   8   9
ENDBRANCH   1   8
BRANCH   4  18
ATOM     18  O   UNL     1      -2.284   1.003  -8.210  0.00  0.00    -0.482 OA
BRANCH  18  19
ATOM     19  C   UNL     1      -3.546   1.635  -7.985  0.00  0.00    +0.269 C 
BRANCH  19  20
ATOM     20  C   UNL     1      -4.189   1.957  -9.309  0.00  0.00    +0.043 A 
ATOM     21  C   UNL     1      -3.944   3.175  -9.920  0.00  0.00    +0.131 A 
ATOM     22  C   UNL     1      -4.537   3.470 -11.136  0.00  0.00    +0.039 A 
ATOM     23  C   UNL     1      -5.372   2.549 -11.739  0.00  0.00    +0.004 A 
ATOM     24  C   UNL     1      -5.617   1.333 -11.129  0.00  0.00    +0.020 A 
ATOM     25  C   UNL     1      -5.021   1.034  -9.917  0.00  0.00    +0.050 A 
ATOM     26 CL   UNL     1      -5.324  -0.496  -9.155  0.00  0.00    -0.083 Cl
ATOM     27  F   UNL     1      -3.128   4.075  -9.330  0.00  0.00    -0.205 F 
ENDBRANCH  19  20
ENDBRANCH  18  19
ENDBRANCH   4  18
BRANCH   3  28
ATOM     28  O   UNL     1      -2.624  -1.492  -7.095  0.00  0.00    -0.489 OA
BRANCH  28  29
ATOM     29  C   UNL     1      -2.748  -2.768  -6.464  0.00  0.00    +0.226 C 
ATOM     30  C   UNL     1      -3.781  -3.611  -7.214  0.00  0.00    +0.048 C 
ENDBRANCH  28  29
ENDBRANCH   3  28
TORSDOF 11
