REMARK  Name = ZINC59416914
REMARK  7 active torsions:
REMARK  status: ('A' for Active; 'I' for Inactive)
REMARK    1  A    between atoms: C_1  and  O_2
REMARK    2  A    between atoms: O_2  and  C_3
REMARK    3  A    between atoms: C_6  and  N_11
REMARK    4  A    between atoms: C_12  and  C_14
REMARK    5  A    between atoms: C_14  and  N_15
REMARK    6  A    between atoms: N_15  and  C_16
REMARK    7  A    between atoms: C_16  and  C_17
REMARK                            x       y       z     vdW  Elec       q    Type
REMARK                         _______ _______ _______ _____ _____    ______ ____
ROOT
ATOM      1  C   UNL     1      -1.201  -0.638   0.010  0.00  0.00    +0.136 A 
ATOM      2  C   UNL     1      -2.005  -0.615  -1.121  0.00  0.00    +0.064 A 
ATOM      3  C   UNL     1      -3.227  -1.259  -1.113  0.00  0.00    +0.044 A 
ATOM      4  C   UNL     1      -3.652  -1.929   0.028  0.00  0.00    +0.063 A 
ATOM      5  C   UNL     1      -2.847  -1.952   1.159  0.00  0.00    +0.058 A 
ATOM      6  C   UNL     1      -1.621  -1.312   1.147  0.00  0.00    +0.075 A 
ATOM      7 BR   UNL     1      -0.521  -1.348   2.685  0.00  0.00    -0.045 Br
ATOM      8 BR   UNL     1      -3.424  -2.863   2.712  0.00  0.00    -0.047 Br
ATOM      9 BR   UNL     1      -4.323  -1.227  -2.654  0.00  0.00    -0.048 Br
ENDROOT
BRANCH   4  10
ATOM     10  N   UNL     1      -4.893  -2.582   0.036  0.00  0.00    -0.285 N 
ATOM     11  C   UNL     1      -4.981  -3.866  -0.364  0.00  0.00    +0.200 C 
ATOM     12  O   UNL     1      -3.977  -4.484  -0.645  0.00  0.00    -0.278 OA
ATOM     13  H   UNL     1      -5.687  -2.109   0.330  0.00  0.00    +0.155 HD
BRANCH  11  14
ATOM     14  C   UNL     1      -6.329  -4.533  -0.461  0.00  0.00    +0.016 C 
BRANCH  14  15
ATOM     15  N   UNL     1      -6.157  -5.919  -0.916  0.00  0.00    +0.387 N 
ATOM     16  H   UNL     1      -5.713  -5.923  -1.822  0.00  0.00    -0.085 HD
ATOM     17  H   UNL     1      -5.581  -6.420  -0.257  0.00  0.00    -0.085 HD
BRANCH  15  18
ATOM     18  C   UNL     1      -7.471  -6.570  -1.011  0.00  0.00    -0.055 C 
BRANCH  18  19
ATOM     19  C   UNL     1      -7.295  -7.992  -1.477  0.00  0.00    -0.054 C 
ATOM     20  C   UNL     1      -7.787  -8.979  -0.771  0.00  0.00    +0.002 C 
ENDBRANCH  18  19
ENDBRANCH  15  18
ENDBRANCH  14  15
ENDBRANCH  11  14
ENDBRANCH   4  10
BRANCH   1  22
ATOM     21  C   UNL     1       0.371   0.670  -1.204  0.00  0.00    +0.277 C 
ATOM     22  O   UNL     1       0.002  -0.004   0.001  0.00  0.00    -0.494 OA
ENDBRANCH   1  22
TORSDOF 6
