REMARK  Name = ZINC08952754
REMARK  12 active torsions:
REMARK  status: ('A' for Active; 'I' for Inactive)
REMARK    1  A    between atoms: C_1  and  C_2
REMARK    2  A    between atoms: C_4  and  O_40
REMARK    3  A    between atoms: C_6  and  O_39
REMARK    4  A    between atoms: C_8  and  O_38
REMARK    5  A    between atoms: C_10  and  O_13
REMARK    6  A    between atoms: O_13  and  C_14
REMARK    7  A    between atoms: C_16  and  C_29
REMARK    8  A    between atoms: C_21  and  O_28
REMARK    9  A    between atoms: C_23  and  O_27
REMARK   10  A    between atoms: C_31  and  O_37
REMARK   11  A    between atoms: C_32  and  O_36
REMARK   12  A    between atoms: C_33  and  O_35
REMARK                            x       y       z     vdW  Elec       q    Type
REMARK                         _______ _______ _______ _____ _____    ______ ____
ROOT
ATOM      1  C   UNL     1      -0.017   1.425   0.010  0.00  0.00    +0.237 C 
ATOM      2  C   UNL     1      -0.758   1.931   1.256  0.00  0.00    +0.240 C 
ATOM      3  O   UNL     1      -0.810   3.357   1.228  0.00  0.00    -0.480 OA
ATOM      4  C   UNL     1      -1.286   3.970   0.119  0.00  0.00    +0.139 A 
ATOM      5  C   UNL     1      -1.778   5.261   0.200  0.00  0.00    +0.092 A 
ATOM      6  C   UNL     1      -2.259   5.898  -0.936  0.00  0.00    +0.124 A 
ATOM      7  C   UNL     1      -2.254   5.253  -2.167  0.00  0.00    +0.091 A 
ATOM      8  C   UNL     1      -1.768   3.962  -2.270  0.00  0.00    +0.134 A 
ATOM      9  C   UNL     1      -1.285   3.311  -1.124  0.00  0.00    +0.103 A 
ATOM     10  C   UNL     1      -0.773   1.938  -1.203  0.00  0.00    +0.203 C 
ATOM     11  O   UNL     1      -0.945   1.248  -2.186  0.00  0.00    -0.289 OA
ENDROOT
BRANCH   2  12
ATOM     12  C   UNL     1      -0.029   1.476   2.494  0.00  0.00    +0.003 A 
ATOM     13  C   UNL     1       1.033   2.217   2.980  0.00  0.00    +0.056 A 
ATOM     14  C   UNL     1       1.703   1.805   4.122  0.00  0.00    +0.162 A 
ATOM     15  C   UNL     1       1.313   0.641   4.772  0.00  0.00    +0.201 A 
ATOM     16  C   UNL     1       0.249  -0.104   4.277  0.00  0.00    +0.162 A 
ATOM     17  C   UNL     1      -0.419   0.317   3.138  0.00  0.00    +0.056 A 
BRANCH  16  18
ATOM     18  O   UNL     1      -0.135  -1.245   4.910  0.00  0.00    -0.503 OA
ATOM     19  H   UNL     1       0.313  -2.041   4.592  0.00  0.00    +0.292 HD
ENDBRANCH  16  18
BRANCH  15  20
ATOM     20  O   UNL     1       1.972   0.231   5.890  0.00  0.00    -0.501 OA
ATOM     21  H   UNL     1       2.721  -0.354   5.713  0.00  0.00    +0.292 HD
ENDBRANCH  15  20
BRANCH  14  22
ATOM     22  O   UNL     1       2.743   2.538   4.602  0.00  0.00    -0.503 OA
ATOM     23  H   UNL     1       3.604   2.284   4.241  0.00  0.00    +0.292 HD
ENDBRANCH  14  22
ENDBRANCH   2  12
BRANCH   8  24
ATOM     24  O   UNL     1      -1.759   3.329  -3.470  0.00  0.00    -0.506 OA
ATOM     25  H   UNL     1      -2.565   2.829  -3.657  0.00  0.00    +0.292 HD
ENDBRANCH   8  24
BRANCH   6  26
ATOM     26  O   UNL     1      -2.740   7.163  -0.844  0.00  0.00    -0.507 OA
ATOM     27  H   UNL     1      -2.071   7.849  -0.980  0.00  0.00    +0.292 HD
ENDBRANCH   6  26
BRANCH   1  28
ATOM     28  O   UNL     1       0.002  -0.004   0.002  0.00  0.00    -0.333 OA
BRANCH  28  34
ATOM     29  C   UNL     1       3.553  -0.535   2.174  0.00  0.00    +0.041 C 
ATOM     30  C   UNL     1       2.259  -0.874   1.431  0.00  0.00    +0.149 C 
ATOM     31  C   UNL     1       2.101  -2.394   1.348  0.00  0.00    +0.174 C 
ATOM     32  C   UNL     1       0.835  -2.725   0.551  0.00  0.00    +0.179 C 
ATOM     33  C   UNL     1       0.931  -2.075  -0.832  0.00  0.00    +0.201 C 
ATOM     34  C   UNL     1       1.134  -0.566  -0.665  0.00  0.00    +0.283 C 
ATOM     35  O   UNL     1       2.311  -0.329   0.111  0.00  0.00    -0.343 OA
BRANCH  33  36
ATOM     36  O   UNL     1       2.037  -2.629  -1.547  0.00  0.00    -0.384 OA
ATOM     37  H   UNL     1       2.160  -2.258  -2.431  0.00  0.00    +0.210 HD
ENDBRANCH  33  36
BRANCH  32  38
ATOM     38  O   UNL     1       0.717  -4.142   0.406  0.00  0.00    -0.386 OA
ATOM     39  H   UNL     1      -0.061  -4.423  -0.095  0.00  0.00    +0.210 HD
ENDBRANCH  32  38
BRANCH  31  40
ATOM     40  O   UNL     1       1.991  -2.936   2.666  0.00  0.00    -0.387 OA
ATOM     41  H   UNL     1       2.760  -2.763   3.227  0.00  0.00    +0.210 HD
ENDBRANCH  31  40
ENDBRANCH  28  34
ENDBRANCH   1  28
TORSDOF 11
