REMARK  Name = ZINC15480392
REMARK  12 active torsions:
REMARK  status: ('A' for Active; 'I' for Inactive)
REMARK    1  A    between atoms: C_1  and  C_2
REMARK    2  A    between atoms: C_2  and  C_3
REMARK    3  A    between atoms: C_3  and  C_27
REMARK    4  A    between atoms: N_6  and  N_10
REMARK    5  A    between atoms: C_11  and  C_13
REMARK    6  A    between atoms: C_13  and  N_55
REMARK    7  A    between atoms: C_14  and  N_55
REMARK    8  A    between atoms: C_15  and  C_16
REMARK    9  A    between atoms: C_15  and  N_55
REMARK   10  A    between atoms: N_18  and  C_19
REMARK   11  A    between atoms: C_23  and  C_26
REMARK   12  A    between atoms: C_24  and  C_25
REMARK                            x       y       z     vdW  Elec       q    Type
REMARK                         _______ _______ _______ _____ _____    ______ ____
ROOT
ATOM      1  C   UNL     1       1.874   6.506   3.400  0.00  0.00    +0.020 C 
ENDROOT
BRANCH   1   3
ATOM      2  N   UNL     1       0.312   4.629   3.011  0.00  0.00    -0.225 N 
ATOM      3  C   UNL     1       1.562   5.120   2.898  0.00  0.00    +0.213 C 
ATOM      4  O   UNL     1       2.435   4.447   2.392  0.00  0.00    -0.276 OA
ATOM      5  H   UNL     1      -0.386   5.167   3.416  0.00  0.00    +0.173 HD
BRANCH   2   9
ATOM      6  C   UNL     1      -0.730   1.571   1.311  0.00  0.00    +0.111 C 
ATOM      7  C   UNL     1      -0.657   3.081   1.409  0.00  0.00    +0.263 C 
ATOM      8  O   UNL     1      -1.113   3.889   0.629  0.00  0.00    -0.271 OA
ATOM      9  N   UNL     1       0.021   3.340   2.545  0.00  0.00    -0.137 N 
ATOM     10  C   UNL     1       0.383   2.215   3.171  0.00  0.00    +0.326 C 
ATOM     11  O   UNL     1       1.005   2.192   4.215  0.00  0.00    -0.251 OA
ATOM     12  N   UNL     1      -0.017   1.110   2.515  0.00  0.00    -0.284 N 
ATOM     13  C   UNL     1      -0.023   1.079   0.046  0.00  0.00    +0.041 C 
ATOM     14  H   UNL     1       0.134   0.190   2.783  0.00  0.00    +0.151 HD
BRANCH   6  16
ATOM     15  C   UNL     1      -2.221  -0.432   1.412  0.00  0.00    +0.006 C 
ATOM     16  C   UNL     1      -2.184   1.096   1.331  0.00  0.00    +0.032 C 
ENDBRANCH   6  16
ENDBRANCH   2   9
ENDBRANCH   1   3
BRANCH   1  18
ATOM     17  C   UNL     1       4.157   5.936   3.974  0.00  0.00    -0.095 C 
ATOM     18  N   UNL     1       3.299   6.800   3.135  0.00  0.00    +0.389 N 
ATOM     19  H   UNL     1       3.500   6.610   2.147  0.00  0.00    -0.081 HD
BRANCH  18  20
ATOM     20  C   UNL     1       3.583   8.222   3.419  0.00  0.00    +0.019 C 
BRANCH  20  21
ATOM     21  C   UNL     1       4.973   8.546   2.935  0.00  0.00    +0.201 C 
ATOM     22  O   UNL     1       5.655   7.681   2.427  0.00  0.00    -0.278 OA
ATOM     23  N   UNL     1       5.458   9.796   3.066  0.00  0.00    -0.287 N 
ATOM     24  H   UNL     1       4.886  10.506   3.398  0.00  0.00    +0.155 HD
BRANCH  23  25
ATOM     25  C   UNL     1       6.787  10.071   2.724  0.00  0.00    +0.036 A 
ATOM     26  C   UNL     1       7.736   9.057   2.749  0.00  0.00    +0.023 A 
ATOM     27  C   UNL     1       9.046   9.331   2.411  0.00  0.00    +0.002 A 
ATOM     28  C   UNL     1       9.414  10.614   2.048  0.00  0.00    +0.004 A 
ATOM     29  C   UNL     1       8.472  11.625   2.021  0.00  0.00    -0.046 A 
ATOM     30  C   UNL     1       7.158  11.356   2.353  0.00  0.00    -0.026 A 
ATOM     31  C   UNL     1       6.131  12.458   2.318  0.00  0.00    +0.046 C 
ATOM     32  C   UNL     1       8.877  13.021   1.625  0.00  0.00    +0.044 C 
ENDBRANCH  23  25
ENDBRANCH  20  21
ENDBRANCH  18  20
ENDBRANCH   1  18
TORSDOF 7
