REMARK  Name = ZINC08857510
REMARK  6 active torsions:
REMARK  status: ('A' for Active; 'I' for Inactive)
REMARK    1  A    between atoms: C_1  and  N_2
REMARK    2  A    between atoms: N_2  and  C_3
REMARK    3  A    between atoms: C_15  and  N_71
REMARK    4  A    between atoms: N_25  and  C_26
REMARK    5  A    between atoms: C_29  and  O_32
REMARK    6  A    between atoms: O_32  and  C_33
REMARK                            x       y       z     vdW  Elec       q    Type
REMARK                         _______ _______ _______ _____ _____    ______ ____
ROOT
ATOM      1  C   UNL     1      -3.424   5.910   0.040  0.00  0.00    +0.132 C 
ATOM      2  N   UNL     1      -2.189   5.124  -0.012  0.00  0.00    -0.306 N 
ATOM      3  C   UNL     1      -0.895   5.801  -0.128  0.00  0.00    +0.132 C 
ATOM      4  C   UNL     1      -2.244   3.746   0.047  0.00  0.00    +0.223 A 
ATOM      5  N   UNL     1      -1.122   3.034   0.005  0.00  0.00    -0.181 NA
ATOM      6  C   UNL     1      -1.176   1.706   0.057  0.00  0.00    +0.225 A 
ATOM      7  N   UNL     1      -2.350   1.092   0.161  0.00  0.00    -0.181 NA
ATOM      8  C   UNL     1      -3.471   1.805   0.209  0.00  0.00    +0.224 A 
ATOM      9  N   UNL     1      -3.418   3.132   0.152  0.00  0.00    -0.181 NA
ATOM     10  N   UNL     1      -4.690   1.167   0.318  0.00  0.00    -0.303 N 
ATOM     11  C   UNL     1      -5.432   1.645   1.493  0.00  0.00    +0.089 C 
ATOM     12  C   UNL     1      -6.807   0.974   1.532  0.00  0.00    -0.059 C 
ATOM     13  C   UNL     1      -5.894  -0.963   0.404  0.00  0.00    -0.059 C 
ATOM     14  C   UNL     1      -4.519  -0.292   0.364  0.00  0.00    +0.089 C 
ATOM     15  N   UNL     1      -0.011   0.966   0.007  0.00  0.00    -0.283 N 
ATOM     16  H   UNL     1      -0.043   0.004   0.127  0.00  0.00    +0.155 HD
ATOM     17  N   UNL     1      -6.621  -0.490   1.602  0.00  0.00    +0.385 N 
ATOM     18  H   UNL     1      -6.069  -0.718   2.438  0.00  0.00    -0.081 HD
ENDROOT
BRANCH  17  19
ATOM     19  C   UNL     1      -7.934  -1.163   1.694  0.00  0.00    -0.065 C 
ATOM     20  C   UNL     1      -8.768  -0.886   0.442  0.00  0.00    -0.009 C 
ATOM     21  C   UNL     1     -10.119  -1.593   0.562  0.00  0.00    -0.012 C 
ATOM     22  C   UNL     1     -10.860  -1.070   1.794  0.00  0.00    +0.007 C 
ATOM     23  C   UNL     1     -10.027  -1.347   3.046  0.00  0.00    -0.012 C 
ATOM     24  C   UNL     1      -8.675  -0.640   2.926  0.00  0.00    -0.009 C 
ATOM     25  C   UNL     1      -9.803  -2.854   3.187  0.00  0.00    +0.007 C 
ATOM     26  C   UNL     1      -9.062  -3.377   1.955  0.00  0.00    -0.012 C 
ATOM     27  C   UNL     1      -9.896  -3.100   0.703  0.00  0.00    +0.007 C 
ATOM     28  C   UNL     1      -7.710  -2.671   1.835  0.00  0.00    -0.009 C 
ENDBRANCH  17  19
BRANCH  15  29
ATOM     29  C   UNL     1       1.215   1.603  -0.222  0.00  0.00    +0.034 A 
ATOM     30  C   UNL     1       1.288   2.671  -1.106  0.00  0.00    +0.027 A 
ATOM     31  C   UNL     1       2.496   3.303  -1.327  0.00  0.00    +0.048 A 
ATOM     32  C   UNL     1       3.638   2.863  -0.674  0.00  0.00    +0.129 A 
ATOM     33  C   UNL     1       3.567   1.792   0.204  0.00  0.00    +0.048 A 
ATOM     34  C   UNL     1       2.359   1.163   0.431  0.00  0.00    +0.027 A 
BRANCH  32  35
ATOM     35  O   UNL     1       4.829   3.482  -0.897  0.00  0.00    -0.420 OA
BRANCH  35  36
ATOM     36  C   UNL     1       4.829   4.578  -1.814  0.00  0.00    +0.489 C 
ATOM     37  F   UNL     1       4.394   4.136  -3.069  0.00  0.00    -0.149 F 
ATOM     38  F   UNL     1       3.968   5.577  -1.348  0.00  0.00    -0.149 F 
ATOM     39 CL   UNL     1       6.499   5.242  -1.957  0.00  0.00    +0.000 Cl
ENDBRANCH  35  36
ENDBRANCH  32  35
ENDBRANCH  15  29
TORSDOF 4
