REMARK  Name = ZINC67613347
REMARK  8 active torsions:
REMARK  status: ('A' for Active; 'I' for Inactive)
REMARK    1  A    between atoms: C_1  and  C_2
REMARK    2  A    between atoms: N_5  and  C_8
REMARK    3  A    between atoms: C_8  and  C_9
REMARK    4  A    between atoms: C_9  and  C_11
REMARK    5  A    between atoms: C_9  and  O_28
REMARK    6  A    between atoms: C_11  and  N_12
REMARK    7  A    between atoms: N_15  and  C_16
REMARK    8  A    between atoms: C_21  and  C_24
REMARK                            x       y       z     vdW  Elec       q    Type
REMARK                         _______ _______ _______ _____ _____    ______ ____
ROOT
ATOM      1  N   UNL     1       0.526  -6.331   4.079  0.00  0.00    -0.297 N 
ATOM      2  C   UNL     1       0.687  -7.641   4.351  0.00  0.00    +0.300 C 
ATOM      3  O   UNL     1       0.343  -8.477   3.538  0.00  0.00    -0.253 OA
ATOM      4  N   UNL     1       1.230  -8.024   5.523  0.00  0.00    -0.297 N 
ATOM      5  H   UNL     1       0.800  -5.664   4.727  0.00  0.00    +0.150 HD
ATOM      6  H   UNL     1       1.505  -7.357   6.171  0.00  0.00    +0.151 HD
ENDROOT
BRANCH   4   7
ATOM      7  C   UNL     1       1.405  -9.449   5.818  0.00  0.00    +0.075 C 
ATOM      8  C   UNL     1       0.108 -10.012   6.403  0.00  0.00    +0.022 C 
ATOM      9  C   UNL     1       0.291 -11.499   6.711  0.00  0.00    +0.002 C 
ATOM     10  C   UNL     1       1.425 -11.674   7.723  0.00  0.00    +0.012 C 
ATOM     11  C   UNL     1       2.722 -11.111   7.139  0.00  0.00    +0.095 C 
ATOM     12  C   UNL     1       2.539  -9.624   6.831  0.00  0.00    +0.034 C 
BRANCH  11  13
ATOM     13  C   UNL     1       3.856 -11.286   8.151  0.00  0.00    +0.393 C 
ATOM     14  F   UNL     1       4.024 -12.646   8.433  0.00  0.00    -0.170 F 
ATOM     15  F   UNL     1       5.042 -10.771   7.617  0.00  0.00    -0.170 F 
ATOM     16  F   UNL     1       3.540 -10.601   9.329  0.00  0.00    -0.170 F 
ENDBRANCH  11  13
ENDBRANCH   4   7
BRANCH   1  17
ATOM     17  C   UNL     1      -0.065  -5.914   2.804  0.00  0.00    +0.135 C 
BRANCH  17  18
ATOM     18  C   UNL     1      -0.134  -4.387   2.750  0.00  0.00    +0.115 C 
BRANCH  18  19
ATOM     19  O   UNL     1      -0.941  -3.908   3.828  0.00  0.00    -0.392 OA
ATOM     20  H   UNL     1      -1.850  -4.235   3.814  0.00  0.00    +0.210 HD
ENDBRANCH  18  19
BRANCH  18  21
ATOM     21  C   UNL     1      -0.750  -3.952   1.419  0.00  0.00    -0.046 C 
BRANCH  21  26
ATOM     22  C   UNL     1      -0.019   1.526   0.010  0.00  0.00    +0.007 C 
ATOM     23  C   UNL     1       0.002  -0.004   0.002  0.00  0.00    -0.018 C 
ATOM     24  C   UNL     1      -1.434  -0.536   0.023  0.00  0.00    -0.016 C 
ATOM     25  C   UNL     1      -1.405  -2.064   0.095  0.00  0.00    -0.078 C 
ATOM     26  N   UNL     1      -0.707  -2.487   1.315  0.00  0.00    +0.381 N 
ATOM     27  C   UNL     1       0.691  -2.042   1.269  0.00  0.00    -0.078 C 
ATOM     28  C   UNL     1       0.743  -0.513   1.242  0.00  0.00    -0.016 C 
ATOM     29  H   UNL     1      -1.162  -2.082   2.119  0.00  0.00    -0.082 HD
ENDBRANCH  21  26
ENDBRANCH  18  21
ENDBRANCH  17  18
ENDBRANCH   1  17
TORSDOF 7
