REMARK  Name = ZINC45146103
REMARK  8 active torsions:
REMARK  status: ('A' for Active; 'I' for Inactive)
REMARK    1  A    between atoms: C_1  and  C_2
REMARK    2  A    between atoms: C_2  and  C_4
REMARK    3  A    between atoms: C_2  and  N_7
REMARK    4  A    between atoms: C_4  and  N_6
REMARK    5  A    between atoms: N_7  and  C_8
REMARK    6  A    between atoms: C_9  and  C_11
REMARK    7  A    between atoms: C_11  and  C_12
REMARK    8  A    between atoms: C_11  and  C_13
REMARK                            x       y       z     vdW  Elec       q    Type
REMARK                         _______ _______ _______ _____ _____    ______ ____
ROOT
ATOM      1  C   UNL     1       0.028   1.576   0.252  0.00  0.00    +0.035 C 
ATOM      2  C   UNL     1       0.061   0.062   0.034  0.00  0.00    +0.124 C 
ENDROOT
BRANCH   2   3
ATOM      3  N   UNL     1       0.680  -0.231  -1.261  0.00  0.00    -0.296 N 
ATOM      4  C   UNL     1       0.165   0.400  -2.479  0.00  0.00    +0.132 C 
ATOM      5  C   UNL     1       1.724  -1.081  -1.332  0.00  0.00    +0.218 C 
ATOM      6  O   UNL     1       2.150  -1.603  -0.324  0.00  0.00    -0.275 OA
BRANCH   5   7
ATOM      7  C   UNL     1       2.361  -1.382  -2.664  0.00  0.00    +0.069 C 
ATOM      8  C   UNL     1       2.896  -0.087  -3.278  0.00  0.00    +0.017 C 
ATOM      9  C   UNL     1       3.514  -2.368  -2.467  0.00  0.00    +0.017 C 
ENDBRANCH   5   7
ENDBRANCH   2   3
BRANCH   2  10
ATOM     10  C   UNL     1      -1.346  -0.478   0.052  0.00  0.00    +0.067 C 
ATOM     11  S   UNL     1      -1.931  -1.228  -1.234  0.00  0.00    -0.039 S 
BRANCH  10  12
ATOM     12  N   UNL     1      -2.111  -0.330   1.151  0.00  0.00    -0.354 N 
ATOM     13  H   UNL     1      -1.756   0.124   1.931  0.00  0.00    +0.143 HD
ATOM     14  H   UNL     1      -3.016  -0.678   1.163  0.00  0.00    +0.143 HD
ENDBRANCH  10  12
ENDBRANCH   2  10
TORSDOF 4
