REMARK  Name = ZINC08617606
REMARK  8 active torsions:
REMARK  status: ('A' for Active; 'I' for Inactive)
REMARK    1  A    between atoms: C_1  and  C_2
REMARK    2  A    between atoms: C_15  and  O_31
REMARK    3  A    between atoms: C_18  and  C_30
REMARK    4  A    between atoms: C_23  and  C_24
REMARK    5  A    between atoms: C_23  and  O_29
REMARK    6  A    between atoms: C_24  and  C_26
REMARK    7  A    between atoms: C_24  and  O_28
REMARK    8  A    between atoms: C_26  and  O_27
REMARK                            x       y       z     vdW  Elec       q    Type
REMARK                         _______ _______ _______ _____ _____    ______ ____
ROOT
ATOM      1  C   UNL     1      -0.592  -2.831   0.436  0.00  0.00    +0.016 C 
ATOM      2  C   UNL     1      -1.575  -1.751   0.894  0.00  0.00    -0.005 C 
ATOM      3  C   UNL     1      -1.183  -1.468   2.333  0.00  0.00    +0.019 C 
ATOM      4  C   UNL     1      -2.362  -1.132   3.236  0.00  0.00    +0.080 C 
ATOM      5  C   UNL     1      -3.406  -2.222   3.108  0.00  0.00    +0.156 C 
ATOM      6  O   UNL     1      -3.910  -2.746   4.080  0.00  0.00    -0.293 OA
ATOM      7  C   UNL     1      -3.770  -2.611   1.741  0.00  0.00    +0.046 C 
ATOM      8  C   UNL     1      -2.942  -2.346   0.742  0.00  0.00    -0.060 C 
ATOM      9  C   UNL     1      -3.405  -2.624  -0.681  0.00  0.00    +0.032 C 
ATOM     10  C   UNL     1      -3.426  -1.261  -1.379  0.00  0.00    +0.008 C 
ATOM     11  C   UNL     1      -2.044  -0.617  -1.364  0.00  0.00    -0.001 C 
ATOM     12  C   UNL     1      -1.420  -0.520   0.019  0.00  0.00    +0.031 C 
ATOM     13  C   UNL     1       0.010  -0.003   0.017  0.00  0.00    +0.119 C 
ATOM     14  C   UNL     1       0.905  -0.503  -1.116  0.00  0.00    +0.041 C 
ATOM     15  C   UNL     1       0.198  -0.476  -2.444  0.00  0.00    +0.005 C 
ATOM     16  C   UNL     1      -1.113  -1.288  -2.340  0.00  0.00    +0.001 C 
ATOM     17  C   UNL     1      -1.578  -1.325  -3.804  0.00  0.00    +0.007 C 
ATOM     18  C   UNL     1      -0.257  -1.535  -4.591  0.00  0.00    +0.038 C 
ATOM     19  C   UNL     1       0.898  -1.151  -3.630  0.00  0.00    +0.100 C 
ATOM     20  C   UNL     1      -0.077   0.976  -2.859  0.00  0.00    +0.014 C 
ENDROOT
BRANCH  19  21
ATOM     21  O   UNL     1       1.776  -0.219  -4.266  0.00  0.00    -0.385 OA
ATOM     22  H   UNL     1       2.252  -0.582  -5.025  0.00  0.00    +0.210 HD
ENDBRANCH  19  21
BRANCH  13  23
ATOM     23  O   UNL     1      -0.007   1.431   0.030  0.00  0.00    -0.391 OA
ATOM     24  H   UNL     1       0.872   1.834   0.030  0.00  0.00    +0.210 HD
ENDBRANCH  13  23
BRANCH  19  25
ATOM     25  C   UNL     1       1.665  -2.398  -3.203  0.00  0.00    +0.172 C 
BRANCH  25  26
ATOM     26  O   UNL     1       2.660  -2.040  -2.242  0.00  0.00    -0.387 OA
ATOM     27  H   UNL     1       3.310  -1.402  -2.567  0.00  0.00    +0.210 HD
ENDBRANCH  25  26
BRANCH  25  28
ATOM     28  C   UNL     1       2.339  -3.025  -4.426  0.00  0.00    +0.190 C 
BRANCH  28  29
ATOM     29  O   UNL     1       2.961  -4.255  -4.048  0.00  0.00    -0.392 OA
ATOM     30  H   UNL     1       3.409  -4.708  -4.776  0.00  0.00    +0.210 HD
ENDBRANCH  28  29
ENDBRANCH  25  28
ENDBRANCH  19  25
TORSDOF 6
