REMARK  Name = ZINC33326896
REMARK  11 active torsions:
REMARK  status: ('A' for Active; 'I' for Inactive)
REMARK    1  A    between atoms: C_1  and  C_2
REMARK    2  A    between atoms: C_6  and  N_8
REMARK    3  A    between atoms: N_8  and  C_9
REMARK    4  A    between atoms: N_15  and  C_16
REMARK    5  A    between atoms: C_19  and  N_22
REMARK    6  A    between atoms: N_22  and  S_23
REMARK    7  A    between atoms: S_23  and  C_26
REMARK    8  A    between atoms: C_29  and  O_34
REMARK    9  A    between atoms: C_30  and  O_32
REMARK   10  A    between atoms: O_32  and  C_33
REMARK   11  A    between atoms: O_34  and  C_35
REMARK                            x       y       z     vdW  Elec       q    Type
REMARK                         _______ _______ _______ _____ _____    ______ ____
ROOT
ATOM      1  C   UNL     1       0.779   2.902   0.026  0.00  0.00    +0.032 A 
ATOM      2  C   UNL     1       1.873   3.450   0.684  0.00  0.00    +0.025 A 
ATOM      3  C   UNL     1       3.110   2.845   0.589  0.00  0.00    +0.026 A 
ATOM      4  C   UNL     1       3.261   1.688  -0.164  0.00  0.00    +0.048 A 
ATOM      5  C   UNL     1       2.167   1.139  -0.822  0.00  0.00    +0.026 A 
ATOM      6  C   UNL     1       0.930   1.745  -0.727  0.00  0.00    +0.025 A 
ENDROOT
BRANCH   1  14
ATOM      7  C   UNL     1      -3.700   6.087   2.564  0.00  0.00    +0.086 C 
ATOM      8  C   UNL     1      -2.429   5.278   2.537  0.00  0.00    +0.107 A 
ATOM      9  N   UNL     1      -2.015   4.775   1.391  0.00  0.00    -0.332 N 
ATOM     10  C   UNL     1      -0.900   4.050   1.327  0.00  0.00    +0.105 A 
ATOM     11  C   UNL     1      -0.164   3.837   2.489  0.00  0.00    +0.085 A 
ATOM     12  C   UNL     1      -0.633   4.390   3.676  0.00  0.00    +0.124 A 
ATOM     13  N   UNL     1      -1.761   5.099   3.658  0.00  0.00    -0.220 NA
ATOM     14  N   UNL     1      -0.475   3.519   0.118  0.00  0.00    -0.301 N 
ATOM     15  H   UNL     1      -1.123   3.583  -0.769  0.00  0.00    +0.154 HD
ATOM     16  H   UNL     1      -2.593   4.952   0.472  0.00  0.00    +0.168 HD
BRANCH  12  17
ATOM     17  N   UNL     1       0.063   4.207   4.861  0.00  0.00    -0.326 N 
ATOM     18  H   UNL     1      -0.358   4.573   5.809  0.00  0.00    +0.148 HD
BRANCH  17  19
ATOM     19  C   UNL     1       1.361   3.528   4.850  0.00  0.00    +0.072 C 
ATOM     20  C   UNL     1       1.148   2.019   4.987  0.00  0.00    +0.022 C 
ATOM     21  C   UNL     1       2.503   1.310   4.975  0.00  0.00    +0.002 C 
ATOM     22  C   UNL     1       3.352   1.813   6.144  0.00  0.00    +0.000 C 
ATOM     23  C   UNL     1       3.565   3.322   6.008  0.00  0.00    +0.002 C 
ATOM     24  C   UNL     1       2.210   4.031   6.019  0.00  0.00    +0.022 C 
ENDBRANCH  17  19
ENDBRANCH  12  17
ENDBRANCH   1  14
BRANCH   4  25
ATOM     25  N   UNL     1       4.515   1.074  -0.260  0.00  0.00    -0.216 N 
ATOM     26  H   UNL     1       4.923   0.519   0.597  0.00  0.00    +0.174 HD
BRANCH  25  27
ATOM     27  S   UNL     1       5.385   1.185  -1.665  0.00  0.00    +0.072 S 
ATOM     28  O   UNL     1       6.640   0.567  -1.415  0.00  0.00    -0.150 OA
ATOM     29  O   UNL     1       4.522   0.761  -2.712  0.00  0.00    -0.150 OA
BRANCH  27  30
ATOM     30  C   UNL     1       5.712   2.894  -1.943  0.00  0.00    +0.112 A 
ATOM     31  C   UNL     1       4.879   3.630  -2.765  0.00  0.00    +0.032 A 
ATOM     32  C   UNL     1       5.128   4.973  -2.981  0.00  0.00    +0.051 A 
ATOM     33  C   UNL     1       6.220   5.580  -2.383  0.00  0.00    +0.162 A 
ATOM     34  C   UNL     1       7.061   4.838  -1.560  0.00  0.00    +0.163 A 
ATOM     35  C   UNL     1       6.803   3.494  -1.343  0.00  0.00    +0.078 A 
BRANCH  34  36
ATOM     36  O   UNL     1       8.134   5.430  -0.970  0.00  0.00    -0.491 OA
ATOM     37  C   UNL     1       8.954   4.606  -0.138  0.00  0.00    +0.277 C 
ENDBRANCH  34  36
BRANCH  33  38
ATOM     38  O   UNL     1       6.469   6.900  -2.599  0.00  0.00    -0.491 OA
ATOM     39  C   UNL     1       5.502   7.627  -3.359  0.00  0.00    +0.277 C 
ENDBRANCH  33  38
ENDBRANCH  27  30
ENDBRANCH  25  27
ENDBRANCH   4  25
TORSDOF 8
