REMARK  Name = ZINC09915728
REMARK  20 active torsions:
REMARK  status: ('A' for Active; 'I' for Inactive)
REMARK    1  A    between atoms: C_1  and  C_2
REMARK    2  A    between atoms: C_2  and  C_29
REMARK    3  A    between atoms: C_3  and  C_27
REMARK    4  A    between atoms: C_3  and  O_28
REMARK    5  A    between atoms: C_4  and  C_25
REMARK    6  A    between atoms: C_4  and  O_26
REMARK    7  A    between atoms: C_5  and  C_23
REMARK    8  A    between atoms: C_5  and  O_24
REMARK    9  A    between atoms: C_6  and  C_8
REMARK   10  A    between atoms: C_6  and  O_9
REMARK   11  A    between atoms: O_9  and  C_10
REMARK   12  A    between atoms: C_10  and  C_12
REMARK   13  A    between atoms: C_10  and  C_18
REMARK   14  A    between atoms: C_12  and  C_14
REMARK   15  A    between atoms: C_12  and  O_17
REMARK   16  A    between atoms: C_14  and  C_15
REMARK   17  A    between atoms: C_18  and  C_20
REMARK   18  A    between atoms: C_18  and  O_22
REMARK   19  A    between atoms: C_20  and  O_21
REMARK   20  A    between atoms: C_29  and  O_30
REMARK                            x       y       z     vdW  Elec       q    Type
REMARK                         _______ _______ _______ _____ _____    ______ ____
ROOT
ATOM      1  C   UNL     1      -2.665  -1.013  -3.034  0.00  0.00    +0.047 C 
ATOM      2  C   UNL     1      -3.699  -0.885  -1.908  0.00  0.00    +0.124 C 
ATOM      3  C   UNL     1      -4.412  -2.219  -1.711  0.00  0.00    +0.125 C 
ATOM      4  C   UNL     1      -3.611  -3.186  -0.851  0.00  0.00    +0.128 C 
ATOM      5  C   UNL     1      -3.108  -2.548   0.436  0.00  0.00    +0.147 C 
ATOM      6  C   UNL     1      -2.434  -1.202   0.197  0.00  0.00    +0.200 C 
ATOM      7  O   UNL     1      -3.112  -0.392  -0.729  0.00  0.00    -0.335 OA
ATOM      8  C   UNL     1      -0.973  -1.419  -0.214  0.00  0.00    +0.077 C 
ATOM      9  C   UNL     1      -4.262  -2.375   1.431  0.00  0.00    +0.050 C 
ATOM     10  C   UNL     1      -4.522  -4.374  -0.481  0.00  0.00    +0.047 C 
ATOM     11  C   UNL     1      -4.634  -2.860  -3.094  0.00  0.00    +0.047 C 
ENDROOT
BRANCH   5  12
ATOM     12  O   UNL     1      -2.143  -3.435   1.034  0.00  0.00    -0.381 OA
ATOM     13  H   UNL     1      -1.795  -3.123   1.881  0.00  0.00    +0.211 HD
ENDBRANCH   5  12
BRANCH   4  14
ATOM     14  O   UNL     1      -2.507  -3.708  -1.601  0.00  0.00    -0.383 OA
ATOM     15  H   UNL     1      -1.997  -4.383  -1.133  0.00  0.00    +0.210 HD
ENDBRANCH   4  14
BRANCH   3  16
ATOM     16  O   UNL     1      -5.699  -1.986  -1.126  0.00  0.00    -0.383 OA
ATOM     17  H   UNL     1      -6.256  -1.376  -1.630  0.00  0.00    +0.210 HD
ENDBRANCH   3  16
BRANCH   6  18
ATOM     18  O   UNL     1      -2.412  -0.503   1.464  0.00  0.00    -0.338 OA
BRANCH  18  19
ATOM     19  C   UNL     1      -1.838   0.804   1.397  0.00  0.00    +0.181 C 
BRANCH  19  20
ATOM     20  C   UNL     1      -2.932   1.853   1.610  0.00  0.00    +0.153 C 
BRANCH  20  21
ATOM     21  O   UNL     1      -3.467   1.721   2.928  0.00  0.00    -0.389 OA
ATOM     22  H   UNL     1      -3.862   0.857   3.108  0.00  0.00    +0.210 HD
ENDBRANCH  20  21
BRANCH  20  23
ATOM     23  C   UNL     1      -4.046   1.643   0.583  0.00  0.00    +0.104 C 
BRANCH  23  24
ATOM     24  C   UNL     1      -5.079   2.731   0.734  0.00  0.00    +0.226 C 
ATOM     25  O   UNL     1      -5.334   3.454  -0.199  0.00  0.00    -0.301 OA
ENDBRANCH  23  24
ENDBRANCH  20  23
ENDBRANCH  19  20
BRANCH  19  26
ATOM     26  C   UNL     1      -0.772   0.950   2.485  0.00  0.00    +0.171 C 
BRANCH  26  27
ATOM     27  O   UNL     1      -0.264   2.285   2.477  0.00  0.00    -0.387 OA
ATOM     28  H   UNL     1      -0.934   2.962   2.642  0.00  0.00    +0.210 HD
ENDBRANCH  26  27
BRANCH  26  29
ATOM     29  C   UNL     1       0.370  -0.032   2.215  0.00  0.00    +0.189 C 
BRANCH  29  30
ATOM     30  O   UNL     1       0.896   0.197   0.906  0.00  0.00    -0.392 OA
ATOM     31  H   UNL     1       1.675  -0.337   0.696  0.00  0.00    +0.210 HD
ENDBRANCH  29  30
ENDBRANCH  26  29
ENDBRANCH  19  26
ENDBRANCH  18  19
ENDBRANCH   6  18
BRANCH   2  32
ATOM     32  C   UNL     1      -4.756   0.140  -2.380  0.00  0.00    +0.193 C 
BRANCH  32  33
ATOM     33  O   UNL     1      -4.111   1.370  -2.715  0.00  0.00    -0.392 OA
ATOM     34  H   UNL     1      -4.720   2.082  -2.955  0.00  0.00    +0.210 HD
ENDBRANCH  32  33
ENDBRANCH   2  32
TORSDOF 15
