REMARK  Name = ZINC58884127
REMARK  8 active torsions:
REMARK  status: ('A' for Active; 'I' for Inactive)
REMARK    1  A    between atoms: C_3  and  C_6
REMARK    2  A    between atoms: N_8  and  C_9
REMARK    3  A    between atoms: C_12  and  N_19
REMARK    4  A    between atoms: C_13  and  C_15
REMARK    5  A    between atoms: N_22  and  C_23
REMARK    6  A    between atoms: C_23  and  C_24
REMARK    7  A    between atoms: C_24  and  C_25
REMARK    8  A    between atoms: C_25  and  N_26
REMARK                            x       y       z     vdW  Elec       q    Type
REMARK                         _______ _______ _______ _____ _____    ______ ____
ROOT
ATOM      1  C   UNL     1       5.599  -0.635  -0.168  0.00  0.00    +0.034 A 
ATOM      2  C   UNL     1       6.375   0.516  -0.154  0.00  0.00    +0.025 A 
ATOM      3  C   UNL     1       7.749   0.424  -0.250  0.00  0.00    +0.026 A 
ATOM      4  C   UNL     1       8.355  -0.821  -0.361  0.00  0.00    +0.047 A 
ATOM      5  C   UNL     1       7.579  -1.972  -0.375  0.00  0.00    +0.078 A 
ATOM      6  C   UNL     1       6.205  -1.880  -0.272  0.00  0.00    +0.037 A 
ENDROOT
BRANCH   4   7
ATOM      7  N   UNL     1       9.750  -0.915  -0.459  0.00  0.00    -0.269 N 
ATOM      8  C   UNL     1      10.532  -0.042   0.207  0.00  0.00    +0.304 C 
ATOM      9  O   UNL     1      10.030   0.876   0.825  0.00  0.00    -0.253 OA
ATOM     10  N   UNL     1      11.872  -0.188   0.188  0.00  0.00    -0.299 N 
ATOM     11  H   UNL     1      10.152  -1.607  -1.005  0.00  0.00    +0.156 HD
ATOM     12  H   UNL     1      12.273  -0.920  -0.306  0.00  0.00    +0.150 HD
BRANCH  10  13
ATOM     13  C   UNL     1      12.723   0.761   0.911  0.00  0.00    +0.107 C 
BRANCH  13  14
ATOM     14  C   UNL     1      14.191   0.372   0.727  0.00  0.00    +0.040 C 
BRANCH  14  15
ATOM     15  C   UNL     1      15.079   1.362   1.483  0.00  0.00    +0.124 C 
BRANCH  15  16
ATOM     16  N   UNL     1      16.485   0.990   1.307  0.00  0.00    -0.338 N 
ATOM     17  C   UNL     1      17.207   0.143   2.105  0.00  0.00    +0.104 A 
ATOM     18  C   UNL     1      18.448   0.082   1.586  0.00  0.00    +0.101 A 
ATOM     19  N   UNL     1      18.483   0.870   0.500  0.00  0.00    -0.352 N 
ATOM     20  C   UNL     1      17.309   1.413   0.325  0.00  0.00    +0.173 A 
ATOM     21  H   UNL     1      19.257   1.011  -0.066  0.00  0.00    +0.166 HD
ENDBRANCH  15  16
ENDBRANCH  14  15
ENDBRANCH  13  14
ENDBRANCH  10  13
ENDBRANCH   4   7
BRANCH   1  24
ATOM     22  C   UNL     1       3.557   0.489  -0.647  0.00  0.00    +0.284 C 
ATOM     23  O   UNL     1       4.189   1.383  -1.181  0.00  0.00    -0.266 OA
ATOM     24  N   UNL     1       4.205  -0.542  -0.070  0.00  0.00    -0.279 N 
ATOM     25  H   UNL     1       3.706  -1.219   0.413  0.00  0.00    +0.155 HD
BRANCH  22  28
ATOM     26  C   UNL     1      -0.020   1.157  -0.931  0.00  0.00    +0.042 A 
ATOM     27  C   UNL     1       1.314   1.517  -1.177  0.00  0.00    +0.054 A 
ATOM     28  C   UNL     1       2.092   0.535  -0.632  0.00  0.00    +0.189 A 
ATOM     29  O   UNL     1       1.276  -0.385  -0.078  0.00  0.00    -0.458 OA
ATOM     30  C   UNL     1       0.001  -0.014  -0.256  0.00  0.00    +0.196 A 
ENDBRANCH  22  28
ENDBRANCH   1  24
BRANCH   5  31
ATOM     31  C   UNL     1       8.237  -3.323  -0.496  0.00  0.00    +0.419 C 
ATOM     32  F   UNL     1       7.257  -4.321  -0.487  0.00  0.00    -0.166 F 
ATOM     33  F   UNL     1       8.957  -3.385  -1.694  0.00  0.00    -0.166 F 
ATOM     34  F   UNL     1       9.108  -3.515   0.582  0.00  0.00    -0.166 F 
ENDBRANCH   5  31
TORSDOF 8
