REMARK  Name = ZINC02290147
REMARK  8 active torsions:
REMARK  status: ('A' for Active; 'I' for Inactive)
REMARK    1  A    between atoms: C_1  and  C_2
REMARK    2  A    between atoms: C_2  and  O_3
REMARK    3  A    between atoms: O_3  and  C_4
REMARK    4  A    between atoms: C_4  and  C_6
REMARK    5  A    between atoms: C_6  and  N_7
REMARK    6  A    between atoms: C_8  and  C_27
REMARK    7  A    between atoms: C_17  and  C_19
REMARK    8  A    between atoms: C_24  and  O_25
REMARK                            x       y       z     vdW  Elec       q    Type
REMARK                         _______ _______ _______ _____ _____    ______ ____
ROOT
ATOM      1  N   UNL     1       1.494  -3.928  -2.562  0.00  0.00    +0.409 N 
ATOM      2  C   UNL     1       2.334  -4.375  -3.678  0.00  0.00    -0.001 C 
ATOM      3  C   UNL     1       1.796  -3.856  -4.985  0.00  0.00    -0.035 A 
ATOM      4  C   UNL     1       2.631  -3.770  -6.084  0.00  0.00    +0.019 A 
ATOM      5  C   UNL     1       2.147  -3.296  -7.290  0.00  0.00    +0.018 A 
ATOM      6  C   UNL     1       0.824  -2.904  -7.403  0.00  0.00    +0.017 A 
ATOM      7  C   UNL     1      -0.016  -2.986  -6.310  0.00  0.00    +0.024 A 
ATOM      8  C   UNL     1       0.470  -3.462  -5.100  0.00  0.00    +0.028 A 
ATOM      9  N   UNL     1      -0.376  -3.544  -3.987  0.00  0.00    -0.353 N 
ATOM     10  C   UNL     1       0.094  -4.304  -2.818  0.00  0.00    +0.053 C 
ATOM     11 BR   UNL     1       3.295  -3.182  -8.787  0.00  0.00    -0.050 Br
ATOM     12  H   UNL     1      -1.245  -3.113  -3.986  0.00  0.00    +0.145 HD
ATOM     13  H   UNL     1       1.808  -4.365  -1.709  0.00  0.00    -0.076 HD
ENDROOT
BRANCH  10  14
ATOM     14  C   UNL     1      -0.752  -3.966  -1.617  0.00  0.00    -0.003 A 
ATOM     15  C   UNL     1      -1.431  -2.764  -1.566  0.00  0.00    +0.007 A 
ATOM     16  C   UNL     1      -2.207  -2.454  -0.465  0.00  0.00    +0.000 A 
ATOM     17  C   UNL     1      -2.305  -3.345   0.589  0.00  0.00    +0.004 A 
ATOM     18  C   UNL     1      -1.628  -4.548   0.542  0.00  0.00    +0.045 A 
ATOM     19  C   UNL     1      -0.853  -4.864  -0.565  0.00  0.00    +0.120 A 
BRANCH  19  20
ATOM     20  O   UNL     1      -0.190  -6.050  -0.616  0.00  0.00    -0.507 OA
ATOM     21  H   UNL     1       0.702  -6.018  -0.243  0.00  0.00    +0.292 HD
ENDBRANCH  19  20
ENDBRANCH  10  14
BRANCH   2  22
ATOM     22  C   UNL     1       2.354  -5.881  -3.713  0.00  0.00    -0.057 A 
ATOM     23  C   UNL     1       3.248  -6.579  -2.923  0.00  0.00    +0.002 A 
ATOM     24  C   UNL     1       3.267  -7.961  -2.955  0.00  0.00    +0.000 A 
ATOM     25  C   UNL     1       2.390  -8.645  -3.777  0.00  0.00    +0.000 A 
ATOM     26  C   UNL     1       1.496  -7.947  -4.567  0.00  0.00    +0.000 A 
ATOM     27  C   UNL     1       1.474  -6.566  -4.532  0.00  0.00    +0.002 A 
ENDBRANCH   2  22
BRANCH   1  28
ATOM     28  C   UNL     1       1.592  -2.468  -2.430  0.00  0.00    +0.048 C 
BRANCH  28  29
ATOM     29  C   UNL     1       2.989  -2.095  -2.007  0.00  0.00    +0.290 C 
ATOM     30  O   UNL     1       3.787  -2.959  -1.727  0.00  0.00    -0.253 OA
BRANCH  29  31
ATOM     31  O   UNL     1       3.348  -0.804  -1.942  0.00  0.00    -0.466 OA
BRANCH  31  33
ATOM     32  C   UNL     1       4.911   0.991  -1.519  0.00  0.00    +0.048 C 
ATOM     33  C   UNL     1       4.689  -0.523  -1.533  0.00  0.00    +0.228 C 
ENDBRANCH  31  33
ENDBRANCH  29  31
ENDBRANCH  28  29
ENDBRANCH   1  28
TORSDOF 7
