REMARK  Name = ZINC08790874
REMARK  6 active torsions:
REMARK  status: ('A' for Active; 'I' for Inactive)
REMARK    1  A    between atoms: C_1  and  C_2
REMARK    2  A    between atoms: C_2  and  C_3
REMARK    3  A    between atoms: C_17  and  C_19
REMARK    4  A    between atoms: C_19  and  C_20
REMARK    5  A    between atoms: N_25  and  C_28
REMARK    6  A    between atoms: C_28  and  C_29
REMARK                            x       y       z     vdW  Elec       q    Type
REMARK                         _______ _______ _______ _____ _____    ______ ____
ROOT
ATOM      1  C   UNL     1       4.201   4.875   1.959  0.00  0.00    -0.026 A 
ATOM      2  C   UNL     1       4.105   5.905   1.046  0.00  0.00    +0.005 A 
ATOM      3  C   UNL     1       3.091   5.914   0.106  0.00  0.00    +0.001 A 
ATOM      4  C   UNL     1       2.167   4.884   0.081  0.00  0.00    +0.004 A 
ATOM      5  C   UNL     1       2.258   3.854   0.990  0.00  0.00    -0.027 A 
ATOM      6  C   UNL     1       3.275   3.835   1.940  0.00  0.00    +0.039 A 
ATOM      7  N   UNL     1       3.161   2.700   2.747  0.00  0.00    -0.286 N 
ATOM      8  C   UNL     1       2.111   1.932   2.397  0.00  0.00    +0.211 C 
ATOM      9  O   UNL     1       1.770   0.892   2.919  0.00  0.00    -0.277 OA
ATOM     10  C   UNL     1       1.445   2.615   1.234  0.00  0.00    +0.050 C 
ATOM     11  C   UNL     1       1.412   1.708  -0.002  0.00  0.00    +0.088 C 
ATOM     12  C   UNL     1      -0.013   1.086   0.008  0.00  0.00    +0.073 C 
ATOM     13  C   UNL     1      -0.689   1.663   1.270  0.00  0.00    -0.049 C 
ATOM     14  C   UNL     1      -0.656   1.666  -1.231  0.00  0.00    +0.224 C 
ATOM     15  O   UNL     1      -1.789   1.445  -1.601  0.00  0.00    -0.275 OA
ATOM     16  N   UNL     1       0.220   2.461  -1.855  0.00  0.00    -0.237 N 
ATOM     17  C   UNL     1       1.412   2.555  -1.255  0.00  0.00    +0.225 C 
ATOM     18  O   UNL     1       2.346   3.217  -1.653  0.00  0.00    -0.275 OA
ATOM     19  H   UNL     1       3.768   2.490   3.474  0.00  0.00    +0.155 HD
ATOM     20  N   UNL     1       0.053   2.906   1.523  0.00  0.00    +0.394 N 
ATOM     21  H   UNL     1      -0.289   3.655   0.909  0.00  0.00    -0.083 HD
ATOM     22  H   UNL     1      -0.055   3.191   2.503  0.00  0.00    -0.083 HD
ENDROOT
BRANCH   1  24
ATOM     23  C   UNL     1       6.481   4.037   2.458  0.00  0.00    +0.009 C 
ATOM     24  C   UNL     1       5.311   4.875   2.978  0.00  0.00    +0.033 C 
ENDBRANCH   1  24
BRANCH  13  25
ATOM     25  C   UNL     1      -2.165   1.956   0.996  0.00  0.00    +0.080 C 
BRANCH  25  26
ATOM     26  C   UNL     1      -2.834   2.401   2.271  0.00  0.00    +0.209 C 
ATOM     27  O   UNL     1      -2.193   2.477   3.297  0.00  0.00    -0.276 OA
ATOM     28  N   UNL     1      -4.144   2.716   2.270  0.00  0.00    -0.329 N 
ATOM     29  H   UNL     1      -4.657   2.655   1.449  0.00  0.00    +0.145 HD
ATOM     30  H   UNL     1      -4.575   3.002   3.090  0.00  0.00    +0.145 HD
ENDBRANCH  25  26
ENDBRANCH  13  25
BRANCH  16  31
ATOM     31  C   UNL     1      -0.100   3.172  -3.096  0.00  0.00    +0.151 C 
BRANCH  31  32
ATOM     32  C   UNL     1       0.258   2.308  -4.277  0.00  0.00    -0.026 A 
ATOM     33  C   UNL     1      -0.678   1.438  -4.805  0.00  0.00    +0.009 A 
ATOM     34  C   UNL     1      -0.354   0.643  -5.888  0.00  0.00    +0.050 A 
ATOM     35  C   UNL     1       0.911   0.717  -6.449  0.00  0.00    +0.166 A 
ATOM     36  C   UNL     1       1.854   1.593  -5.917  0.00  0.00    +0.167 A 
ATOM     37  C   UNL     1       1.521   2.390  -4.834  0.00  0.00    +0.054 A 
ATOM     38  O   UNL     1       3.009   1.480  -6.636  0.00  0.00    -0.453 OA
ATOM     39  C   UNL     1       2.895   0.236  -7.353  0.00  0.00    +0.466 C 
ATOM     40  O   UNL     1       1.474   0.055  -7.501  0.00  0.00    -0.453 OA
ENDBRANCH  31  32
ENDBRANCH  16  31
TORSDOF 5
