REMARK  Name = ZINC59399021
REMARK  5 active torsions:
REMARK  status: ('A' for Active; 'I' for Inactive)
REMARK    1  A    between atoms: C_5  and  C_7
REMARK    2  A    between atoms: C_7  and  O_9
REMARK    3  A    between atoms: O_9  and  C_10
REMARK    4  A    between atoms: C_13  and  C_16
REMARK    5  A    between atoms: N_17  and  N_18
REMARK                            x       y       z     vdW  Elec       q    Type
REMARK                         _______ _______ _______ _____ _____    ______ ____
ROOT
ATOM      1  C   UNL     1       0.070  -4.213  -0.056  0.00  0.00    +0.132 A 
ATOM      2  C   UNL     1       1.260  -4.929  -0.029  0.00  0.00    +0.047 A 
ATOM      3  C   UNL     1       1.239  -6.306  -0.071  0.00  0.00    +0.013 A 
ATOM      4  C   UNL     1       0.017  -6.982  -0.140  0.00  0.00    -0.005 A 
ATOM      5  C   UNL     1      -1.179  -6.256  -0.167  0.00  0.00    +0.013 A 
ATOM      6  C   UNL     1      -1.147  -4.880  -0.119  0.00  0.00    +0.047 A 
ENDROOT
BRANCH   4   7
ATOM      7  C   UNL     1      -0.012  -8.453  -0.186  0.00  0.00    +0.140 C 
ATOM      8  N   UNL     1      -1.154  -9.082  -0.251  0.00  0.00    -0.179 NA
BRANCH   8   9
ATOM      9  N   UNL     1      -1.179 -10.371  -0.290  0.00  0.00    -0.249 N 
ATOM     10  C   UNL     1      -2.332 -11.005  -0.356  0.00  0.00    +0.187 C 
ATOM     11  N   UNL     1      -3.505 -10.295  -0.382  0.00  0.00    -0.370 N 
ATOM     12  N   UNL     1      -2.358 -12.377  -0.399  0.00  0.00    -0.370 N 
ATOM     13  H   UNL     1      -3.486  -9.326  -0.351  0.00  0.00    +0.159 HD
ATOM     14  H   UNL     1      -4.354 -10.763  -0.430  0.00  0.00    +0.159 HD
ATOM     15  H   UNL     1      -1.528 -12.879  -0.380  0.00  0.00    +0.159 HD
ATOM     16  H   UNL     1      -3.207 -12.844  -0.447  0.00  0.00    +0.159 HD
ATOM     17  H   UNL     1      -0.349 -10.873  -0.272  0.00  0.00    +0.192 HD
ENDBRANCH   8   9
ENDBRANCH   4   7
BRANCH   1  18
ATOM     18  O   UNL     1       0.097  -2.855  -0.014  0.00  0.00    -0.422 OA
BRANCH  18  19
ATOM     19  C   UNL     1       0.419  -2.194  -1.143  0.00  0.00    +0.346 C 
ATOM     20  O   UNL     1       0.762  -2.811  -2.132  0.00  0.00    -0.244 OA
BRANCH  19  25
ATOM     21  C   UNL     1      -0.096   1.371  -0.085  0.00  0.00    +0.001 A 
ATOM     22  C   UNL     1       0.236   2.048  -1.246  0.00  0.00    +0.001 A 
ATOM     23  C   UNL     1       0.628   1.349  -2.374  0.00  0.00    +0.016 A 
ATOM     24  C   UNL     1       0.690  -0.030  -2.348  0.00  0.00    +0.032 A 
ATOM     25  C   UNL     1       0.356  -0.719  -1.179  0.00  0.00    +0.073 A 
ATOM     26  C   UNL     1      -0.039  -0.006  -0.045  0.00  0.00    +0.016 A 
ATOM     27 BR   UNL     1       1.224  -0.984  -3.891  0.00  0.00    -0.049 Br
ENDBRANCH  19  25
ENDBRANCH  18  19
ENDBRANCH   1  18
TORSDOF 5
