REMARK  Name = ZINC62099744
REMARK  7 active torsions:
REMARK  status: ('A' for Active; 'I' for Inactive)
REMARK    1  A    between atoms: C_1  and  C_2
REMARK    2  A    between atoms: C_2  and  C_3
REMARK    3  A    between atoms: C_3  and  C_5
REMARK    4  A    between atoms: C_3  and  N_21
REMARK    5  A    between atoms: C_5  and  C_7
REMARK    6  A    between atoms: C_5  and  N_13
REMARK    7  A    between atoms: C_8  and  C_12
REMARK                            x       y       z     vdW  Elec       q    Type
REMARK                         _______ _______ _______ _____ _____    ______ ____
ROOT
ATOM      1  C   UNL     1       0.739  -2.027  -1.265  0.00  0.00    +0.079 C 
ENDROOT
BRANCH   1   2
ATOM      2  N   UNL     1      -0.639  -2.536  -1.255  0.00  0.00    -0.295 NA
ATOM      3  C   UNL     1      -0.672  -3.947  -0.897  0.00  0.00    +0.094 C 
ATOM      4  C   UNL     1      -2.089  -4.371  -0.499  0.00  0.00    +0.111 C 
ATOM      5  C   UNL     1      -2.859  -4.705  -1.760  0.00  0.00    +0.214 C 
ATOM      6  O   UNL     1      -3.158  -5.856  -2.002  0.00  0.00    -0.276 OA
ATOM      7  N   UNL     1      -3.209  -3.731  -2.605  0.00  0.00    -0.314 N 
ATOM      8  C   UNL     1      -2.851  -2.333  -2.309  0.00  0.00    +0.119 C 
ATOM      9  C   UNL     1      -1.339  -2.171  -2.478  0.00  0.00    +0.103 C 
ATOM     10  H   UNL     1      -3.699  -3.945  -3.414  0.00  0.00    +0.149 HD
ENDBRANCH   1   2
BRANCH   1  11
ATOM     11  C   UNL     1       1.432  -2.428   0.012  0.00  0.00    +0.008 A 
ATOM     12  C   UNL     1       2.676  -2.937   0.184  0.00  0.00    -0.039 A 
ATOM     13  C   UNL     1       3.108  -3.233   1.464  0.00  0.00    +0.011 A 
ATOM     14  C   UNL     1       2.274  -3.006   2.508  0.00  0.00    +0.046 A 
ATOM     15  S   UNL     1       0.829  -2.348   1.690  0.00  0.00    -0.100 S 
ATOM     16  C   UNL     1       3.576  -3.176  -1.001  0.00  0.00    +0.044 C 
ENDBRANCH   1  11
BRANCH   1  17
ATOM     17  C   UNL     1       0.719  -0.502  -1.378  0.00  0.00    -0.053 C 
BRANCH  17  18
ATOM     18  N   UNL     1       2.088   0.017  -1.255  0.00  0.00    +0.381 N 
ATOM     19  H   UNL     1       2.660  -0.367  -1.992  0.00  0.00    -0.090 HD
ATOM     20  H   UNL     1       2.075   1.023  -1.329  0.00  0.00    -0.090 HD
ATOM     21  H   UNL     1       2.469  -0.250  -0.360  0.00  0.00    -0.090 HD
ENDBRANCH  17  18
BRANCH  17  23
ATOM     22  C   UNL     1      -0.274   1.594  -0.448  0.00  0.00    +0.002 C 
ATOM     23  C   UNL     1      -0.149   0.081  -0.260  0.00  0.00    -0.018 C 
ENDBRANCH  17  23
ENDBRANCH   1  17
TORSDOF 5
