REMARK  Name = ZINC12290233
REMARK  11 active torsions:
REMARK  status: ('A' for Active; 'I' for Inactive)
REMARK    1  A    between atoms: C_1  and  C_2
REMARK    2  A    between atoms: C_2  and  C_3
REMARK    3  A    between atoms: C_5  and  C_17
REMARK    4  A    between atoms: C_6  and  N_8
REMARK    5  A    between atoms: C_9  and  C_11
REMARK    6  A    between atoms: C_17  and  C_19
REMARK    7  A    between atoms: C_17  and  N_66
REMARK    8  A    between atoms: C_28  and  C_31
REMARK    9  A    between atoms: C_31  and  O_33
REMARK   10  A    between atoms: O_33  and  C_34
REMARK   11  A    between atoms: C_34  and  C_35
REMARK                            x       y       z     vdW  Elec       q    Type
REMARK                         _______ _______ _______ _____ _____    ______ ____
ROOT
ATOM      1  C   UNL     1       7.564   1.327  -0.077  0.00  0.00    -0.004 C 
ENDROOT
BRANCH   1   2
ATOM      2  C   UNL     1       7.380   1.862  -1.474  0.00  0.00    -0.056 A 
ATOM      3  C   UNL     1       8.400   1.744  -2.399  0.00  0.00    +0.005 A 
ATOM      4  C   UNL     1       8.230   2.229  -3.682  0.00  0.00    +0.038 A 
ATOM      5  C   UNL     1       7.042   2.843  -4.037  0.00  0.00    +0.123 A 
ATOM      6  C   UNL     1       6.022   2.966  -3.108  0.00  0.00    +0.038 A 
ATOM      7  C   UNL     1       6.192   2.475  -1.828  0.00  0.00    +0.005 A 
ATOM      8  F   UNL     1       6.876   3.323  -5.289  0.00  0.00    -0.205 F 
ENDBRANCH   1   2
BRANCH   1  14
ATOM      9  C   UNL     1       9.179   1.020   1.700  0.00  0.00    -0.077 C 
ATOM     10  C   UNL     1      10.649   1.212   2.079  0.00  0.00    -0.004 C 
ATOM     11  C   UNL     1      10.973   2.709   2.103  0.00  0.00    +0.094 C 
ATOM     12  C   UNL     1      10.660   3.313   0.731  0.00  0.00    -0.004 C 
ATOM     13  C   UNL     1       9.190   3.059   0.391  0.00  0.00    -0.077 C 
ATOM     14  N   UNL     1       8.949   1.601   0.360  0.00  0.00    +0.387 N 
ATOM     15  H   UNL     1       9.601   1.170  -0.306  0.00  0.00    -0.080 HD
BRANCH  11  16
ATOM     16  C   UNL     1      12.434   2.904   2.417  0.00  0.00    +0.310 C 
ATOM     17  O   UNL     1      13.152   3.468   1.626  0.00  0.00    -0.251 OA
BRANCH  16  18
ATOM     18  O   UNL     1      12.938   2.451   3.576  0.00  0.00    -0.465 OA
BRANCH  18  19
ATOM     19  C   UNL     1      14.353   2.674   3.812  0.00  0.00    +0.229 C 
ATOM     20  C   UNL     1      14.741   2.093   5.174  0.00  0.00    +0.048 C 
ENDBRANCH  18  19
ENDBRANCH  16  18
ENDBRANCH  11  16
ENDBRANCH   1  14
BRANCH   1  23
ATOM     21  C   UNL     1       8.165  -2.372  -0.090  0.00  0.00    -0.008 A 
ATOM     22  C   UNL     1       8.406  -1.038  -0.084  0.00  0.00    +0.015 A 
ATOM     23  C   UNL     1       7.336  -0.162  -0.075  0.00  0.00    -0.028 A 
ATOM     24  C   UNL     1       6.072  -0.670  -0.060  0.00  0.00    +0.074 A 
ATOM     25  S   UNL     1       6.381  -2.428  -0.073  0.00  0.00    -0.078 S 
BRANCH  24  26
ATOM     26  N   UNL     1       4.851   0.008  -0.045  0.00  0.00    -0.276 N 
ATOM     27  C   UNL     1       3.695  -0.684  -0.037  0.00  0.00    +0.249 C 
ATOM     28  O   UNL     1       3.715  -1.900  -0.044  0.00  0.00    -0.270 OA
ATOM     29  H   UNL     1       4.836   0.978  -0.040  0.00  0.00    +0.156 HD
BRANCH  27  30
ATOM     30  C   UNL     1       2.404   0.034  -0.021  0.00  0.00    +0.037 A 
ATOM     31  C   UNL     1       1.204  -0.681  -0.014  0.00  0.00    +0.013 A 
ATOM     32  C   UNL     1       0.002  -0.004   0.002  0.00  0.00    +0.001 A 
ATOM     33  C   UNL     1      -0.017   1.379   0.010  0.00  0.00    +0.000 A 
ATOM     34  C   UNL     1       1.168   2.094   0.002  0.00  0.00    +0.001 A 
ATOM     35  C   UNL     1       2.377   1.429  -0.013  0.00  0.00    +0.013 A 
ENDBRANCH  27  30
ENDBRANCH  24  26
BRANCH  21  37
ATOM     36  C   UNL     1       9.496  -3.907   1.332  0.00  0.00    +0.009 C 
ATOM     37  C   UNL     1       9.149  -3.513  -0.105  0.00  0.00    +0.039 C 
ENDBRANCH  21  37
ENDBRANCH   1  23
TORSDOF 9
