REMARK  Name = ZINC41584819
REMARK  8 active torsions:
REMARK  status: ('A' for Active; 'I' for Inactive)
REMARK    1  A    between atoms: C_1  and  C_2
REMARK    2  A    between atoms: C_3  and  O_31
REMARK    3  A    between atoms: C_9  and  O_30
REMARK    4  A    between atoms: C_10  and  C_13
REMARK    5  A    between atoms: C_13  and  N_14
REMARK    6  A    between atoms: O_31  and  C_32
REMARK    7  A    between atoms: C_35  and  O_38
REMARK    8  A    between atoms: O_38  and  C_39
REMARK                            x       y       z     vdW  Elec       q    Type
REMARK                         _______ _______ _______ _____ _____    ______ ____
ROOT
ATOM      1  C   UNL     1      -0.020   1.482  -0.113  0.00  0.00    +0.090 C 
ATOM      2  C   UNL     1      -0.005  -0.024  -0.060  0.00  0.00    +0.148 A 
ATOM      3  C   UNL     1      -1.173  -0.676   0.104  0.00  0.00    +0.213 A 
ATOM      4  C   UNL     1      -1.182  -2.099   0.156  0.00  0.00    +0.235 A 
ATOM      5  O   UNL     1      -2.220  -2.723   0.303  0.00  0.00    -0.283 OA
ATOM      6  C   UNL     1       0.114  -2.786   0.025  0.00  0.00    +0.068 A 
ATOM      7  C   UNL     1       0.207  -4.178   0.064  0.00  0.00    +0.019 A 
ATOM      8  C   UNL     1       1.427  -4.779  -0.061  0.00  0.00    +0.046 A 
ATOM      9  C   UNL     1       2.577  -4.011  -0.227  0.00  0.00    +0.122 A 
ATOM     10  C   UNL     1       2.502  -2.629  -0.268  0.00  0.00    +0.020 A 
ATOM     11  C   UNL     1       1.270  -2.003  -0.142  0.00  0.00    +0.144 A 
ATOM     12  O   UNL     1       1.168  -0.659  -0.184  0.00  0.00    -0.456 OA
ENDROOT
BRANCH   9  13
ATOM     13  O   UNL     1       3.783  -4.623  -0.350  0.00  0.00    -0.506 OA
ATOM     14  H   UNL     1       4.027  -4.832  -1.262  0.00  0.00    +0.292 HD
ENDBRANCH   9  13
BRANCH  10  15
ATOM     15  C   UNL     1       3.753  -1.809  -0.448  0.00  0.00    -0.036 C 
BRANCH  15  16
ATOM     16  N   UNL     1       3.995  -1.591  -1.880  0.00  0.00    +0.383 N 
ATOM     17  C   UNL     1       5.137  -0.688  -2.050  0.00  0.00    -0.073 C 
ATOM     18  C   UNL     1       5.425  -0.437  -3.523  0.00  0.00    -0.007 C 
ATOM     19  C   UNL     1       5.658  -1.758  -4.262  0.00  0.00    +0.011 C 
ATOM     20  C   UNL     1       4.419  -2.633  -4.040  0.00  0.00    +0.020 C 
ATOM     21  C   UNL     1       4.278  -2.880  -2.529  0.00  0.00    -0.069 C 
ATOM     22  C   UNL     1       3.193  -1.881  -4.507  0.00  0.00    +0.023 A 
ATOM     23  C   UNL     1       2.140  -2.614  -4.955  0.00  0.00    +0.022 A 
ATOM     24  C   UNL     1       0.951  -1.986  -5.342  0.00  0.00    +0.007 A 
ATOM     25  C   UNL     1       0.858  -0.629  -5.237  0.00  0.00    +0.070 A 
ATOM     26  C   UNL     1       1.961   0.096  -4.766  0.00  0.00    +0.251 A 
ATOM     27  O   UNL     1       1.868   1.303  -4.609  0.00  0.00    -0.268 OA
ATOM     28  N   UNL     1       3.130  -0.530  -4.484  0.00  0.00    -0.312 N 
ATOM     29  C   UNL     1       4.289   0.312  -4.200  0.00  0.00    +0.126 C 
ATOM     30  H   UNL     1       3.176  -1.178  -2.299  0.00  0.00    -0.081 HD
ENDBRANCH  15  16
ENDBRANCH  10  15
BRANCH   3  31
ATOM     31  O   UNL     1      -2.337   0.021   0.219  0.00  0.00    -0.449 OA
BRANCH  31  32
ATOM     32  C   UNL     1      -2.987  -0.016   1.412  0.00  0.00    +0.129 A 
ATOM     33  C   UNL     1      -2.405  -0.647   2.501  0.00  0.00    +0.050 A 
ATOM     34  C   UNL     1      -3.066  -0.685   3.713  0.00  0.00    +0.049 A 
ATOM     35  C   UNL     1      -4.313  -0.092   3.841  0.00  0.00    +0.120 A 
ATOM     36  C   UNL     1      -4.896   0.539   2.752  0.00  0.00    +0.049 A 
ATOM     37  C   UNL     1      -4.232   0.583   1.542  0.00  0.00    +0.050 A 
BRANCH  35  38
ATOM     38  O   UNL     1      -4.965  -0.130   5.034  0.00  0.00    -0.495 OA
ATOM     39  C   UNL     1      -6.245   0.501   5.094  0.00  0.00    +0.277 C 
ENDBRANCH  35  38
ENDBRANCH  31  32
ENDBRANCH   3  31
TORSDOF 6
