REMARK  Name = ZINC12483133
REMARK  7 active torsions:
REMARK  status: ('A' for Active; 'I' for Inactive)
REMARK    1  A    between atoms: C_1  and  C_2
REMARK    2  A    between atoms: N_7  and  C_10
REMARK    3  A    between atoms: C_12  and  O_32
REMARK    4  A    between atoms: C_14  and  N_23
REMARK    5  A    between atoms: N_23  and  C_24
REMARK    6  A    between atoms: C_24  and  C_25
REMARK    7  A    between atoms: C_30  and  O_31
REMARK                            x       y       z     vdW  Elec       q    Type
REMARK                         _______ _______ _______ _____ _____    ______ ____
ROOT
ATOM      1  C   UNL     1       2.064   4.596   4.847  0.00  0.00    +0.140 C 
ATOM      2  C   UNL     1       3.567   4.529   4.555  0.00  0.00    +0.125 C 
ATOM      3  C   UNL     1       4.183   3.369   5.351  0.00  0.00    -0.009 C 
ATOM      4  C   UNL     1       3.774   3.514   6.826  0.00  0.00    +0.136 C 
ATOM      5  C   UNL     1       3.966   4.997   7.224  0.00  0.00    +0.193 C 
ATOM      6  O   UNL     1       2.705   5.625   6.932  0.00  0.00    -0.347 OA
ATOM      7  C   UNL     1       1.852   4.612   6.368  0.00  0.00    +0.270 C 
ATOM      8  O   UNL     1       2.335   3.353   6.888  0.00  0.00    -0.346 OA
ENDROOT
BRANCH   1  15
ATOM      9  C   UNL     1      -2.763   1.586   2.286  0.00  0.00    +0.109 C 
ATOM     10  C   UNL     1      -1.325   1.616   1.834  0.00  0.00    +0.213 C 
ATOM     11  O   UNL     1      -1.048   1.384   0.676  0.00  0.00    -0.276 OA
ATOM     12  N   UNL     1      -0.347   1.901   2.717  0.00  0.00    -0.299 N 
ATOM     13  C   UNL     1       1.050   2.033   2.279  0.00  0.00    +0.123 C 
ATOM     14  C   UNL     1       1.601   3.364   2.815  0.00  0.00    +0.104 C 
ATOM     15  N   UNL     1       1.398   3.421   4.268  0.00  0.00    -0.290 NA
ATOM     16  C   UNL     1      -0.031   3.406   4.609  0.00  0.00    +0.104 C 
ATOM     17  C   UNL     1      -0.649   2.083   4.145  0.00  0.00    +0.123 C 
ENDBRANCH   1  15
BRANCH   3  18
ATOM     18  N   UNL     1       3.689   2.089   4.825  0.00  0.00    +0.387 N 
ATOM     19  H   UNL     1       2.734   1.839   5.309  0.00  0.00    -0.085 HD
ATOM     20  H   UNL     1       3.539   2.172   3.739  0.00  0.00    -0.085 HD
BRANCH  18  21
ATOM     21  C   UNL     1       4.648   1.008   5.087  0.00  0.00    -0.042 C 
BRANCH  21  22
ATOM     22  C   UNL     1       4.108  -0.287   4.535  0.00  0.00    -0.023 A 
ATOM     23  C   UNL     1       3.507  -1.201   5.379  0.00  0.00    +0.005 A 
ATOM     24  C   UNL     1       3.007  -2.386   4.872  0.00  0.00    +0.000 A 
ATOM     25  C   UNL     1       3.117  -2.664   3.522  0.00  0.00    +0.004 A 
ATOM     26  C   UNL     1       3.721  -1.756   2.675  0.00  0.00    +0.045 A 
ATOM     27  C   UNL     1       4.219  -0.563   3.180  0.00  0.00    +0.118 A 
BRANCH  27  28
ATOM     28  O   UNL     1       4.815   0.332   2.349  0.00  0.00    -0.507 OA
ATOM     29  H   UNL     1       4.902   0.111   1.275  0.00  0.00    +0.292 HD
ENDBRANCH  27  28
ENDBRANCH  21  22
ENDBRANCH  18  21
ENDBRANCH   3  18
BRANCH   2  30
ATOM     30  O   UNL     1       4.184   5.757   4.948  0.00  0.00    -0.392 OA
ATOM     31  H   UNL     1       5.267   5.896   4.814  0.00  0.00    +0.210 HD
ENDBRANCH   2  30
TORSDOF 6
