REMARK  Name = ZINC61501300
REMARK  10 active torsions:
REMARK  status: ('A' for Active; 'I' for Inactive)
REMARK    1  A    between atoms: C_1  and  C_2
REMARK    2  A    between atoms: C_2  and  C_3
REMARK    3  A    between atoms: C_2  and  O_4
REMARK    4  A    between atoms: O_4  and  C_5
REMARK    5  A    between atoms: C_10  and  N_11
REMARK    6  A    between atoms: N_14  and  C_15
REMARK    7  A    between atoms: C_17  and  C_23
REMARK    8  A    between atoms: C_17  and  C_24
REMARK    9  A    between atoms: C_19  and  C_21
REMARK   10  A    between atoms: C_19  and  C_22
REMARK                            x       y       z     vdW  Elec       q    Type
REMARK                         _______ _______ _______ _____ _____    ______ ____
ROOT
ATOM      1  N   UNL     1       1.956  -1.235   3.433  0.00  0.00    -0.266 N 
ATOM      2  C   UNL     1       2.539  -1.694   4.558  0.00  0.00    +0.304 C 
ATOM      3  O   UNL     1       1.883  -1.824   5.573  0.00  0.00    -0.252 OA
ATOM      4  N   UNL     1       3.850  -2.009   4.557  0.00  0.00    -0.296 N 
ATOM      5  H   UNL     1       2.491  -1.077   2.639  0.00  0.00    +0.156 HD
ATOM      6  H   UNL     1       4.373  -1.906   3.747  0.00  0.00    +0.151 HD
ENDROOT
BRANCH   4   7
ATOM      7  C   UNL     1       4.485  -2.510   5.783  0.00  0.00    +0.072 C 
ATOM      8  C   UNL     1       4.306  -4.027   5.858  0.00  0.00    +0.009 C 
ATOM      9  C   UNL     1       4.973  -4.565   7.124  0.00  0.00    -0.072 C 
ATOM     10  N   UNL     1       6.368  -4.163   7.221  0.00  0.00    +0.386 N 
ATOM     11  C   UNL     1       6.689  -2.768   6.963  0.00  0.00    -0.072 C 
ATOM     12  C   UNL     1       5.982  -2.206   5.734  0.00  0.00    +0.009 C 
ATOM     13  C   UNL     1       6.400  -1.886   8.181  0.00  0.00    -0.010 C 
ATOM     14  C   UNL     1       8.210  -2.683   6.696  0.00  0.00    -0.010 C 
ATOM     15  C   UNL     1       4.936  -6.109   7.040  0.00  0.00    -0.010 C 
ATOM     16  C   UNL     1       4.169  -4.159   8.358  0.00  0.00    -0.010 C 
ATOM     17  H   UNL     1       6.707  -4.404   8.155  0.00  0.00    -0.084 HD
ATOM     18  H   UNL     1       6.915  -4.742   6.579  0.00  0.00    -0.084 HD
ENDBRANCH   4   7
BRANCH   1  24
ATOM     19  C   UNL     1      -0.153  -1.204   2.244  0.00  0.00    +0.142 A 
ATOM     20  C   UNL     1      -1.517  -0.961   2.229  0.00  0.00    +0.047 A 
ATOM     21  C   UNL     1      -2.149  -0.497   3.367  0.00  0.00    +0.004 A 
ATOM     22  C   UNL     1      -1.424  -0.274   4.523  0.00  0.00    +0.002 A 
ATOM     23  C   UNL     1      -0.063  -0.514   4.546  0.00  0.00    +0.027 A 
ATOM     24  C   UNL     1       0.577  -0.985   3.410  0.00  0.00    +0.077 A 
BRANCH  19  25
ATOM     25  O   UNL     1       0.471  -1.660   1.125  0.00  0.00    -0.488 OA
BRANCH  25  27
ATOM     26  C   UNL     1      -0.394  -0.422  -0.762  0.00  0.00    +0.051 C 
ATOM     27  C   UNL     1      -0.323  -1.778  -0.058  0.00  0.00    +0.167 C 
ATOM     28  C   UNL     1       0.310  -2.808  -0.996  0.00  0.00    +0.051 C 
ENDBRANCH  25  27
ENDBRANCH  19  25
ENDBRANCH   1  24
TORSDOF 4
