REMARK  Name = ZINC36005486
REMARK  12 active torsions:
REMARK  status: ('A' for Active; 'I' for Inactive)
REMARK    1  A    between atoms: C_1  and  C_2
REMARK    2  A    between atoms: C_2  and  N_3
REMARK    3  A    between atoms: C_4  and  C_23
REMARK    4  A    between atoms: C_5  and  C_18
REMARK    5  A    between atoms: C_6  and  C_11
REMARK    6  A    between atoms: C_18  and  O_20
REMARK    7  A    between atoms: O_20  and  C_21
REMARK    8  A    between atoms: C_21  and  C_22
REMARK    9  A    between atoms: C_23  and  N_24
REMARK   10  A    between atoms: N_33  and  C_34
REMARK   11  A    between atoms: C_34  and  C_35
REMARK   12  A    between atoms: C_34  and  C_36
REMARK                            x       y       z     vdW  Elec       q    Type
REMARK                         _______ _______ _______ _____ _____    ______ ____
ROOT
ATOM      1  N   UNL     1      -1.411  -0.128  -0.236  0.00  0.00    -0.261 N 
ATOM      2  C   UNL     1      -2.044  -0.583   0.886  0.00  0.00    +0.010 C 
ATOM      3  C   UNL     1      -3.210  -1.259   0.802  0.00  0.00    +0.077 C 
ATOM      4  C   UNL     1      -3.791  -1.496  -0.577  0.00  0.00    +0.145 C 
ATOM      5  N   UNL     1      -3.031  -0.965  -1.721  0.00  0.00    -0.288 N 
ATOM      6  C   UNL     1      -1.881  -0.305  -1.477  0.00  0.00    +0.307 C 
ATOM      7  O   UNL     1      -1.249   0.140  -2.414  0.00  0.00    -0.252 OA
ATOM      8  H   UNL     1      -3.351  -1.085  -2.629  0.00  0.00    +0.151 HD
ENDROOT
BRANCH   4   9
ATOM      9  C   UNL     1      -5.168  -0.886  -0.612  0.00  0.00    -0.004 A 
ATOM     10  C   UNL     1      -5.336   0.418  -1.039  0.00  0.00    +0.007 A 
ATOM     11  C   UNL     1      -6.600   0.977  -1.071  0.00  0.00    +0.000 A 
ATOM     12  C   UNL     1      -7.696   0.233  -0.677  0.00  0.00    +0.001 A 
ATOM     13  C   UNL     1      -7.530  -1.071  -0.250  0.00  0.00    +0.020 A 
ATOM     14  C   UNL     1      -6.266  -1.633  -0.223  0.00  0.00    +0.046 A 
ATOM     15 CL   UNL     1      -6.056  -3.273   0.307  0.00  0.00    -0.083 Cl
ENDBRANCH   4   9
BRANCH   1  17
ATOM     16  C   UNL     1      -0.430   2.102  -0.022  0.00  0.00    +0.025 C 
ATOM     17  C   UNL     1      -0.150   0.598  -0.071  0.00  0.00    +0.111 C 
ENDBRANCH   1  17
BRANCH   3  18
ATOM     18  C   UNL     1      -3.866  -1.731   1.963  0.00  0.00    +0.339 C 
ATOM     19  O   UNL     1      -3.716  -2.885   2.321  0.00  0.00    -0.245 OA
BRANCH  18  20
ATOM     20  O   UNL     1      -4.660  -0.903   2.673  0.00  0.00    -0.462 OA
BRANCH  20  21
ATOM     21  C   UNL     1      -5.202  -1.411   3.894  0.00  0.00    +0.229 C 
ATOM     22  C   UNL     1      -6.164  -0.384   4.492  0.00  0.00    +0.048 C 
ENDBRANCH  20  21
ENDBRANCH  18  20
ENDBRANCH   3  18
BRANCH   2  23
ATOM     23  C   UNL     1      -1.432  -0.325   2.238  0.00  0.00    -0.026 C 
BRANCH  23  24
ATOM     24  N   UNL     1      -0.674  -1.509   2.666  0.00  0.00    +0.384 N 
ATOM     25  C   UNL     1      -0.319  -1.345   4.074  0.00  0.00    -0.077 C 
ATOM     26  C   UNL     1      -0.217  -2.706   4.725  0.00  0.00    +0.000 C 
ATOM     27  C   UNL     1       1.244  -3.190   4.674  0.00  0.00    +0.107 C 
ATOM     28  N   UNL     1       1.872  -2.849   3.382  0.00  0.00    -0.287 N 
ATOM     29  C   UNL     1       1.173  -2.987   2.120  0.00  0.00    +0.091 C 
ATOM     30  C   UNL     1       0.422  -1.677   1.791  0.00  0.00    -0.059 C 
ATOM     31  C   UNL     1       3.140  -2.393   3.376  0.00  0.00    +0.302 C 
ATOM     32  O   UNL     1       3.777  -2.353   4.411  0.00  0.00    -0.253 OA
ATOM     33  N   UNL     1       3.702  -1.980   2.223  0.00  0.00    -0.297 N 
ATOM     34  H   UNL     1       3.173  -1.943   1.411  0.00  0.00    +0.150 HD
ATOM     35  H   UNL     1      -1.274  -2.316   2.584  0.00  0.00    -0.081 HD
BRANCH  33  36
ATOM     36  C   UNL     1       5.114  -1.588   2.195  0.00  0.00    +0.068 C 
ATOM     37  C   UNL     1       5.665  -1.766   0.779  0.00  0.00    +0.027 C 
ATOM     38  C   UNL     1       5.243  -0.121   2.612  0.00  0.00    +0.027 C 
ENDBRANCH  33  36
ENDBRANCH  23  24
ENDBRANCH   2  23
TORSDOF 8
