REMARK  Name = ZINC37287761
REMARK  3 active torsions:
REMARK  status: ('A' for Active; 'I' for Inactive)
REMARK    1  A    between atoms: C_6  and  C_7
REMARK    2  A    between atoms: C_7  and  C_9
REMARK    3  A    between atoms: C_7  and  N_17
REMARK                            x       y       z     vdW  Elec       q    Type
REMARK                         _______ _______ _______ _____ _____    ______ ____
ROOT
ATOM      1  C   UNL     1      -1.294  -0.774   0.011  0.00  0.00    -0.012 C 
ENDROOT
BRANCH   1   7
ATOM      2  C   UNL     1      -0.017   1.378   0.010  0.00  0.00    +0.004 A 
ATOM      3  C   UNL     1       1.169   2.087   0.002  0.00  0.00    +0.024 A 
ATOM      4  C   UNL     1       2.380   1.409  -0.013  0.00  0.00    +0.037 A 
ATOM      5  C   UNL     1       2.396   0.020  -0.020  0.00  0.00    -0.025 A 
ATOM      6  C   UNL     1       1.208  -0.682  -0.013  0.00  0.00    +0.007 A 
ATOM      7  C   UNL     1       0.002  -0.004   0.002  0.00  0.00    -0.057 A 
ATOM      8  C   UNL     1       3.711  -0.715  -0.036  0.00  0.00    +0.046 C 
ATOM      9  C   UNL     1       4.733   0.084  -0.846  0.00  0.00    +0.101 C 
ATOM     10  C   UNL     1       4.727   1.522  -0.402  0.00  0.00    +0.218 C 
ATOM     11  O   UNL     1       5.766   2.148  -0.389  0.00  0.00    -0.275 OA
ATOM     12  N   UNL     1       3.584   2.120  -0.020  0.00  0.00    -0.285 N 
ATOM     13  H   UNL     1       3.595   3.051   0.251  0.00  0.00    +0.155 HD
ENDBRANCH   1   7
BRANCH   1  14
ATOM     14  C   UNL     1      -1.838  -0.825   1.415  0.00  0.00    -0.038 A 
ATOM     15  C   UNL     1      -2.849   0.036   1.797  0.00  0.00    +0.019 A 
ATOM     16  C   UNL     1      -3.348  -0.011   3.086  0.00  0.00    +0.018 A 
ATOM     17  C   UNL     1      -2.835  -0.921   3.993  0.00  0.00    +0.017 A 
ATOM     18  C   UNL     1      -1.825  -1.782   3.612  0.00  0.00    +0.021 A 
ATOM     19  C   UNL     1      -1.329  -1.739   2.321  0.00  0.00    +0.043 A 
ATOM     20 CL   UNL     1      -0.064  -2.827   1.839  0.00  0.00    -0.083 Cl
ATOM     21 BR   UNL     1      -4.732   1.167   3.608  0.00  0.00    -0.050 Br
ENDBRANCH   1  14
BRANCH   1  22
ATOM     22  N   UNL     1      -2.265  -0.107  -0.867  0.00  0.00    +0.385 N 
ATOM     23  H   UNL     1      -1.901  -0.072  -1.807  0.00  0.00    -0.089 HD
ATOM     24  H   UNL     1      -3.133  -0.622  -0.861  0.00  0.00    -0.089 HD
ATOM     25  H   UNL     1      -2.429   0.832  -0.534  0.00  0.00    -0.089 HD
ENDBRANCH   1  22
TORSDOF 3
