REMARK  Name = ZINC19474408
REMARK  4 active torsions:
REMARK  status: ('A' for Active; 'I' for Inactive)
REMARK    1  A    between atoms: C_3  and  O_10
REMARK    2  A    between atoms: C_6  and  C_7
REMARK    3  A    between atoms: O_10  and  C_11
REMARK    4  A    between atoms: C_11  and  C_12
REMARK                            x       y       z     vdW  Elec       q    Type
REMARK                         _______ _______ _______ _____ _____    ______ ____
ROOT
ATOM      1  C   UNL     1      -0.017   1.374   0.010  0.00  0.00    +0.015 A 
ATOM      2  C   UNL     1       0.002  -0.004   0.002  0.00  0.00    +0.046 A 
ATOM      3  C   UNL     1       1.214  -0.684  -0.013  0.00  0.00    +0.121 A 
ATOM      4  C   UNL     1       2.410   0.022  -0.021  0.00  0.00    +0.046 A 
ATOM      5  C   UNL     1       2.399   1.400  -0.013  0.00  0.00    +0.015 A 
ATOM      6  C   UNL     1       1.183   2.086   0.002  0.00  0.00    +0.012 A 
ENDROOT
BRANCH   6   7
ATOM      7  C   UNL     1       1.167   3.565   0.010  0.00  0.00    +0.094 C 
ATOM      8  N   UNL     1       0.032   4.205   0.023  0.00  0.00    -0.387 N 
ATOM      9  N   UNL     1       2.353   4.267   0.002  0.00  0.00    -0.345 N 
ATOM     10  H   UNL     1       0.020   5.305   0.029  0.00  0.00    +0.157 HD
ATOM     11  H   UNL     1       2.341   5.367   0.008  0.00  0.00    +0.144 HD
ATOM     12  H   UNL     1       3.312   3.728  -0.010  0.00  0.00    +0.144 HD
ATOM     13  H   UNL     1      -0.915   3.644   0.029  0.00  0.00    +0.157 HD
ENDBRANCH   6   7
BRANCH   3  14
ATOM     14  O   UNL     1       1.228  -2.042  -0.020  0.00  0.00    -0.487 OA
BRANCH  14  15
ATOM     15  C   UNL     1       2.509  -2.676  -0.035  0.00  0.00    +0.265 C 
BRANCH  15  16
ATOM     16  C   UNL     1       2.327  -4.172  -0.041  0.00  0.00    +0.004 A 
ATOM     17  C   UNL     1       1.055  -4.714  -0.032  0.00  0.00    +0.011 A 
ATOM     18  C   UNL     1       0.888  -6.086  -0.037  0.00  0.00    +0.039 A 
ATOM     19  C   UNL     1       1.994  -6.918  -0.052  0.00  0.00    +0.124 A 
ATOM     20  C   UNL     1       3.268  -6.376  -0.062  0.00  0.00    +0.054 A 
ATOM     21  C   UNL     1       3.433  -5.003  -0.061  0.00  0.00    +0.027 A 
ATOM     22 BR   UNL     1       5.172  -4.260  -0.082  0.00  0.00    -0.050 Br
ATOM     23  F   UNL     1       1.831  -8.259  -0.058  0.00  0.00    -0.205 F 
ENDBRANCH  15  16
ENDBRANCH  14  15
ENDBRANCH   3  14
TORSDOF 4
