REMARK  Name = ZINC36591390
REMARK  15 active torsions:
REMARK  status: ('A' for Active; 'I' for Inactive)
REMARK    1  A    between atoms: C_1  and  C_2
REMARK    2  A    between atoms: C_2  and  C_3
REMARK    3  A    between atoms: C_3  and  C_4
REMARK    4  A    between atoms: C_4  and  N_5
REMARK    5  A    between atoms: C_6  and  C_8
REMARK    6  A    between atoms: C_8  and  C_10
REMARK    7  A    between atoms: C_8  and  N_19
REMARK    8  A    between atoms: C_11  and  O_18
REMARK    9  A    between atoms: C_13  and  O_17
REMARK   10  A    between atoms: C_15  and  O_16
REMARK   11  A    between atoms: N_19  and  C_29
REMARK   12  A    between atoms: C_20  and  C_22
REMARK   13  A    between atoms: C_29  and  C_30
REMARK   14  A    between atoms: C_29  and  C_31
REMARK   15  A    between atoms: C_29  and  C_32
REMARK                            x       y       z     vdW  Elec       q    Type
REMARK                         _______ _______ _______ _____ _____    ______ ____
ROOT
ATOM      1  C   UNL     1       2.255  -3.311  -5.071  0.00  0.00    +0.200 C 
ENDROOT
BRANCH   1   2
ATOM      2  C   UNL     1       3.407  -2.703  -4.312  0.00  0.00    +0.065 A 
ATOM      3  C   UNL     1       3.464  -2.815  -2.931  0.00  0.00    +0.129 A 
ATOM      4  C   UNL     1       4.524  -2.256  -2.233  0.00  0.00    +0.091 A 
ATOM      5  C   UNL     1       5.527  -1.585  -2.917  0.00  0.00    +0.124 A 
ATOM      6  C   UNL     1       5.470  -1.473  -4.298  0.00  0.00    +0.091 A 
ATOM      7  C   UNL     1       4.412  -2.036  -4.996  0.00  0.00    +0.129 A 
BRANCH   7   8
ATOM      8  O   UNL     1       4.359  -1.931  -6.350  0.00  0.00    -0.506 OA
ATOM      9  H   UNL     1       3.894  -1.143  -6.665  0.00  0.00    +0.292 HD
ENDBRANCH   7   8
BRANCH   5  10
ATOM     10  O   UNL     1       6.565  -1.036  -2.232  0.00  0.00    -0.507 OA
ATOM     11  H   UNL     1       7.317  -1.632  -2.114  0.00  0.00    +0.292 HD
ENDBRANCH   5  10
BRANCH   3  12
ATOM     12  O   UNL     1       2.482  -3.474  -2.262  0.00  0.00    -0.506 OA
ATOM     13  H   UNL     1       2.632  -4.425  -2.178  0.00  0.00    +0.292 HD
ENDBRANCH   3  12
ENDBRANCH   1   2
BRANCH   1  15
ATOM     14  N   UNL     1       0.465  -1.800  -4.277  0.00  0.00    -0.313 N 
ATOM     15  C   UNL     1       0.970  -3.048  -4.328  0.00  0.00    +0.238 C 
ATOM     16  O   UNL     1       0.391  -3.960  -3.777  0.00  0.00    -0.273 OA
ATOM     17  H   UNL     1       0.928  -1.071  -4.719  0.00  0.00    +0.149 HD
BRANCH  14  18
ATOM     18  C   UNL     1      -0.784  -1.544  -3.556  0.00  0.00    +0.104 C 
BRANCH  18  19
ATOM     19  C   UNL     1      -1.134  -0.058  -3.652  0.00  0.00    +0.018 C 
BRANCH  19  21
ATOM     20  C   UNL     1      -2.788   1.696  -2.995  0.00  0.00    +0.004 C 
ATOM     21  C   UNL     1      -2.438   0.209  -2.898  0.00  0.00    -0.002 C 
ENDBRANCH  19  21
ENDBRANCH  18  19
ENDBRANCH  14  18
ENDBRANCH   1  15
BRANCH   1  22
ATOM     22  N   UNL     1       2.461  -4.756  -5.195  0.00  0.00    -0.279 N 
ATOM     23  C   UNL     1       3.491  -5.347  -4.558  0.00  0.00    +0.237 C 
ATOM     24  O   UNL     1       4.169  -4.710  -3.780  0.00  0.00    -0.274 OA
BRANCH  23  25
ATOM     25  C   UNL     1       3.802  -6.799  -4.814  0.00  0.00    +0.159 C 
ATOM     26  C   UNL     1       3.329  -7.665  -3.625  0.00  0.00    +0.041 C 
ATOM     27  C   UNL     1       4.612  -7.747  -2.766  0.00  0.00    +0.098 C 
ATOM     28  C   UNL     1       5.736  -7.528  -3.755  0.00  0.00    +0.214 C 
ATOM     29  O   UNL     1       6.902  -7.790  -3.551  0.00  0.00    -0.276 OA
ATOM     30  N   UNL     1       5.253  -7.002  -4.896  0.00  0.00    -0.304 N 
ATOM     31  H   UNL     1       5.793  -6.784  -5.672  0.00  0.00    +0.149 HD
ENDBRANCH  23  25
BRANCH  22  32
ATOM     32  C   UNL     1       1.546  -5.559  -6.010  0.00  0.00    +0.030 C 
ATOM     33  C   UNL     1       0.300  -4.734  -6.340  0.00  0.00    +0.031 C 
ATOM     34  C   UNL     1       2.245  -5.967  -7.308  0.00  0.00    +0.031 C 
ATOM     35  C   UNL     1       1.138  -6.813  -5.234  0.00  0.00    +0.031 C 
ENDBRANCH  22  32
ENDBRANCH   1  22
TORSDOF 11
