REMARK  Name = ZINC39710368
REMARK  12 active torsions:
REMARK  status: ('A' for Active; 'I' for Inactive)
REMARK    1  A    between atoms: C_1  and  C_2
REMARK    2  A    between atoms: C_9  and  C_14
REMARK    3  A    between atoms: C_14  and  C_16
REMARK    4  A    between atoms: C_14  and  N_26
REMARK    5  A    between atoms: N_21  and  C_22
REMARK    6  A    between atoms: C_22  and  C_23
REMARK    7  A    between atoms: C_22  and  C_24
REMARK    8  A    between atoms: C_22  and  C_25
REMARK    9  A    between atoms: N_26  and  C_27
REMARK   10  A    between atoms: N_26  and  C_33
REMARK   11  A    between atoms: C_27  and  C_28
REMARK   12  A    between atoms: C_33  and  C_34
REMARK                            x       y       z     vdW  Elec       q    Type
REMARK                         _______ _______ _______ _____ _____    ______ ____
ROOT
ATOM      1  C   UNL     1      -1.147  -5.004   2.722  0.00  0.00    -0.008 C 
ENDROOT
BRANCH   1  10
ATOM      2  C   UNL     1       0.243 -11.264  -0.420  0.00  0.00    +0.044 C 
ATOM      3  C   UNL     1      -0.323 -10.409   0.683  0.00  0.00    -0.050 A 
ATOM      4  C   UNL     1      -1.341 -10.920   1.490  0.00  0.00    +0.005 A 
ATOM      5  C   UNL     1      -1.900 -10.208   2.503  0.00  0.00    +0.024 A 
ATOM      6  C   UNL     1      -1.464  -8.900   2.783  0.00  0.00    +0.040 A 
ATOM      7  N   UNL     1      -2.019  -8.211   3.779  0.00  0.00    -0.285 N 
ATOM      8  C   UNL     1      -1.657  -6.979   4.095  0.00  0.00    +0.223 C 
ATOM      9  O   UNL     1      -2.201  -6.400   5.017  0.00  0.00    -0.275 OA
ATOM     10  C   UNL     1      -0.565  -6.293   3.307  0.00  0.00    +0.088 C 
ATOM     11  C   UNL     1       0.071  -7.072   2.172  0.00  0.00    -0.006 C 
ATOM     12  C   UNL     1      -0.390  -8.335   1.946  0.00  0.00    -0.007 A 
ATOM     13  C   UNL     1       0.171  -9.158   0.875  0.00  0.00    +0.012 A 
ATOM     14  H   UNL     1      -2.722  -8.634   4.298  0.00  0.00    +0.155 HD
ENDBRANCH   1  10
BRANCH   1  15
ATOM     15  C   UNL     1      -1.453  -4.022   3.855  0.00  0.00    +0.205 C 
ATOM     16  N   UNL     1      -2.849  -4.161   4.291  0.00  0.00    -0.152 NA
ATOM     17  N   UNL     1      -3.433  -3.091   4.104  0.00  0.00    -0.070 NA
ATOM     18  N   UNL     1      -2.607  -2.111   3.554  0.00  0.00    -0.179 N 
ATOM     19  N   UNL     1      -1.348  -2.629   3.373  0.00  0.00    -0.183 NA
ATOM     20  H   UNL     1      -2.878  -1.206   3.334  0.00  0.00    +0.191 HD
BRANCH  19  21
ATOM     21  C   UNL     1      -0.351  -1.878   4.147  0.00  0.00    +0.035 C 
ATOM     22  C   UNL     1       1.010  -2.567   4.031  0.00  0.00    +0.029 C 
ATOM     23  C   UNL     1      -0.249  -0.453   3.599  0.00  0.00    +0.029 C 
ATOM     24  C   UNL     1      -0.775  -1.830   5.616  0.00  0.00    +0.029 C 
ENDBRANCH  19  21
ENDBRANCH   1  15
BRANCH   1  25
ATOM     25  N   UNL     1      -2.385  -5.312   1.994  0.00  0.00    +0.392 N 
ATOM     26  H   UNL     1      -3.046  -5.744   2.622  0.00  0.00    -0.080 HD
BRANCH  25  27
ATOM     27  C   UNL     1      -2.959  -4.071   1.457  0.00  0.00    -0.002 C 
BRANCH  27  28
ATOM     28  C   UNL     1      -1.916  -3.343   0.649  0.00  0.00    +0.089 A 
ATOM     29  C   UNL     1      -1.794  -3.376  -0.690  0.00  0.00    +0.042 A 
ATOM     30  C   UNL     1      -0.691  -2.557  -1.021  0.00  0.00    +0.041 A 
ATOM     31  C   UNL     1      -0.204  -2.072   0.135  0.00  0.00    +0.195 A 
ATOM     32  O   UNL     1      -0.954  -2.547   1.143  0.00  0.00    -0.470 OA
ENDBRANCH  27  28
ENDBRANCH  25  27
BRANCH  25  33
ATOM     33  C   UNL     1      -2.086  -6.231   0.888  0.00  0.00    -0.034 C 
BRANCH  33  34
ATOM     34  C   UNL     1      -3.373  -6.794   0.341  0.00  0.00    -0.027 A 
ATOM     35  C   UNL     1      -4.078  -6.407  -0.750  0.00  0.00    +0.009 A 
ATOM     36  C   UNL     1      -5.245  -7.077  -1.066  0.00  0.00    +0.008 A 
ATOM     37  C   UNL     1      -5.650  -8.100  -0.276  0.00  0.00    +0.045 A 
ATOM     38  S   UNL     1      -4.360  -8.147   0.958  0.00  0.00    -0.103 S 
ENDBRANCH  33  34
ENDBRANCH  25  33
ENDBRANCH   1  25
TORSDOF 8
