REMARK  Name = ZINC63426686
REMARK  5 active torsions:
REMARK  status: ('A' for Active; 'I' for Inactive)
REMARK    1  A    between atoms: C_3  and  C_6
REMARK    2  A    between atoms: C_6  and  N_7
REMARK    3  A    between atoms: C_15  and  O_39
REMARK    4  A    between atoms: C_16  and  C_20
REMARK    5  A    between atoms: C_26  and  C_29
REMARK                            x       y       z     vdW  Elec       q    Type
REMARK                         _______ _______ _______ _____ _____    ______ ____
ROOT
ATOM      1  N   UNL     1       4.101   0.607   1.347  0.00  0.00    -0.286 N 
ATOM      2  C   UNL     1       4.491   1.834   2.047  0.00  0.00    +0.106 C 
ATOM      3  C   UNL     1       4.387   3.059   1.180  0.00  0.00    +0.027 C 
ATOM      4  C   UNL     1       5.754   3.595   0.764  0.00  0.00    +0.002 C 
ATOM      5  C   UNL     1       6.559   3.883   2.040  0.00  0.00    +0.005 C 
ATOM      6  C   UNL     1       6.976   2.538   2.637  0.00  0.00    +0.036 C 
ATOM      7  C   UNL     1       5.804   1.628   2.729  0.00  0.00    -0.011 C 
ATOM      8  C   UNL     1       5.943   0.510   3.449  0.00  0.00    +0.116 C 
ATOM      9  C   UNL     1       4.758  -0.436   3.470  0.00  0.00    +0.226 C 
ATOM     10  C   UNL     1       4.226  -0.554   2.054  0.00  0.00    +0.236 C 
ATOM     11  O   UNL     1       3.931  -1.627   1.573  0.00  0.00    -0.274 OA
ENDROOT
BRANCH   9  12
ATOM     12  C   UNL     1       3.683   0.114   4.371  0.00  0.00    +0.238 C 
ATOM     13  O   UNL     1       3.852   1.170   4.943  0.00  0.00    -0.274 OA
ATOM     14  N   UNL     1       2.532  -0.567   4.540  0.00  0.00    -0.264 N 
ATOM     15  C   UNL     1       1.540  -0.060   5.371  0.00  0.00    +0.165 A 
ATOM     16  N   UNL     1       0.368  -0.583   5.658  0.00  0.00    -0.229 NA
ATOM     17  H   UNL     1       2.397  -1.412   4.083  0.00  0.00    +0.157 HD
ATOM     18  C   UNL     1      -0.471   0.029   6.473  0.00  0.00    +0.057 A 
ATOM     19  C   UNL     1      -0.069   1.213   6.997  0.00  0.00    +0.072 A 
ATOM     20  S   UNL     1       1.550   1.369   6.260  0.00  0.00    -0.060 S 
BRANCH  18  21
ATOM     21  C   UNL     1      -1.817  -0.563   6.807  0.00  0.00    +0.014 C 
ATOM     22  C   UNL     1      -2.887   0.527   6.727  0.00  0.00    +0.016 C 
ATOM     23  C   UNL     1      -4.253  -0.074   7.066  0.00  0.00    -0.010 C 
ATOM     24  C   UNL     1      -4.582  -1.186   6.069  0.00  0.00    +0.007 C 
ATOM     25  C   UNL     1      -3.512  -2.276   6.149  0.00  0.00    -0.010 C 
ATOM     26  C   UNL     1      -2.146  -1.676   5.810  0.00  0.00    +0.016 C 
ATOM     27  C   UNL     1      -3.478  -2.854   7.565  0.00  0.00    +0.007 C 
ATOM     28  C   UNL     1      -3.148  -1.742   8.562  0.00  0.00    -0.010 C 
ATOM     29  C   UNL     1      -4.219  -0.652   8.482  0.00  0.00    +0.007 C 
ATOM     30  C   UNL     1      -1.782  -1.141   8.223  0.00  0.00    +0.016 C 
ENDBRANCH  18  21
ENDBRANCH   9  12
BRANCH   8  31
ATOM     31  O   UNL     1       7.086   0.236   4.125  0.00  0.00    -0.510 OA
ATOM     32  H   UNL     1       7.066  -0.602   4.608  0.00  0.00    +0.292 HD
ENDBRANCH   8  31
BRANCH   1  33
ATOM     33  C   UNL     1       3.599   0.625  -0.029  0.00  0.00    +0.182 C 
BRANCH  33  36
ATOM     34  C   UNL     1       0.097   1.774  -0.026  0.00  0.00    +0.041 A 
ATOM     35  C   UNL     1       1.486   2.035  -0.054  0.00  0.00    +0.046 A 
ATOM     36  C   UNL     1       2.108   0.843  -0.018  0.00  0.00    +0.122 A 
ATOM     37  O   UNL     1       1.174  -0.121   0.031  0.00  0.00    -0.466 OA
ATOM     38  C   UNL     1      -0.047   0.438   0.026  0.00  0.00    +0.195 A 
ENDBRANCH  33  36
ENDBRANCH   1  33
TORSDOF 5
