REMARK  Name = ZINC02106333
REMARK  5 active torsions:
REMARK  status: ('A' for Active; 'I' for Inactive)
REMARK    1  A    between atoms: C_1  and  O_2
REMARK    2  A    between atoms: O_2  and  C_3
REMARK    3  A    between atoms: C_6  and  N_9
REMARK    4  A    between atoms: C_12  and  C_19
REMARK    5  A    between atoms: C_13  and  O_18
REMARK                            x       y       z     vdW  Elec       q    Type
REMARK                         _______ _______ _______ _____ _____    ______ ____
ROOT
ATOM      1  N   UNL     1       3.712   2.640  -0.019  0.00  0.00    -0.256 N 
ATOM      2  C   UNL     1       2.681   3.346   0.487  0.00  0.00    +0.265 A 
ATOM      3  O   UNL     1       2.865   4.465   0.935  0.00  0.00    -0.267 OA
ATOM      4  C   UNL     1       1.391   2.786   0.488  0.00  0.00    +0.068 A 
ATOM      5  C   UNL     1       1.214   1.531  -0.014  0.00  0.00    +0.199 A 
ATOM      6  N   UNL     1       2.290   0.847  -0.519  0.00  0.00    -0.306 N 
ATOM      7  H   UNL     1       2.167  -0.044  -0.881  0.00  0.00    +0.171 HD
ATOM      8  C   UNL     1       3.514   1.405  -0.515  0.00  0.00    +0.168 A 
ATOM      9  S   UNL     1       4.841   0.530  -1.151  0.00  0.00    -0.012 S 
ENDROOT
BRANCH   4  10
ATOM     10  C   UNL     1       0.223   3.560   1.043  0.00  0.00    +0.018 C 
ATOM     11  C   UNL     1      -0.023   4.785   0.194  0.00  0.00    +0.011 A 
ATOM     12  C   UNL     1      -0.281   6.006   0.725  0.00  0.00    -0.022 A 
ATOM     13  C   UNL     1      -0.451   6.922  -0.381  0.00  0.00    +0.003 A 
ATOM     14  C   UNL     1      -0.732   8.291  -0.448  0.00  0.00    +0.010 A 
ATOM     15  C   UNL     1      -0.824   8.846  -1.700  0.00  0.00    +0.001 A 
ATOM     16  C   UNL     1      -0.651   8.096  -2.852  0.00  0.00    +0.002 A 
ATOM     17  C   UNL     1      -0.372   6.741  -2.816  0.00  0.00    +0.026 A 
ATOM     18  C   UNL     1      -0.272   6.150  -1.558  0.00  0.00    +0.047 A 
ATOM     19  N   UNL     1      -0.014   4.867  -1.169  0.00  0.00    -0.359 N 
ATOM     20  H   UNL     1       0.148   4.123  -1.770  0.00  0.00    +0.166 HD
ATOM     21  C   UNL     1      -0.363   6.270   2.207  0.00  0.00    +0.018 C 
ATOM     22  C   UNL     1      -0.499   4.919   2.923  0.00  0.00    -0.076 C 
ATOM     23  N   UNL     1       0.534   3.988   2.425  0.00  0.00    +0.388 N 
ATOM     24  H   UNL     1       1.446   4.458   2.435  0.00  0.00    -0.084 HD
ATOM     25  H   UNL     1       0.567   3.163   3.034  0.00  0.00    -0.084 HD
ENDBRANCH   4  10
BRANCH   1  29
ATOM     26  C   UNL     1       7.540   4.295  -0.045  0.00  0.00    +0.120 A 
ATOM     27  C   UNL     1       7.115   3.547   1.044  0.00  0.00    +0.047 A 
ATOM     28  C   UNL     1       5.848   2.999   1.053  0.00  0.00    +0.030 A 
ATOM     29  C   UNL     1       4.999   3.196  -0.028  0.00  0.00    +0.052 A 
ATOM     30  C   UNL     1       5.427   3.940  -1.119  0.00  0.00    +0.030 A 
ATOM     31  C   UNL     1       6.692   4.492  -1.125  0.00  0.00    +0.047 A 
BRANCH  26  33
ATOM     32  C   UNL     1       9.160   5.591  -1.207  0.00  0.00    +0.277 C 
ATOM     33  O   UNL     1       8.788   4.834  -0.054  0.00  0.00    -0.495 OA
ENDBRANCH  26  33
ENDBRANCH   1  29
BRANCH   5  34
ATOM     34  O   UNL     1      -0.013   0.968  -0.019  0.00  0.00    -0.493 OA
ATOM     35  H   UNL     1      -0.037   0.079  -0.399  0.00  0.00    +0.294 HD
ENDBRANCH   5  34
TORSDOF 4
