REMARK  Name = ZINC63781935
REMARK  9 active torsions:
REMARK  status: ('A' for Active; 'I' for Inactive)
REMARK    1  A    between atoms: C_1  and  C_2
REMARK    2  A    between atoms: N_4  and  C_5
REMARK    3  A    between atoms: C_8  and  O_11
REMARK    4  A    between atoms: O_11  and  C_12
REMARK    5  A    between atoms: C_12  and  C_13
REMARK    6  A    between atoms: C_16  and  C_20
REMARK    7  A    between atoms: N_22  and  C_23
REMARK    8  A    between atoms: C_23  and  C_24
REMARK    9  A    between atoms: C_24  and  C_25
REMARK                            x       y       z     vdW  Elec       q    Type
REMARK                         _______ _______ _______ _____ _____    ______ ____
ROOT
ATOM      1  C   UNL     1      -1.816  -8.424   0.421  0.00  0.00    +0.188 C 
ATOM      2  N   UNL     1      -1.066  -8.725   1.663  0.00  0.00    -0.263 NA
ATOM      3  C   UNL     1      -0.105  -9.783   1.256  0.00  0.00    +0.297 C 
ATOM      4  O   UNL     1       0.290  -9.380  -0.075  0.00  0.00    -0.270 OA
ATOM      5  N   UNL     1      -0.943  -8.852  -0.693  0.00  0.00    -0.178 NA
ATOM      6  H   UNL     1      -0.581  -7.907   2.000  0.00  0.00    +0.126 HD
ATOM      7  H   UNL     1      -1.395  -9.556  -1.257  0.00  0.00    +0.156 HD
ENDROOT
BRANCH   3   8
ATOM      8  C   UNL     1       1.083  -9.808   2.182  0.00  0.00    +0.259 C 
ATOM      9  O   UNL     1       1.237 -10.736   2.947  0.00  0.00    -0.271 OA
ATOM     10  N   UNL     1       1.976  -8.798   2.159  0.00  0.00    -0.312 N 
ATOM     11  H   UNL     1       1.853  -8.056   1.547  0.00  0.00    +0.149 HD
BRANCH  10  12
ATOM     12  C   UNL     1       3.131  -8.822   3.060  0.00  0.00    +0.108 C 
BRANCH  12  13
ATOM     13  C   UNL     1       3.979  -7.569   2.834  0.00  0.00    +0.052 C 
BRANCH  13  14
ATOM     14  C   UNL     1       5.168  -7.593   3.760  0.00  0.00    -0.040 C 
ATOM     15  C   UNL     1       6.412  -8.041   3.475  0.00  0.00    +0.000 A 
ATOM     16  C   UNL     1       7.008  -8.618   2.264  0.00  0.00    +0.030 A 
ATOM     17  C   UNL     1       8.311  -8.981   2.283  0.00  0.00    +0.042 A 
ATOM     18  C   UNL     1       9.105  -8.821   3.429  0.00  0.00    +0.022 A 
ATOM     19  C   UNL     1       8.628  -8.298   4.578  0.00  0.00    +0.027 A 
ATOM     20  C   UNL     1       7.271  -7.882   4.670  0.00  0.00    +0.043 A 
ATOM     21  N   UNL     1       6.585  -7.356   5.656  0.00  0.00    -0.380 N 
ATOM     22  C   UNL     1       5.213  -7.115   5.194  0.00  0.00    +0.144 C 
ATOM     23 CL   UNL     1       9.019  -9.665   0.853  0.00  0.00    -0.084 Cl
ATOM     24  H   UNL     1       6.928  -7.155   6.540  0.00  0.00    +0.160 HD
ENDBRANCH  13  14
ENDBRANCH  12  13
ENDBRANCH  10  12
ENDBRANCH   3   8
BRANCH   1  25
ATOM     25  C   UNL     1      -2.097  -6.923   0.324  0.00  0.00    +0.265 C 
BRANCH  25  26
ATOM     26  O   UNL     1      -0.861  -6.206   0.334  0.00  0.00    -0.489 OA
BRANCH  26  30
ATOM     27  C   UNL     1      -1.081  -2.091   0.092  0.00  0.00    +0.034 A 
ATOM     28  C   UNL     1       0.155  -2.716   0.178  0.00  0.00    +0.027 A 
ATOM     29  C   UNL     1       0.228  -4.093   0.259  0.00  0.00    +0.047 A 
ATOM     30  C   UNL     1      -0.934  -4.850   0.255  0.00  0.00    +0.121 A 
ATOM     31  C   UNL     1      -2.169  -4.226   0.168  0.00  0.00    +0.047 A 
ATOM     32  C   UNL     1      -2.244  -2.849   0.093  0.00  0.00    +0.027 A 
BRANCH  27  36
ATOM     33  C   UNL     1      -2.194   1.470   0.609  0.00  0.00    +0.109 C 
ATOM     34  C   UNL     1      -2.169  -0.037   0.608  0.00  0.00    +0.214 C 
ATOM     35  O   UNL     1      -3.061  -0.658   1.146  0.00  0.00    -0.276 OA
ATOM     36  N   UNL     1      -1.156  -0.694   0.009  0.00  0.00    -0.286 N 
ATOM     37  H   UNL     1      -0.478  -0.200  -0.478  0.00  0.00    +0.155 HD
ENDBRANCH  27  36
ENDBRANCH  26  30
ENDBRANCH  25  26
ENDBRANCH   1  25
TORSDOF 8
