REMARK  Name = ZINC41796261
REMARK  6 active torsions:
REMARK  status: ('A' for Active; 'I' for Inactive)
REMARK    1  A    between atoms: C_1  and  C_2
REMARK    2  A    between atoms: C_7  and  N_10
REMARK    3  A    between atoms: N_10  and  C_11
REMARK    4  A    between atoms: C_11  and  C_12
REMARK    5  A    between atoms: C_11  and  C_13
REMARK    6  A    between atoms: C_11  and  C_14
REMARK                            x       y       z     vdW  Elec       q    Type
REMARK                         _______ _______ _______ _____ _____    ______ ____
ROOT
ATOM      1  N   UNL     1       2.893   0.311   2.858  0.00  0.00    +0.391 N 
ATOM      2  H   UNL     1       2.868   0.341   3.866  0.00  0.00    -0.084 HD
ATOM      3  H   UNL     1       2.282  -0.421   2.528  0.00  0.00    -0.084 HD
ENDROOT
BRANCH   1   9
ATOM      4  C   UNL     1       1.578   4.371   2.722  0.00  0.00    +0.007 C 
ATOM      5  C   UNL     1       0.594   3.277   2.305  0.00  0.00    -0.016 C 
ATOM      6  C   UNL     1       0.534   3.199   0.778  0.00  0.00    +0.003 C 
ATOM      7  C   UNL     1       1.925   2.870   0.230  0.00  0.00    -0.001 C 
ATOM      8  C   UNL     1       2.389   1.525   0.792  0.00  0.00    -0.016 C 
ATOM      9  C   UNL     1       2.448   1.603   2.319  0.00  0.00    -0.070 C 
ATOM     10  C   UNL     1       1.058   1.932   2.867  0.00  0.00    -0.013 C 
ENDBRANCH   1   9
BRANCH   1  11
ATOM     11  C   UNL     1       4.266   0.041   2.410  0.00  0.00    +0.030 C 
ATOM     12  C   UNL     1       5.146   1.258   2.700  0.00  0.00    +0.001 C 
ATOM     13  C   UNL     1       4.816  -1.176   3.158  0.00  0.00    +0.001 C 
BRANCH  11  14
ATOM     14  C   UNL     1       4.266  -0.238   0.929  0.00  0.00    +0.345 C 
ATOM     15  O   UNL     1       3.420  -0.973   0.448  0.00  0.00    -0.248 OA
ATOM     16  O   UNL     1       5.111   0.271   0.213  0.00  0.00    -0.248 OA
ENDBRANCH  11  14
ENDBRANCH   1  11
TORSDOF 3
