REMARK  Name = ZINC10217775
REMARK  14 active torsions:
REMARK  status: ('A' for Active; 'I' for Inactive)
REMARK    1  A    between atoms: C_1  and  C_2
REMARK    2  A    between atoms: C_4  and  O_32
REMARK    3  A    between atoms: C_5  and  C_12
REMARK    4  A    between atoms: N_8  and  C_9
REMARK    5  A    between atoms: C_9  and  C_10
REMARK    6  A    between atoms: C_10  and  O_11
REMARK    7  A    between atoms: C_12  and  C_13
REMARK    8  A    between atoms: C_12  and  C_20
REMARK    9  A    between atoms: C_16  and  O_19
REMARK   10  A    between atoms: C_21  and  O_31
REMARK   11  A    between atoms: C_23  and  C_30
REMARK   12  A    between atoms: N_24  and  C_27
REMARK   13  A    between atoms: C_27  and  C_28
REMARK   14  A    between atoms: C_28  and  O_29
REMARK                            x       y       z     vdW  Elec       q    Type
REMARK                         _______ _______ _______ _____ _____    ______ ____
ROOT
ATOM      1  C   UNL     1      -1.117   2.056  -0.157  0.00  0.00    +0.097 C 
ENDROOT
BRANCH   1   6
ATOM      2  C   UNL     1       1.616   5.056   3.936  0.00  0.00    +0.064 C 
ATOM      3  C   UNL     1       0.915   4.267   2.861  0.00  0.00    +0.022 A 
ATOM      4  C   UNL     1       1.642   3.528   1.996  0.00  0.00    +0.067 A 
ATOM      5  C   UNL     1       0.991   2.783   0.992  0.00  0.00    +0.128 A 
ATOM      6  C   UNL     1      -0.388   2.834   0.907  0.00  0.00    +0.070 A 
ATOM      7  C   UNL     1      -1.098   3.615   1.827  0.00  0.00    +0.259 A 
ATOM      8  O   UNL     1      -2.317   3.667   1.769  0.00  0.00    -0.267 OA
ATOM      9  N   UNL     1      -0.441   4.308   2.775  0.00  0.00    -0.310 N 
BRANCH   5  10
ATOM     10  O   UNL     1       1.706   2.033   0.120  0.00  0.00    -0.506 OA
ATOM     11  H   UNL     1       2.661   2.065   0.264  0.00  0.00    +0.292 HD
ENDBRANCH   5  10
BRANCH   9  12
ATOM     12  C   UNL     1      -1.199   5.120   3.730  0.00  0.00    +0.153 C 
BRANCH  12  13
ATOM     13  C   UNL     1      -1.307   6.554   3.208  0.00  0.00    +0.177 C 
BRANCH  13  14
ATOM     14  O   UNL     1      -2.079   6.566   2.005  0.00  0.00    -0.393 OA
ATOM     15  H   UNL     1      -2.189   7.444   1.617  0.00  0.00    +0.209 HD
ENDBRANCH  13  14
ENDBRANCH  12  13
ENDBRANCH   9  12
ENDBRANCH   1   6
BRANCH   1  16
ATOM     16  C   UNL     1      -1.501   2.982  -1.282  0.00  0.00    +0.070 A 
ATOM     17  C   UNL     1      -2.778   2.948  -1.813  0.00  0.00    +0.128 A 
ATOM     18  C   UNL     1      -3.105   3.831  -2.861  0.00  0.00    +0.067 A 
ATOM     19  C   UNL     1      -2.173   4.684  -3.336  0.00  0.00    +0.022 A 
ATOM     20  N   UNL     1      -0.918   4.708  -2.813  0.00  0.00    -0.310 N 
ATOM     21  C   UNL     1      -0.569   3.883  -1.809  0.00  0.00    +0.259 A 
ATOM     22  O   UNL     1       0.564   3.922  -1.355  0.00  0.00    -0.267 OA
ATOM     23  C   UNL     1      -2.527   5.622  -4.461  0.00  0.00    +0.064 C 
BRANCH  17  24
ATOM     24  O   UNL     1      -3.701   2.083  -1.329  0.00  0.00    -0.506 OA
ATOM     25  H   UNL     1      -4.561   2.139  -1.767  0.00  0.00    +0.292 HD
ENDBRANCH  17  24
BRANCH  20  26
ATOM     26  C   UNL     1       0.070   5.645  -3.353  0.00  0.00    +0.153 C 
BRANCH  26  27
ATOM     27  C   UNL     1      -0.007   6.965  -2.583  0.00  0.00    +0.177 C 
BRANCH  27  28
ATOM     28  O   UNL     1       0.380   6.748  -1.225  0.00  0.00    -0.393 OA
ATOM     29  H   UNL     1       0.355   7.545  -0.677  0.00  0.00    +0.209 HD
ENDBRANCH  27  28
ENDBRANCH  26  27
ENDBRANCH  20  26
ENDBRANCH   1  16
BRANCH   1  30
ATOM     30  C   UNL     1      -0.220   0.967  -0.686  0.00  0.00    -0.035 A 
ATOM     31  C   UNL     1       0.356   1.094  -1.937  0.00  0.00    +0.008 A 
ATOM     32  C   UNL     1       1.174   0.095  -2.427  0.00  0.00    +0.046 A 
ATOM     33  C   UNL     1       1.418  -1.037  -1.663  0.00  0.00    +0.117 A 
ATOM     34  C   UNL     1       0.839  -1.163  -0.408  0.00  0.00    +0.046 A 
ATOM     35  C   UNL     1       0.021  -0.161   0.077  0.00  0.00    +0.008 A 
BRANCH  33  36
ATOM     36  O   UNL     1       2.223  -2.022  -2.142  0.00  0.00    -0.507 OA
ATOM     37  H   UNL     1       1.754  -2.703  -2.645  0.00  0.00    +0.292 HD
ENDBRANCH  33  36
ENDBRANCH   1  30
TORSDOF 12
