REMARK  Name = ZINC35458240
REMARK  15 active torsions:
REMARK  status: ('A' for Active; 'I' for Inactive)
REMARK    1  A    between atoms: C_3  and  O_42
REMARK    2  A    between atoms: C_4  and  O_41
REMARK    3  A    between atoms: C_6  and  C_7
REMARK    4  A    between atoms: C_8  and  C_9
REMARK    5  A    between atoms: C_9  and  O_11
REMARK    6  A    between atoms: O_11  and  C_12
REMARK    7  A    between atoms: C_14  and  O_40
REMARK    8  A    between atoms: C_18  and  O_23
REMARK    9  A    between atoms: C_20  and  O_22
REMARK   10  A    between atoms: O_23  and  C_24
REMARK   11  A    between atoms: C_26  and  O_39
REMARK   12  A    between atoms: C_28  and  O_38
REMARK   13  A    between atoms: C_30  and  O_37
REMARK   14  A    between atoms: C_32  and  C_35
REMARK   15  A    between atoms: C_35  and  O_36
REMARK                            x       y       z     vdW  Elec       q    Type
REMARK                         _______ _______ _______ _____ _____    ______ ____
ROOT
ATOM      1  C   UNL     1      -6.021  -0.968   0.057  0.00  0.00    +0.240 C 
ATOM      2  C   UNL     1      -6.440  -1.254   1.500  0.00  0.00    +0.180 C 
ATOM      3  C   UNL     1      -7.814  -1.856   1.531  0.00  0.00    +0.006 C 
ATOM      4  C   UNL     1      -8.650  -1.806   0.543  0.00  0.00    +0.005 C 
ATOM      5  C   UNL     1      -8.357  -1.147  -0.773  0.00  0.00    +0.176 C 
ATOM      6  C   UNL     1      -7.157  -0.209  -0.641  0.00  0.00    +0.191 C 
ENDROOT
BRANCH   6   7
ATOM      7  O   UNL     1      -6.727   0.212  -1.938  0.00  0.00    -0.385 OA
ATOM      8  H   UNL     1      -7.398   0.700  -2.435  0.00  0.00    +0.210 HD
ENDBRANCH   6   7
BRANCH   2   9
ATOM      9  O   UNL     1      -6.444  -0.033   2.243  0.00  0.00    -0.384 OA
ATOM     10  H   UNL     1      -6.701  -0.137   3.169  0.00  0.00    +0.210 HD
ENDBRANCH   2   9
BRANCH   1  11
ATOM     11  O   UNL     1      -4.835  -0.172   0.049  0.00  0.00    -0.453 OA
BRANCH  11  12
ATOM     12  C   UNL     1      -3.656  -0.828   0.034  0.00  0.00    +0.332 C 
ATOM     13  O   UNL     1      -3.638  -2.045   0.027  0.00  0.00    -0.246 OA
BRANCH  12  15
ATOM     14  C   UNL     1      -1.259  -0.758   0.011  0.00  0.00    +0.015 C 
ATOM     15  C   UNL     1      -2.439  -0.101   0.026  0.00  0.00    +0.092 C 
BRANCH  14  21
ATOM     16  C   UNL     1      -0.017   1.395   0.010  0.00  0.00    +0.012 A 
ATOM     17  C   UNL     1       1.167   2.100   0.002  0.00  0.00    +0.050 A 
ATOM     18  C   UNL     1       2.380   1.425  -0.013  0.00  0.00    +0.158 A 
ATOM     19  C   UNL     1       2.408   0.031  -0.021  0.00  0.00    +0.159 A 
ATOM     20  C   UNL     1       1.226  -0.683  -0.014  0.00  0.00    +0.057 A 
ATOM     21  C   UNL     1       0.002  -0.004   0.002  0.00  0.00    -0.021 A 
BRANCH  19  22
ATOM     22  O   UNL     1       3.599  -0.626  -0.037  0.00  0.00    -0.503 OA
ATOM     23  H   UNL     1       3.952  -0.821   0.842  0.00  0.00    +0.292 HD
ENDBRANCH  19  22
BRANCH  18  24
ATOM     24  O   UNL     1       3.544   2.125  -0.020  0.00  0.00    -0.503 OA
ATOM     25  H   UNL     1       3.890   2.323   0.861  0.00  0.00    +0.292 HD
ENDBRANCH  18  24
ENDBRANCH  14  21
ENDBRANCH  12  15
ENDBRANCH  11  12
ENDBRANCH   1  11
BRANCH   5  26
ATOM     26  O   UNL     1      -8.063  -2.149  -1.749  0.00  0.00    -0.339 OA
BRANCH  26  27
ATOM     27  C   UNL     1      -9.208  -2.623  -2.460  0.00  0.00    +0.282 C 
ATOM     28  C   UNL     1      -8.822  -3.850  -3.289  0.00  0.00    +0.201 C 
ATOM     29  C   UNL     1     -10.040  -4.316  -4.094  0.00  0.00    +0.179 C 
ATOM     30  C   UNL     1     -10.534  -3.158  -4.966  0.00  0.00    +0.177 C 
ATOM     31  C   UNL     1     -10.854  -1.957  -4.072  0.00  0.00    +0.178 C 
ATOM     32  O   UNL     1      -9.689  -1.595  -3.328  0.00  0.00    -0.341 OA
BRANCH  30  33
ATOM     33  O   UNL     1      -9.519  -2.799  -5.905  0.00  0.00    -0.386 OA
ATOM     34  H   UNL     1      -9.264  -3.516  -6.501  0.00  0.00    +0.210 HD
ENDBRANCH  30  33
BRANCH  29  35
ATOM     35  O   UNL     1      -9.670  -5.418  -4.925  0.00  0.00    -0.386 OA
ATOM     36  H   UNL     1      -9.341  -6.185  -4.437  0.00  0.00    +0.210 HD
ENDBRANCH  29  35
BRANCH  28  37
ATOM     37  O   UNL     1      -7.760  -3.509  -4.181  0.00  0.00    -0.384 OA
ATOM     38  H   UNL     1      -6.957  -3.201  -3.738  0.00  0.00    +0.210 HD
ENDBRANCH  28  37
BRANCH  31  39
ATOM     39  C   UNL     1     -11.292  -0.776  -4.941  0.00  0.00    +0.190 C 
BRANCH  39  40
ATOM     40  O   UNL     1     -11.701   0.306  -4.103  0.00  0.00    -0.392 OA
ATOM     41  H   UNL     1     -11.993   1.091  -4.587  0.00  0.00    +0.210 HD
ENDBRANCH  39  40
ENDBRANCH  31  39
ENDBRANCH  26  27
ENDBRANCH   5  26
TORSDOF 15
