REMARK  Name = ZINC12566614
REMARK  13 active torsions:
REMARK  status: ('A' for Active; 'I' for Inactive)
REMARK    1  A    between atoms: C_1  and  C_2
REMARK    2  A    between atoms: C_2  and  C_3
REMARK    3  A    between atoms: C_3  and  C_5
REMARK    4  A    between atoms: C_3  and  N_57
REMARK    5  A    between atoms: C_5  and  O_6
REMARK    6  A    between atoms: C_7  and  C_8
REMARK    7  A    between atoms: C_7  and  N_57
REMARK    8  A    between atoms: N_10  and  C_11
REMARK    9  A    between atoms: C_16  and  C_17
REMARK   10  A    between atoms: C_19  and  C_20
REMARK   11  A    between atoms: C_19  and  N_57
REMARK   12  A    between atoms: N_22  and  C_23
REMARK   13  A    between atoms: C_28  and  C_29
REMARK                            x       y       z     vdW  Elec       q    Type
REMARK                         _______ _______ _______ _____ _____    ______ ____
ROOT
ATOM      1  N   UNL     1      -1.003  -2.134   0.029  0.00  0.00    +0.394 N 
ATOM      2  H   UNL     1      -0.285  -2.702   0.495  0.00  0.00    -0.080 HD
ENDROOT
BRANCH   1   3
ATOM      3  C   UNL     1      -0.704  -2.073  -1.417  0.00  0.00    -0.042 C 
BRANCH   3   5
ATOM      4  C   UNL     1       0.808  -4.057  -1.279  0.00  0.00    +0.002 C 
ATOM      5  C   UNL     1      -0.457  -3.494  -1.929  0.00  0.00    -0.016 C 
ENDBRANCH   3   5
BRANCH   3   6
ATOM      6  C   UNL     1      -1.875  -1.452  -2.181  0.00  0.00    +0.140 C 
BRANCH   6   7
ATOM      7  O   UNL     1      -2.043  -0.093  -1.772  0.00  0.00    -0.397 OA
ATOM      8  H   UNL     1      -2.770   0.364  -2.217  0.00  0.00    +0.209 HD
ENDBRANCH   6   7
ENDBRANCH   3   6
ENDBRANCH   1   3
BRANCH   1   9
ATOM      9  C   UNL     1      -0.988  -0.773   0.606  0.00  0.00    +0.020 C 
BRANCH   9  10
ATOM     10  C   UNL     1       0.418  -0.234   0.544  0.00  0.00    +0.201 C 
ATOM     11  O   UNL     1       1.304  -0.905   0.057  0.00  0.00    -0.278 OA
ATOM     12  N   UNL     1       0.691   0.993   1.030  0.00  0.00    -0.287 N 
ATOM     13  H   UNL     1      -0.027   1.554   1.360  0.00  0.00    +0.155 HD
BRANCH  12  14
ATOM     14  C   UNL     1       2.011   1.458   1.054  0.00  0.00    +0.038 A 
ATOM     15  C   UNL     1       3.067   0.555   1.067  0.00  0.00    +0.023 A 
ATOM     16  C   UNL     1       4.368   1.017   1.091  0.00  0.00    +0.003 A 
ATOM     17  C   UNL     1       4.621   2.376   1.101  0.00  0.00    +0.020 A 
ATOM     18  C   UNL     1       3.572   3.278   1.087  0.00  0.00    +0.046 A 
ATOM     19  C   UNL     1       2.267   2.822   1.058  0.00  0.00    -0.011 A 
ATOM     20  C   UNL     1       1.125   3.804   1.036  0.00  0.00    +0.047 C 
ATOM     21 CL   UNL     1       3.894   4.984   1.101  0.00  0.00    -0.083 Cl
ENDBRANCH  12  14
ENDBRANCH   9  10
ENDBRANCH   1   9
BRANCH   1  22
ATOM     22  C   UNL     1      -2.325  -2.760   0.246  0.00  0.00    +0.020 C 
BRANCH  22  23
ATOM     23  C   UNL     1      -2.146  -4.256   0.292  0.00  0.00    +0.201 C 
ATOM     24  O   UNL     1      -1.036  -4.731   0.404  0.00  0.00    -0.278 OA
ATOM     25  N   UNL     1      -3.220  -5.065   0.208  0.00  0.00    -0.287 N 
ATOM     26  H   UNL     1      -4.099  -4.689   0.044  0.00  0.00    +0.155 HD
BRANCH  25  27
ATOM     27  C   UNL     1      -3.068  -6.448   0.357  0.00  0.00    +0.038 A 
ATOM     28  C   UNL     1      -2.100  -6.953   1.217  0.00  0.00    +0.023 A 
ATOM     29  C   UNL     1      -1.951  -8.318   1.362  0.00  0.00    +0.003 A 
ATOM     30  C   UNL     1      -2.764  -9.183   0.652  0.00  0.00    +0.020 A 
ATOM     31  C   UNL     1      -3.728  -8.684  -0.205  0.00  0.00    +0.046 A 
ATOM     32  C   UNL     1      -3.886  -7.319  -0.350  0.00  0.00    -0.011 A 
ATOM     33  C   UNL     1      -4.941  -6.775  -1.279  0.00  0.00    +0.047 C 
ATOM     34 CL   UNL     1      -4.745  -9.774  -1.095  0.00  0.00    -0.083 Cl
ENDBRANCH  25  27
ENDBRANCH  22  23
ENDBRANCH   1  22
TORSDOF 10
