REMARK  Name = ZINC38596520
REMARK  7 active torsions:
REMARK  status: ('A' for Active; 'I' for Inactive)
REMARK    1  A    between atoms: C_1  and  C_2
REMARK    2  A    between atoms: C_5  and  C_24
REMARK    3  A    between atoms: N_7  and  C_8
REMARK    4  A    between atoms: C_8  and  C_9
REMARK    5  A    between atoms: C_9  and  C_10
REMARK    6  A    between atoms: N_12  and  N_13
REMARK    7  A    between atoms: C_14  and  C_15
REMARK                            x       y       z     vdW  Elec       q    Type
REMARK                         _______ _______ _______ _____ _____    ______ ____
ROOT
ATOM      1  C   UNL     1       3.776  -2.591   1.770  0.00  0.00    +0.233 C 
ATOM      2  O   UNL     1       4.013  -2.838   0.607  0.00  0.00    -0.274 OA
ATOM      3  N   UNL     1       4.583  -3.069   2.738  0.00  0.00    -0.207 N 
ATOM      4  H   UNL     1       4.393  -2.871   3.669  0.00  0.00    +0.177 HD
ENDROOT
BRANCH   3   5
ATOM      5  N   UNL     1       5.695  -3.852   2.401  0.00  0.00    -0.188 NA
ATOM      6  C   UNL     1       6.478  -4.316   3.342  0.00  0.00    +0.136 C 
BRANCH   6   7
ATOM      7  C   UNL     1       7.591  -5.099   3.004  0.00  0.00    +0.000 C 
ATOM      8  C   UNL     1       8.514  -5.671   3.876  0.00  0.00    +0.004 A 
ATOM      9  C   UNL     1       8.634  -5.656   5.284  0.00  0.00    +0.010 A 
ATOM     10  C   UNL     1       9.659  -6.316   5.879  0.00  0.00    +0.001 A 
ATOM     11  C   UNL     1      10.611  -7.017   5.133  0.00  0.00    +0.002 A 
ATOM     12  C   UNL     1      10.559  -7.074   3.780  0.00  0.00    +0.026 A 
ATOM     13  C   UNL     1       9.515  -6.408   3.085  0.00  0.00    +0.043 A 
ATOM     14  N   UNL     1       9.247  -6.312   1.800  0.00  0.00    -0.380 N 
ATOM     15  C   UNL     1       8.037  -5.506   1.617  0.00  0.00    +0.150 C 
ATOM     16  H   UNL     1       9.766  -6.715   1.087  0.00  0.00    +0.160 HD
ENDBRANCH   6   7
ENDBRANCH   3   5
BRANCH   1  17
ATOM     17  C   UNL     1       2.580  -1.749   2.133  0.00  0.00    +0.114 C 
BRANCH  17  18
ATOM     18  C   UNL     1       1.840  -1.339   0.858  0.00  0.00    +0.115 C 
BRANCH  18  24
ATOM     19  C   UNL     1      -0.019   1.526   0.010  0.00  0.00    +0.030 C 
ATOM     20  C   UNL     1       0.002  -0.004   0.002  0.00  0.00    +0.097 C 
ATOM     21  C   UNL     1      -1.405  -0.553   0.092  0.00  0.00    +0.012 C 
ATOM     22  C   UNL     1      -1.468  -1.261   1.202  0.00  0.00    +0.013 C 
ATOM     23  N   UNL     1      -0.265  -1.257   1.879  0.00  0.00    -0.282 N 
ATOM     24  N   UNL     1       0.674  -0.518   1.212  0.00  0.00    -0.222 NA
ATOM     25  C   UNL     1      -2.703  -1.985   1.674  0.00  0.00    +0.061 C 
ATOM     26  H   UNL     1      -0.106  -1.719   2.717  0.00  0.00    +0.166 HD
ENDBRANCH  18  24
ENDBRANCH  17  18
ENDBRANCH   1  17
TORSDOF 5
