REMARK  Name = ZINC25397531
REMARK  7 active torsions:
REMARK  status: ('A' for Active; 'I' for Inactive)
REMARK    1  A    between atoms: C_1  and  C_2
REMARK    2  A    between atoms: N_11  and  C_36
REMARK    3  A    between atoms: N_16  and  C_17
REMARK    4  A    between atoms: C_17  and  N_19
REMARK    5  A    between atoms: N_19  and  C_20
REMARK    6  A    between atoms: C_22  and  S_27
REMARK    7  A    between atoms: S_27  and  N_30
REMARK                            x       y       z     vdW  Elec       q    Type
REMARK                         _______ _______ _______ _____ _____    ______ ____
ROOT
ATOM      1  C   UNL     1      -4.540   7.214   2.888  0.00  0.00    +0.142 C 
ATOM      2  S   UNL     1      -4.633   6.106   4.191  0.00  0.00    -0.018 S 
ENDROOT
BRANCH   1  16
ATOM      3  C   UNL     1      -9.935   9.620   5.884  0.00  0.00    +0.044 C 
ATOM      4  C   UNL     1      -8.743   9.197   5.066  0.00  0.00    -0.050 A 
ATOM      5  C   UNL     1      -7.887   8.236   5.566  0.00  0.00    +0.005 A 
ATOM      6  C   UNL     1      -6.771   7.811   4.862  0.00  0.00    +0.024 A 
ATOM      7  C   UNL     1      -6.544   8.393   3.611  0.00  0.00    +0.039 A 
ATOM      8  C   UNL     1      -7.420   9.360   3.115  0.00  0.00    -0.023 A 
ATOM      9  C   UNL     1      -8.527   9.783   3.824  0.00  0.00    +0.009 A 
ATOM     10  C   UNL     1      -6.932   9.793   1.753  0.00  0.00    +0.025 C 
ATOM     11  C   UNL     1      -7.989   9.438   0.725  0.00  0.00    -0.069 C 
ATOM     12  N   UNL     1      -7.427   9.135  -0.589  0.00  0.00    +0.378 N 
ATOM     13  C   UNL     1      -6.507   7.989  -0.482  0.00  0.00    -0.077 C 
ATOM     14  C   UNL     1      -5.271   8.459   0.280  0.00  0.00    +0.005 C 
ATOM     15  C   UNL     1      -5.606   9.076   1.603  0.00  0.00    +0.085 C 
ATOM     16  N   UNL     1      -5.497   8.151   2.731  0.00  0.00    -0.279 N 
ATOM     17  C   UNL     1      -8.489   8.868  -1.567  0.00  0.00    -0.096 C 
ATOM     18  H   UNL     1      -6.867  10.015  -0.939  0.00  0.00    -0.082 HD
ENDBRANCH   1  16
BRANCH   1  19
ATOM     19  N   UNL     1      -3.511   7.149   2.020  0.00  0.00    -0.295 N 
ATOM     20  H   UNL     1      -3.514   6.396   1.219  0.00  0.00    +0.154 HD
BRANCH  19  21
ATOM     21  C   UNL     1      -2.440   8.042   2.138  0.00  0.00    +0.053 A 
ATOM     22  C   UNL     1      -2.479   9.056   3.085  0.00  0.00    +0.053 A 
ATOM     23  C   UNL     1      -1.423   9.939   3.195  0.00  0.00    +0.107 A 
ATOM     24  C   UNL     1      -0.320   9.806   2.371  0.00  0.00    +0.030 A 
ATOM     25  C   UNL     1      -0.274   8.794   1.430  0.00  0.00    +0.024 A 
ATOM     26  C   UNL     1      -1.331   7.911   1.310  0.00  0.00    +0.062 A 
ATOM     27 CL   UNL     1      -1.273   6.641   0.129  0.00  0.00    -0.082 Cl
BRANCH  23  28
ATOM     28  S   UNL     1      -1.476  11.231   4.392  0.00  0.00    +0.061 S 
ATOM     29  O   UNL     1      -0.128  11.585   4.668  0.00  0.00    -0.153 OA
ATOM     30  O   UNL     1      -2.376  10.807   5.407  0.00  0.00    -0.153 OA
BRANCH  28  31
ATOM     31  N   UNL     1      -2.171  12.546   3.662  0.00  0.00    -0.172 NA
ATOM     32  C   UNL     1      -1.349  13.541   2.956  0.00  0.00    +0.137 C 
ATOM     33  C   UNL     1      -1.732  14.934   3.467  0.00  0.00    +0.177 C 
ATOM     34  O   UNL     1      -3.149  15.098   3.373  0.00  0.00    -0.377 OA
ATOM     35  C   UNL     1      -3.898  14.185   4.178  0.00  0.00    +0.177 C 
ATOM     36  C   UNL     1      -3.627  12.753   3.703  0.00  0.00    +0.137 C 
ENDBRANCH  28  31
ENDBRANCH  23  28
ENDBRANCH  19  21
ENDBRANCH   1  19
TORSDOF 5
