REMARK  Name = ZINC38061077
REMARK  3 active torsions:
REMARK  status: ('A' for Active; 'I' for Inactive)
REMARK    1  A    between atoms: C_6  and  N_7
REMARK    2  A    between atoms: N_7  and  C_8
REMARK    3  A    between atoms: C_8  and  C_9
REMARK                            x       y       z     vdW  Elec       q    Type
REMARK                         _______ _______ _______ _____ _____    ______ ____
ROOT
ATOM      1  C   UNL     1      -0.017   1.530   0.015  0.00  0.00    +0.003 C 
ATOM      2  C   UNL     1       1.424   2.052   0.002  0.00  0.00    +0.108 C 
ATOM      3  N   UNL     1       2.129   1.465  -1.145  0.00  0.00    -0.286 N 
ATOM      4  C   UNL     1       2.129   0.004  -1.302  0.00  0.00    +0.108 C 
ATOM      5  C   UNL     1       0.681  -0.495  -1.275  0.00  0.00    +0.003 C 
ATOM      6  C   UNL     1      -0.000  -0.000   0.003  0.00  0.00    -0.069 C 
ATOM      7  C   UNL     1       2.764   2.251  -2.037  0.00  0.00    +0.300 C 
ATOM      8  O   UNL     1       2.677   3.461  -1.951  0.00  0.00    -0.253 OA
ATOM      9  N   UNL     1       3.495   1.697  -3.024  0.00  0.00    -0.313 N 
ATOM     10  H   UNL     1       3.506   0.734  -3.137  0.00  0.00    +0.146 HD
ATOM     11  H   UNL     1       4.010   2.261  -3.622  0.00  0.00    +0.146 HD
ENDROOT
BRANCH   6  12
ATOM     12  N   UNL     1      -1.379  -0.504   0.049  0.00  0.00    +0.383 N 
ATOM     13  H   UNL     1      -1.854  -0.113   0.848  0.00  0.00    -0.085 HD
ATOM     14  H   UNL     1      -1.864  -0.236  -0.795  0.00  0.00    -0.085 HD
BRANCH  12  15
ATOM     15  C   UNL     1      -1.362  -1.969   0.158  0.00  0.00    -0.048 C 
BRANCH  15  16
ATOM     16  C   UNL     1      -2.798  -2.494   0.206  0.00  0.00    +0.127 C 
ATOM     17  C   UNL     1      -2.781  -4.021   0.323  0.00  0.00    +0.189 C 
ATOM     18  O   UNL     1      -4.122  -4.495   0.480  0.00  0.00    -0.375 OA
ATOM     19  C   UNL     1      -4.795  -3.944   1.616  0.00  0.00    +0.188 C 
ATOM     20  C   UNL     1      -4.812  -2.418   1.498  0.00  0.00    +0.188 C 
ATOM     21  O   UNL     1      -3.471  -1.943   1.341  0.00  0.00    -0.374 OA
ENDBRANCH  15  16
ENDBRANCH  12  15
ENDBRANCH   6  12
TORSDOF 3
