REMARK  Name = ZINC36029905
REMARK  13 active torsions:
REMARK  status: ('A' for Active; 'I' for Inactive)
REMARK    1  A    between atoms: C_1  and  C_2
REMARK    2  A    between atoms: C_2  and  C_3
REMARK    3  A    between atoms: C_2  and  C_4
REMARK    4  A    between atoms: C_4  and  C_5
REMARK    5  A    between atoms: N_9  and  C_27
REMARK    6  A    between atoms: N_14  and  S_17
REMARK    7  A    between atoms: S_17  and  C_20
REMARK    8  A    between atoms: C_27  and  C_28
REMARK    9  A    between atoms: C_28  and  C_29
REMARK   10  A    between atoms: C_32  and  O_37
REMARK   11  A    between atoms: C_33  and  O_35
REMARK   12  A    between atoms: O_35  and  C_36
REMARK   13  A    between atoms: O_37  and  C_38
REMARK                            x       y       z     vdW  Elec       q    Type
REMARK                         _______ _______ _______ _____ _____    ______ ____
ROOT
ATOM      1  C   UNL     1      -1.177  -2.221  -0.452  0.00  0.00    +0.019 C 
ATOM      2  C   UNL     1      -2.607  -2.673  -0.247  0.00  0.00    +0.200 C 
ATOM      3  O   UNL     1      -3.365  -2.260   0.605  0.00  0.00    -0.277 OA
ATOM      4  N   UNL     1      -2.896  -3.611  -1.172  0.00  0.00    -0.313 N 
ATOM      5  C   UNL     1      -1.721  -3.842  -2.018  0.00  0.00    +0.006 C 
ATOM      6  N   UNL     1      -0.823  -2.684  -1.815  0.00  0.00    +0.401 N 
ATOM      7  C   UNL     1      -2.134  -3.926  -3.486  0.00  0.00    +0.023 C 
ATOM      8  C   UNL     1      -3.092  -5.106  -3.678  0.00  0.00    +0.109 C 
ATOM      9  N   UNL     1      -2.457  -6.321  -3.150  0.00  0.00    -0.177 NA
ATOM     10  C   UNL     1      -1.957  -6.316  -1.768  0.00  0.00    +0.109 C 
ATOM     11  C   UNL     1      -1.008  -5.125  -1.593  0.00  0.00    +0.023 C 
ATOM     12  H   UNL     1      -1.011  -1.964  -2.496  0.00  0.00    -0.082 HD
ATOM     13  H   UNL     1       0.144  -2.970  -1.855  0.00  0.00    -0.082 HD
ENDROOT
BRANCH   9  14
ATOM     14  S   UNL     1      -2.307  -7.673  -4.095  0.00  0.00    +0.061 S 
ATOM     15  O   UNL     1      -2.200  -8.779  -3.209  0.00  0.00    -0.153 OA
ATOM     16  O   UNL     1      -3.319  -7.588  -5.089  0.00  0.00    -0.153 OA
BRANCH  14  17
ATOM     17  C   UNL     1      -0.763  -7.551  -4.936  0.00  0.00    +0.106 A 
ATOM     18  C   UNL     1      -0.695  -6.926  -6.168  0.00  0.00    +0.031 A 
ATOM     19  C   UNL     1       0.515  -6.830  -6.828  0.00  0.00    +0.040 A 
ATOM     20  C   UNL     1       1.659  -7.360  -6.256  0.00  0.00    +0.124 A 
ATOM     21  C   UNL     1       1.590  -7.986  -5.023  0.00  0.00    +0.040 A 
ATOM     22  C   UNL     1       0.380  -8.076  -4.362  0.00  0.00    +0.031 A 
ATOM     23  F   UNL     1       2.843  -7.267  -6.901  0.00  0.00    -0.205 F 
ENDBRANCH  14  17
ENDBRANCH   9  14
BRANCH   1  24
ATOM     24  C   UNL     1      -1.082  -0.696  -0.365  0.00  0.00    -0.004 C 
BRANCH  24  26
ATOM     25  C   UNL     1       0.458   1.261  -0.563  0.00  0.00    +0.007 C 
ATOM     26  C   UNL     1       0.378  -0.266  -0.524  0.00  0.00    -0.018 C 
ATOM     27  C   UNL     1       1.195  -0.790   0.658  0.00  0.00    +0.007 C 
ENDBRANCH  24  26
ENDBRANCH   1  24
BRANCH   4  28
ATOM     28  C   UNL     1      -4.184  -4.294  -1.311  0.00  0.00    +0.110 C 
BRANCH  28  29
ATOM     29  C   UNL     1      -5.099  -3.475  -2.224  0.00  0.00    +0.054 C 
BRANCH  29  30
ATOM     30  C   UNL     1      -6.406  -4.203  -2.409  0.00  0.00    -0.042 A 
ATOM     31  C   UNL     1      -6.553  -5.106  -3.446  0.00  0.00    +0.007 A 
ATOM     32  C   UNL     1      -7.749  -5.775  -3.619  0.00  0.00    +0.049 A 
ATOM     33  C   UNL     1      -8.805  -5.543  -2.752  0.00  0.00    +0.161 A 
ATOM     34  C   UNL     1      -8.657  -4.635  -1.708  0.00  0.00    +0.162 A 
ATOM     35  C   UNL     1      -7.454  -3.971  -1.537  0.00  0.00    +0.053 A 
BRANCH  34  36
ATOM     36  O   UNL     1      -9.691  -4.404  -0.855  0.00  0.00    -0.491 OA
ATOM     37  C   UNL     1      -9.467  -3.459   0.194  0.00  0.00    +0.277 C 
ENDBRANCH  34  36
BRANCH  33  38
ATOM     38  O   UNL     1      -9.983  -6.201  -2.922  0.00  0.00    -0.491 OA
ATOM     39  C   UNL     1     -10.063  -7.118  -4.015  0.00  0.00    +0.277 C 
ENDBRANCH  33  38
ENDBRANCH  29  30
ENDBRANCH  28  29
ENDBRANCH   4  28
TORSDOF 9
