REMARK  Name = ZINC42525084
REMARK  8 active torsions:
REMARK  status: ('A' for Active; 'I' for Inactive)
REMARK    1  A    between atoms: C_1  and  N_2
REMARK    2  A    between atoms: N_6  and  S_9
REMARK    3  A    between atoms: S_9  and  N_12
REMARK    4  A    between atoms: N_12  and  C_13
REMARK    5  A    between atoms: N_12  and  C_14
REMARK    6  A    between atoms: C_14  and  C_15
REMARK    7  A    between atoms: C_15  and  C_16
REMARK    8  A    between atoms: C_16  and  N_17
REMARK                            x       y       z     vdW  Elec       q    Type
REMARK                         _______ _______ _______ _____ _____    ______ ____
ROOT
ATOM      1  S   UNL     1      -0.902  -2.984   2.876  0.00  0.00    +0.099 S 
ATOM      2  O   UNL     1      -0.187  -2.106   3.735  0.00  0.00    -0.141 OA
ATOM      3  O   UNL     1      -2.321  -3.050   2.864  0.00  0.00    -0.141 OA
ENDROOT
BRANCH   1   9
ATOM      4  C   UNL     1      -0.018   1.465   0.010  0.00  0.00    -0.096 C 
ATOM      5  N   UNL     1       0.002  -0.004   0.002  0.00  0.00    +0.379 N 
ATOM      6  C   UNL     1      -1.373  -0.483  -0.117  0.00  0.00    -0.078 C 
ATOM      7  C   UNL     1      -1.377  -1.819  -0.827  0.00  0.00    -0.001 C 
ATOM      8  C   UNL     1      -1.340  -2.953   0.213  0.00  0.00    +0.108 C 
ATOM      9  N   UNL     1      -0.433  -2.619   1.330  0.00  0.00    -0.168 NA
ATOM     10  C   UNL     1       0.853  -1.985   1.122  0.00  0.00    +0.092 C 
ATOM     11  C   UNL     1       0.689  -0.447   1.154  0.00  0.00    -0.062 C 
ATOM     12  H   UNL     1       0.515  -0.310  -0.812  0.00  0.00    -0.082 HD
ENDBRANCH   1   9
BRANCH   1  13
ATOM     13  N   UNL     1      -0.359  -4.514   3.204  0.00  0.00    -0.170 NA
ATOM     14  C   UNL     1       0.968  -4.710   3.793  0.00  0.00    +0.132 C 
BRANCH  13  15
ATOM     15  C   UNL     1      -1.206  -5.671   2.906  0.00  0.00    +0.108 C 
BRANCH  15  16
ATOM     16  C   UNL     1      -0.840  -6.230   1.530  0.00  0.00    -0.002 C 
BRANCH  16  17
ATOM     17  C   UNL     1      -1.725  -7.439   1.218  0.00  0.00    -0.085 C 
BRANCH  17  18
ATOM     18  N   UNL     1      -1.373  -7.976  -0.103  0.00  0.00    +0.378 N 
ATOM     19  H   UNL     1      -1.516  -7.265  -0.804  0.00  0.00    -0.090 HD
ATOM     20  H   UNL     1      -0.404  -8.259  -0.104  0.00  0.00    -0.090 HD
ATOM     21  H   UNL     1      -1.956  -8.773  -0.308  0.00  0.00    -0.090 HD
ENDBRANCH  17  18
ENDBRANCH  16  17
ENDBRANCH  15  16
ENDBRANCH  13  15
ENDBRANCH   1  13
TORSDOF 6
