REMARK  Name = ZINC06583057
REMARK  7 active torsions:
REMARK  status: ('A' for Active; 'I' for Inactive)
REMARK    1  A    between atoms: C_11  and  O_26
REMARK    2  A    between atoms: C_14  and  O_15
REMARK    3  A    between atoms: C_19  and  O_21
REMARK    4  A    between atoms: O_21  and  C_22
REMARK    5  A    between atoms: C_22  and  C_24
REMARK    6  A    between atoms: C_24  and  C_25
REMARK    7  A    between atoms: C_25  and  N_47
REMARK                            x       y       z     vdW  Elec       q    Type
REMARK                         _______ _______ _______ _____ _____    ______ ____
ROOT
ATOM      1  C   UNL     1       3.681   3.575  -0.008  0.00  0.00    +0.001 A 
ATOM      2  C   UNL     1       2.503   4.246  -0.283  0.00  0.00    +0.001 A 
ATOM      3  C   UNL     1       1.294   3.571  -0.280  0.00  0.00    +0.012 A 
ATOM      4  C   UNL     1       1.264   2.209   0.002  0.00  0.00    +0.033 A 
ATOM      5  C   UNL     1       2.463   1.527   0.280  0.00  0.00    +0.033 A 
ATOM      6  C   UNL     1       3.668   2.220   0.272  0.00  0.00    +0.012 A 
ATOM      7  C   UNL     1       2.429   0.078   0.578  0.00  0.00    +0.198 C 
ATOM      8  O   UNL     1       3.399  -0.474   1.060  0.00  0.00    -0.286 OA
ATOM      9  C   UNL     1       1.204  -0.688   0.283  0.00  0.00    +0.078 A 
ATOM     10  C   UNL     1       0.002  -0.004   0.002  0.00  0.00    +0.078 A 
ATOM     11  C   UNL     1      -1.149  -0.733  -0.282  0.00  0.00    +0.136 A 
ATOM     12  C   UNL     1      -1.120  -2.135  -0.286  0.00  0.00    +0.042 A 
ATOM     13  C   UNL     1       0.047  -2.800  -0.009  0.00  0.00    +0.005 A 
ATOM     14  C   UNL     1       1.216  -2.080   0.276  0.00  0.00    +0.132 A 
ATOM     15  C   UNL     1       0.139  -4.304   0.010  0.00  0.00    +0.039 C 
ATOM     16  C   UNL     1      -1.046  -4.926  -0.724  0.00  0.00    +0.009 C 
ATOM     17  C   UNL     1      -2.335  -4.312  -0.165  0.00  0.00    +0.050 C 
ATOM     18  C   UNL     1      -2.405  -2.853  -0.610  0.00  0.00    +0.210 C 
ATOM     19  C   UNL     1      -0.018   1.470   0.010  0.00  0.00    +0.198 C 
ATOM     20  O   UNL     1      -1.075   2.071   0.018  0.00  0.00    -0.286 OA
ENDROOT
BRANCH  14  21
ATOM     21  O   UNL     1       2.367  -2.744   0.546  0.00  0.00    -0.506 OA
ATOM     22  H   UNL     1       2.906  -2.931  -0.234  0.00  0.00    +0.292 HD
ENDBRANCH  14  21
BRANCH  11  23
ATOM     23  O   UNL     1      -2.307  -0.083  -0.556  0.00  0.00    -0.506 OA
ATOM     24  H   UNL     1      -2.436   0.113  -1.494  0.00  0.00    +0.292 HD
ENDBRANCH  11  23
BRANCH  18  25
ATOM     25  O   UNL     1      -3.505  -2.196   0.074  0.00  0.00    -0.456 OA
BRANCH  25  26
ATOM     26  C   UNL     1      -4.709  -2.249  -0.517  0.00  0.00    +0.306 C 
ATOM     27  O   UNL     1      -4.839  -2.825  -1.572  0.00  0.00    -0.251 OA
BRANCH  26  28
ATOM     28  C   UNL     1      -5.898  -1.591   0.133  0.00  0.00    +0.101 C 
BRANCH  28  29
ATOM     29  C   UNL     1      -7.137  -1.798  -0.740  0.00  0.00    -0.075 C 
BRANCH  29  32
ATOM     30  H   UNL     1      -8.118  -0.177   0.068  0.00  0.00    -0.090 HD
ATOM     31  H   UNL     1      -9.128  -1.278  -0.663  0.00  0.00    -0.090 HD
ATOM     32  N   UNL     1      -8.297  -1.169  -0.084  0.00  0.00    +0.378 N 
ATOM     33  H   UNL     1      -8.459  -1.622   0.823  0.00  0.00    -0.090 HD
ENDBRANCH  29  32
ENDBRANCH  28  29
ENDBRANCH  26  28
ENDBRANCH  25  26
ENDBRANCH  18  25
TORSDOF 7
