REMARK  Name = ZINC64417736
REMARK  11 active torsions:
REMARK  status: ('A' for Active; 'I' for Inactive)
REMARK    1  A    between atoms: C_1  and  O_2
REMARK    2  A    between atoms: O_2  and  C_3
REMARK    3  A    between atoms: C_6  and  C_9
REMARK    4  A    between atoms: C_9  and  C_10
REMARK    5  A    between atoms: C_10  and  N_11
REMARK    6  A    between atoms: C_12  and  C_14
REMARK    7  A    between atoms: C_14  and  C_15
REMARK    8  A    between atoms: C_15  and  C_16
REMARK    9  A    between atoms: N_20  and  C_24
REMARK   10  A    between atoms: C_24  and  C_25
REMARK   11  A    between atoms: C_25  and  C_26
REMARK                            x       y       z     vdW  Elec       q    Type
REMARK                         _______ _______ _______ _____ _____    ______ ____
ROOT
ATOM      1  C   UNL     1       1.937  -5.427  11.101  0.00  0.00    +0.161 C 
ATOM      2  C   UNL     1       0.975  -5.631  12.255  0.00  0.00    +0.243 C 
ATOM      3  O   UNL     1       0.392  -4.773  12.883  0.00  0.00    -0.273 OA
ATOM      4  N   UNL     1       0.902  -6.964  12.436  0.00  0.00    -0.224 N 
ATOM      5  C   UNL     1       1.676  -7.624  11.567  0.00  0.00    +0.309 C 
ATOM      6  O   UNL     1       1.776  -8.835  11.535  0.00  0.00    -0.252 OA
ATOM      7  N   UNL     1       2.334  -6.796  10.731  0.00  0.00    -0.288 N 
ATOM      8  H   UNL     1       2.948  -7.050  10.024  0.00  0.00    +0.151 HD
ENDROOT
BRANCH   1   9
ATOM      9  C   UNL     1       1.234  -4.735   9.931  0.00  0.00    +0.041 C 
BRANCH   9  10
ATOM     10  C   UNL     1       2.244  -4.478   8.810  0.00  0.00    +0.098 C 
BRANCH  10  12
ATOM     11  N   UNL     1       2.249  -3.470   6.551  0.00  0.00    -0.315 N 
ATOM     12  C   UNL     1       1.552  -3.796   7.658  0.00  0.00    +0.213 C 
ATOM     13  O   UNL     1       0.368  -3.542   7.726  0.00  0.00    -0.276 OA
ATOM     14  H   UNL     1       3.196  -3.673   6.497  0.00  0.00    +0.149 HD
BRANCH  11  15
ATOM     15  C   UNL     1       1.577  -2.808   5.431  0.00  0.00    +0.109 C 
BRANCH  15  16
ATOM     16  C   UNL     1       2.587  -2.550   4.310  0.00  0.00    +0.054 C 
BRANCH  16  20
ATOM     17  C   UNL     1       0.626  -0.618   1.042  0.00  0.00    +0.120 A 
ATOM     18  C   UNL     1       1.202   0.138   2.051  0.00  0.00    +0.046 A 
ATOM     19  C   UNL     1       1.835  -0.488   3.107  0.00  0.00    +0.007 A 
ATOM     20  C   UNL     1       1.895  -1.869   3.158  0.00  0.00    -0.046 A 
ATOM     21  C   UNL     1       1.322  -2.625   2.152  0.00  0.00    +0.007 A 
ATOM     22  C   UNL     1       0.682  -2.003   1.098  0.00  0.00    +0.046 A 
BRANCH  17  24
ATOM     23  C   UNL     1      -0.017   1.425   0.010  0.00  0.00    +0.277 C 
ATOM     24  O   UNL     1       0.002  -0.004   0.002  0.00  0.00    -0.495 OA
ENDBRANCH  17  24
ENDBRANCH  16  20
ENDBRANCH  15  16
ENDBRANCH  11  15
ENDBRANCH  10  12
ENDBRANCH   9  10
ENDBRANCH   1   9
BRANCH   4  25
ATOM     25  C   UNL     1       0.077  -7.612  13.460  0.00  0.00    +0.122 C 
BRANCH  25  26
ATOM     26  C   UNL     1      -1.311  -7.903  12.887  0.00  0.00    +0.052 C 
BRANCH  26  27
ATOM     27  C   UNL     1      -2.159  -8.569  13.940  0.00  0.00    -0.040 C 
ATOM     28  C   UNL     1      -3.034  -7.968  14.780  0.00  0.00    -0.001 A 
ATOM     29  C   UNL     1      -3.440  -6.569  14.957  0.00  0.00    +0.010 A 
ATOM     30  C   UNL     1      -4.359  -6.268  15.903  0.00  0.00    +0.001 A 
ATOM     31  C   UNL     1      -4.931  -7.256  16.716  0.00  0.00    +0.002 A 
ATOM     32  C   UNL     1      -4.608  -8.563  16.612  0.00  0.00    +0.026 A 
ATOM     33  C   UNL     1      -3.652  -8.993  15.650  0.00  0.00    +0.043 A 
ATOM     34  N   UNL     1      -3.179 -10.181  15.361  0.00  0.00    -0.380 N 
ATOM     35  C   UNL     1      -2.209 -10.044  14.268  0.00  0.00    +0.144 C 
ATOM     36  H   UNL     1      -3.430 -11.011  15.794  0.00  0.00    +0.160 HD
ENDBRANCH  26  27
ENDBRANCH  25  26
ENDBRANCH   4  25
TORSDOF 10
