REMARK  Name = ZINC15419205
REMARK  11 active torsions:
REMARK  status: ('A' for Active; 'I' for Inactive)
REMARK    1  A    between atoms: C_1  and  C_2
REMARK    2  A    between atoms: C_7  and  N_8
REMARK    3  A    between atoms: C_9  and  C_11
REMARK    4  A    between atoms: C_11  and  N_57
REMARK    5  A    between atoms: C_12  and  N_57
REMARK    6  A    between atoms: C_13  and  C_15
REMARK    7  A    between atoms: C_13  and  C_16
REMARK    8  A    between atoms: C_13  and  N_57
REMARK    9  A    between atoms: N_18  and  C_19
REMARK   10  A    between atoms: C_19  and  C_20
REMARK   11  A    between atoms: C_20  and  C_21
REMARK                            x       y       z     vdW  Elec       q    Type
REMARK                         _______ _______ _______ _____ _____    ______ ____
ROOT
ATOM      1  C   UNL     1      -0.789   1.988  -1.107  0.00  0.00    -0.094 C 
ATOM      2  N   UNL     1      -0.027   1.473   0.050  0.00  0.00    +0.391 N 
ATOM      3  H   UNL     1      -0.489   1.777   0.916  0.00  0.00    -0.080 HD
ENDROOT
BRANCH   2   4
ATOM      4  C   UNL     1       1.350   2.009   0.028  0.00  0.00    +0.016 C 
ATOM      5  C   UNL     1       2.005   1.748  -1.331  0.00  0.00    -0.004 C 
BRANCH   4   6
ATOM      6  C   UNL     1       1.298   3.493   0.284  0.00  0.00    +0.199 C 
ATOM      7  O   UNL     1       0.230   4.043   0.449  0.00  0.00    -0.278 OA
ATOM      8  N   UNL     1       2.439   4.209   0.329  0.00  0.00    -0.316 N 
ATOM      9  H   UNL     1       3.294   3.769   0.197  0.00  0.00    +0.149 HD
BRANCH   8  10
ATOM     10  C   UNL     1       2.389   5.652   0.579  0.00  0.00    +0.108 C 
BRANCH  10  11
ATOM     11  C   UNL     1       3.810   6.219   0.580  0.00  0.00    +0.049 C 
BRANCH  11  12
ATOM     12  C   UNL     1       3.759   7.703   0.836  0.00  0.00    -0.072 C 
ATOM     13  C   UNL     1       3.912   8.114   2.054  0.00  0.00    -0.028 C 
ATOM     14  C   UNL     1       3.876   9.557   2.465  0.00  0.00    +0.027 C 
ATOM     15  C   UNL     1       4.061  10.458   1.242  0.00  0.00    +0.004 C 
ATOM     16  C   UNL     1       3.092   9.996   0.147  0.00  0.00    +0.005 C 
ATOM     17  C   UNL     1       3.538   8.613  -0.337  0.00  0.00    +0.030 C 
ENDBRANCH  11  12
ENDBRANCH  10  11
ENDBRANCH   8  10
ENDBRANCH   4   6
ENDBRANCH   2   4
BRANCH   2  18
ATOM     18  C   UNL     1       0.005  -0.004   0.017  0.00  0.00    +0.020 C 
BRANCH  18  20
ATOM     19  N   UNL     1      -1.612  -1.855   0.297  0.00  0.00    -0.287 N 
ATOM     20  C   UNL     1      -1.387  -0.527   0.262  0.00  0.00    +0.201 C 
ATOM     21  O   UNL     1      -2.305   0.248   0.429  0.00  0.00    -0.278 OA
ATOM     22  H   UNL     1      -0.896  -2.474   0.085  0.00  0.00    +0.155 HD
BRANCH  19  29
ATOM     23  C   UNL     1      -2.364  -4.429  -0.653  0.00  0.00    +0.046 C 
ATOM     24  C   UNL     1      -3.286  -3.593   0.196  0.00  0.00    -0.028 A 
ATOM     25  C   UNL     1      -4.535  -4.073   0.539  0.00  0.00    +0.020 A 
ATOM     26  C   UNL     1      -5.384  -3.303   1.314  0.00  0.00    +0.018 A 
ATOM     27  C   UNL     1      -4.983  -2.053   1.752  0.00  0.00    +0.017 A 
ATOM     28  C   UNL     1      -3.733  -1.571   1.417  0.00  0.00    +0.024 A 
ATOM     29  C   UNL     1      -2.879  -2.342   0.639  0.00  0.00    +0.036 A 
ATOM     30 BR   UNL     1      -7.096  -3.960   1.775  0.00  0.00    -0.050 Br
ENDBRANCH  19  29
ENDBRANCH  18  20
ENDBRANCH   2  18
TORSDOF 8
