REMARK  Name = ZINC41584643
REMARK  11 active torsions:
REMARK  status: ('A' for Active; 'I' for Inactive)
REMARK    1  A    between atoms: C_1  and  O_2
REMARK    2  A    between atoms: O_2  and  C_3
REMARK    3  A    between atoms: C_6  and  C_13
REMARK    4  A    between atoms: C_7  and  O_11
REMARK    5  A    between atoms: C_8  and  O_9
REMARK    6  A    between atoms: O_9  and  C_10
REMARK    7  A    between atoms: O_11  and  C_12
REMARK    8  A    between atoms: C_20  and  O_38
REMARK    9  A    between atoms: C_21  and  C_24
REMARK   10  A    between atoms: C_24  and  N_25
REMARK   11  A    between atoms: C_30  and  C_32
REMARK                            x       y       z     vdW  Elec       q    Type
REMARK                         _______ _______ _______ _____ _____    ______ ____
ROOT
ATOM      1  C   UNL     1      -4.313  -2.445   0.951  0.00  0.00    +0.062 C 
ATOM      2  C   UNL     1      -5.484  -1.754   0.960  0.00  0.00    +0.176 C 
ATOM      3  C   UNL     1      -6.815  -2.307   1.240  0.00  0.00    +0.231 C 
ATOM      4  O   UNL     1      -7.101  -3.461   1.509  0.00  0.00    -0.283 OA
ATOM      5  C   UNL     1      -7.727  -1.155   1.123  0.00  0.00    +0.068 A 
ATOM      6  C   UNL     1      -9.107  -1.011   1.268  0.00  0.00    +0.019 A 
ATOM      7  C   UNL     1      -9.687   0.214   1.094  0.00  0.00    +0.046 A 
ATOM      8  C   UNL     1      -8.903   1.319   0.772  0.00  0.00    +0.122 A 
ATOM      9  C   UNL     1      -7.532   1.191   0.624  0.00  0.00    +0.020 A 
ATOM     10  C   UNL     1      -6.926  -0.048   0.798  0.00  0.00    +0.144 A 
ATOM     11  O   UNL     1      -5.634  -0.430   0.718  0.00  0.00    -0.451 OA
ENDROOT
BRANCH   1  15
ATOM     12  C   UNL     1      -0.715  -0.498  -0.178  0.00  0.00    +0.165 A 
ATOM     13  C   UNL     1      -1.831   0.252   0.179  0.00  0.00    +0.050 A 
ATOM     14  C   UNL     1      -3.000  -0.374   0.546  0.00  0.00    +0.015 A 
ATOM     15  C   UNL     1      -3.070  -1.774   0.560  0.00  0.00    +0.024 A 
ATOM     16  C   UNL     1      -1.943  -2.532   0.199  0.00  0.00    +0.172 A 
ATOM     17  C   UNL     1      -0.773  -1.888  -0.174  0.00  0.00    +0.204 A 
BRANCH  12  19
ATOM     18  C   UNL     1       0.462   1.553  -0.416  0.00  0.00    +0.277 C 
ATOM     19  O   UNL     1       0.434   0.130  -0.539  0.00  0.00    -0.491 OA
ENDBRANCH  12  19
BRANCH  17  20
ATOM     20  O   UNL     1       0.321  -2.615  -0.531  0.00  0.00    -0.488 OA
ATOM     21  C   UNL     1       1.229  -2.975   0.512  0.00  0.00    +0.277 C 
ENDBRANCH  17  20
BRANCH  16  22
ATOM     22  O   UNL     1      -2.001  -3.889   0.209  0.00  0.00    -0.491 OA
ATOM     23  C   UNL     1      -2.414  -4.530  -1.000  0.00  0.00    +0.277 C 
ENDBRANCH  16  22
ENDBRANCH   1  15
BRANCH   8  24
ATOM     24  O   UNL     1      -9.488   2.531   0.601  0.00  0.00    -0.506 OA
ATOM     25  H   UNL     1      -9.549   3.057   1.410  0.00  0.00    +0.292 HD
ENDBRANCH   8  24
BRANCH   9  26
ATOM     26  C   UNL     1      -6.696   2.395   0.274  0.00  0.00    -0.035 C 
BRANCH  26  27
ATOM     27  N   UNL     1      -6.741   2.617  -1.177  0.00  0.00    +0.387 N 
ATOM     28  C   UNL     1      -6.086   1.496  -1.863  0.00  0.00    -0.078 C 
ATOM     29  C   UNL     1      -6.201   1.682  -3.377  0.00  0.00    -0.019 C 
ATOM     30  C   UNL     1      -5.522   2.995  -3.778  0.00  0.00    -0.003 C 
ATOM     31  C   UNL     1      -6.164   4.148  -3.001  0.00  0.00    -0.011 C 
ATOM     32  C   UNL     1      -6.050   3.871  -1.501  0.00  0.00    -0.036 C 
ATOM     33  H   UNL     1      -7.702   2.677  -1.478  0.00  0.00    -0.080 HD
BRANCH  32  34
ATOM     34  C   UNL     1      -6.681   5.004  -0.732  0.00  0.00    -0.043 A 
ATOM     35  C   UNL     1      -5.890   5.908  -0.040  0.00  0.00    +0.005 A 
ATOM     36  C   UNL     1      -6.513   6.934   0.653  0.00  0.00    +0.020 A 
ATOM     37  C   UNL     1      -7.893   7.021   0.631  0.00  0.00    +0.111 A 
ATOM     38  N   UNL     1      -8.613   6.143  -0.038  0.00  0.00    -0.263 NA
ATOM     39  C   UNL     1      -8.054   5.157  -0.713  0.00  0.00    +0.112 A 
ENDBRANCH  32  34
ENDBRANCH  26  27
ENDBRANCH   9  26
TORSDOF 8
