REMARK  Name = ZINC66939984
REMARK  8 active torsions:
REMARK  status: ('A' for Active; 'I' for Inactive)
REMARK    1  A    between atoms: C_4  and  O_21
REMARK    2  A    between atoms: C_5  and  C_7
REMARK    3  A    between atoms: C_7  and  N_8
REMARK    4  A    between atoms: N_8  and  C_9
REMARK    5  A    between atoms: C_9  and  C_11
REMARK    6  A    between atoms: C_9  and  C_18
REMARK    7  A    between atoms: O_21  and  C_22
REMARK    8  A    between atoms: C_22  and  C_23
REMARK                            x       y       z     vdW  Elec       q    Type
REMARK                         _______ _______ _______ _____ _____    ______ ____
ROOT
ATOM      1  N   UNL     1       1.488  -2.681   1.337  0.00  0.00    +0.392 N 
ATOM      2  H   UNL     1       2.380  -2.334   1.655  0.00  0.00    -0.084 HD
ATOM      3  H   UNL     1       0.761  -2.357   1.958  0.00  0.00    -0.084 HD
ENDROOT
BRANCH   1   4
ATOM      4  C   UNL     1       1.227  -2.187  -0.022  0.00  0.00    -0.042 C 
BRANCH   4   9
ATOM      5  C   UNL     1      -0.017   1.378   0.010  0.00  0.00    +0.000 A 
ATOM      6  C   UNL     1       1.170   2.088   0.002  0.00  0.00    +0.004 A 
ATOM      7  C   UNL     1       2.377   1.417  -0.013  0.00  0.00    +0.046 A 
ATOM      8  C   UNL     1       2.399   0.030  -0.021  0.00  0.00    +0.122 A 
ATOM      9  C   UNL     1       1.207  -0.680  -0.013  0.00  0.00    -0.023 A 
ATOM     10  C   UNL     1       0.002  -0.004   0.002  0.00  0.00    +0.005 A 
BRANCH   8  11
ATOM     11  O   UNL     1       3.586  -0.632  -0.037  0.00  0.00    -0.483 OA
BRANCH  11  12
ATOM     12  C   UNL     1       4.772   0.164  -0.045  0.00  0.00    +0.342 C 
BRANCH  12  13
ATOM     13  C   UNL     1       5.999  -0.751  -0.062  0.00  0.00    +0.424 C 
ATOM     14  F   UNL     1       5.967  -1.552  -1.209  0.00  0.00    -0.167 F 
ATOM     15  F   UNL     1       7.161   0.028  -0.070  0.00  0.00    -0.167 F 
ATOM     16  F   UNL     1       5.991  -1.564   1.076  0.00  0.00    -0.167 F 
ENDBRANCH  12  13
ENDBRANCH  11  12
ENDBRANCH   8  11
ENDBRANCH   4   9
ENDBRANCH   1   4
BRANCH   1  17
ATOM     17  C   UNL     1       1.507  -4.150   1.328  0.00  0.00    +0.047 C 
BRANCH  17  18
ATOM     18  C   UNL     1       1.651  -4.658   2.740  0.00  0.00    -0.053 A 
ATOM     19  C   UNL     1       2.498  -4.014   3.623  0.00  0.00    +0.005 A 
ATOM     20  C   UNL     1       2.631  -4.479   4.917  0.00  0.00    +0.038 A 
ATOM     21  C   UNL     1       1.916  -5.591   5.329  0.00  0.00    +0.123 A 
ATOM     22  C   UNL     1       1.069  -6.236   4.444  0.00  0.00    +0.038 A 
ATOM     23  C   UNL     1       0.933  -5.765   3.152  0.00  0.00    +0.005 A 
ATOM     24  F   UNL     1       2.046  -6.047   6.595  0.00  0.00    -0.205 F 
ENDBRANCH  17  18
BRANCH  17  25
ATOM     25  C   UNL     1       2.669  -4.632   0.499  0.00  0.00    +0.201 C 
ATOM     26  O   UNL     1       3.408  -3.831  -0.033  0.00  0.00    -0.277 OA
ATOM     27  N   UNL     1       2.886  -5.953   0.348  0.00  0.00    -0.330 N 
ATOM     28  H   UNL     1       2.295  -6.594   0.773  0.00  0.00    +0.145 HD
ATOM     29  H   UNL     1       3.634  -6.264  -0.186  0.00  0.00    +0.145 HD
ENDBRANCH  17  25
ENDBRANCH   1  17
TORSDOF 8
