REMARK  Name = ZINC44452597
REMARK  5 active torsions:
REMARK  status: ('A' for Active; 'I' for Inactive)
REMARK    1  A    between atoms: C_1  and  C_2
REMARK    2  A    between atoms: C_2  and  C_4
REMARK    3  A    between atoms: C_7  and  C_10
REMARK    4  A    between atoms: N_12  and  C_13
REMARK    5  A    between atoms: C_14  and  C_21
REMARK                            x       y       z     vdW  Elec       q    Type
REMARK                         _______ _______ _______ _____ _____    ______ ____
ROOT
ATOM      1  C   UNL     1      -6.091  -4.992   0.038  0.00  0.00    +0.085 A 
ATOM      2  C   UNL     1      -6.263  -6.365   0.044  0.00  0.00    +0.069 A 
ATOM      3  C   UNL     1      -7.637  -6.866   0.051  0.00  0.00    -0.023 A 
ATOM      4  C   UNL     1      -8.574  -5.901   0.051  0.00  0.00    -0.004 A 
ATOM      5  S   UNL     1      -7.654  -4.383   0.051  0.00  0.00    -0.077 S 
ATOM      6  C   UNL     1      -9.966  -6.471   0.054  0.00  0.00    +0.043 C 
ATOM      7  C   UNL     1      -9.786  -7.944  -0.376  0.00  0.00    +0.010 C 
ATOM      8  C   UNL     1      -8.335  -8.225   0.062  0.00  0.00    +0.037 C 
ENDROOT
BRANCH   2   9
ATOM      9  C   UNL     1      -5.118  -7.278   0.041  0.00  0.00    +0.254 C 
ATOM     10  O   UNL     1      -4.637  -7.654   1.094  0.00  0.00    -0.270 OA
ATOM     11  N   UNL     1      -4.596  -7.701  -1.127  0.00  0.00    -0.236 N 
ATOM     12  C   UNL     1      -3.542  -8.541  -1.130  0.00  0.00    +0.304 C 
ATOM     13  O   UNL     1      -3.062  -8.917  -0.078  0.00  0.00    -0.253 OA
ATOM     14  N   UNL     1      -3.020  -8.964  -2.298  0.00  0.00    -0.313 N 
ATOM     15  H   UNL     1      -4.979  -7.401  -1.966  0.00  0.00    +0.159 HD
ATOM     16  H   UNL     1      -3.403  -8.664  -3.137  0.00  0.00    +0.146 HD
ATOM     17  H   UNL     1      -2.262  -9.569  -2.300  0.00  0.00    +0.146 HD
ENDBRANCH   2   9
BRANCH   1  20
ATOM     18  C   UNL     1      -4.919  -2.936   0.033  0.00  0.00    +0.249 C 
ATOM     19  O   UNL     1      -5.980  -2.342   0.041  0.00  0.00    -0.270 OA
ATOM     20  N   UNL     1      -4.901  -4.283   0.031  0.00  0.00    -0.275 N 
ATOM     21  H   UNL     1      -4.054  -4.757   0.024  0.00  0.00    +0.156 HD
BRANCH  18  25
ATOM     22  C   UNL     1      -1.264  -0.758   0.010  0.00  0.00    +0.017 A 
ATOM     23  C   UNL     1      -2.485  -0.076   0.019  0.00  0.00    +0.012 A 
ATOM     24  C   UNL     1      -3.667  -0.782   0.027  0.00  0.00    +0.014 A 
ATOM     25  C   UNL     1      -3.648  -2.178   0.025  0.00  0.00    +0.037 A 
ATOM     26  C   UNL     1      -2.430  -2.860   0.016  0.00  0.00    +0.014 A 
ATOM     27  C   UNL     1      -1.246  -2.156   0.002  0.00  0.00    +0.012 A 
BRANCH  22  29
ATOM     28  C   UNL     1      -0.018   1.503   0.010  0.00  0.00    +0.091 C 
ATOM     29  C   UNL     1       0.002  -0.004   0.002  0.00  0.00    +0.160 C 
ATOM     30  O   UNL     1       1.060  -0.596  -0.011  0.00  0.00    -0.292 OA
ENDBRANCH  22  29
ENDBRANCH  18  25
ENDBRANCH   1  20
TORSDOF 4
