REMARK  Name = ZINC34735163
REMARK  10 active torsions:
REMARK  status: ('A' for Active; 'I' for Inactive)
REMARK    1  A    between atoms: C_1  and  C_2
REMARK    2  A    between atoms: C_2  and  C_3
REMARK    3  A    between atoms: C_3  and  C_4
REMARK    4  A    between atoms: C_4  and  N_5
REMARK    5  A    between atoms: N_18  and  C_21
REMARK    6  A    between atoms: C_21  and  C_22
REMARK    7  A    between atoms: N_24  and  C_25
REMARK    8  A    between atoms: C_28  and  C_31
REMARK    9  A    between atoms: C_34  and  C_36
REMARK   10  A    between atoms: C_34  and  C_37
REMARK                            x       y       z     vdW  Elec       q    Type
REMARK                         _______ _______ _______ _____ _____    ______ ____
ROOT
ATOM      1  N   UNL     1      -2.915  -2.563   0.019  0.00  0.00    -0.280 N 
ATOM      2  C   UNL     1      -3.508  -2.900   1.179  0.00  0.00    +0.264 A 
ATOM      3  O   UNL     1      -2.917  -2.767   2.236  0.00  0.00    -0.267 OA
ATOM      4  C   UNL     1      -4.842  -3.417   1.153  0.00  0.00    +0.076 A 
ATOM      5  C   UNL     1      -5.673  -3.845   2.277  0.00  0.00    -0.018 A 
ATOM      6  C   UNL     1      -6.912  -4.300   1.988  0.00  0.00    +0.021 A 
ATOM      7  S   UNL     1      -7.043  -4.186   0.226  0.00  0.00    -0.071 S 
ATOM      8  C   UNL     1      -5.430  -3.528  -0.119  0.00  0.00    +0.118 A 
ATOM      9  N   UNL     1      -4.788  -3.176  -1.227  0.00  0.00    -0.208 NA
ATOM     10  C   UNL     1      -3.562  -2.699  -1.174  0.00  0.00    +0.202 A 
ATOM     11  N   UNL     1      -2.925  -2.338  -2.335  0.00  0.00    -0.304 N 
ATOM     12  C   UNL     1      -2.198  -3.332  -3.139  0.00  0.00    +0.089 C 
ATOM     13  C   UNL     1      -2.666  -3.216  -4.594  0.00  0.00    -0.059 C 
ATOM     14  N   UNL     1      -2.503  -1.830  -5.051  0.00  0.00    +0.387 N 
ATOM     15  C   UNL     1      -3.383  -0.943  -4.280  0.00  0.00    -0.059 C 
ATOM     16  C   UNL     1      -2.955  -0.947  -2.813  0.00  0.00    +0.089 C 
ATOM     17  C   UNL     1      -7.928  -4.789   2.972  0.00  0.00    +0.203 C 
ATOM     18  O   UNL     1      -7.263  -4.994   4.229  0.00  0.00    -0.368 OA
ATOM     19  C   UNL     1      -6.446  -3.890   4.628  0.00  0.00    +0.068 C 
ATOM     20  C   UNL     1      -5.208  -3.798   3.730  0.00  0.00    +0.071 C 
ATOM     21  C   UNL     1      -7.252  -2.595   4.513  0.00  0.00    +0.041 C 
ATOM     22  C   UNL     1      -6.006  -4.083   6.080  0.00  0.00    +0.041 C 
ATOM     23  H   UNL     1      -1.543  -1.546  -4.921  0.00  0.00    -0.081 HD
ENDROOT
BRANCH   1  24
ATOM     24  C   UNL     1      -1.549  -2.034   0.038  0.00  0.00    +0.128 C 
BRANCH  24  25
ATOM     25  C   UNL     1      -1.595  -0.505   0.076  0.00  0.00    +0.021 C 
BRANCH  25  27
ATOM     26  C   UNL     1      -0.214   1.577   0.135  0.00  0.00    +0.004 C 
ATOM     27  C   UNL     1      -0.168   0.048   0.097  0.00  0.00    -0.002 C 
ENDBRANCH  25  27
ENDBRANCH  24  25
ENDBRANCH   1  24
BRANCH  14  28
ATOM     28  C   UNL     1      -2.848  -1.743  -6.476  0.00  0.00    +0.019 C 
BRANCH  28  29
ATOM     29  C   UNL     1      -2.563  -0.350  -6.976  0.00  0.00    +0.201 C 
ATOM     30  O   UNL     1      -2.118   0.487  -6.220  0.00  0.00    -0.278 OA
ATOM     31  N   UNL     1      -2.805  -0.035  -8.264  0.00  0.00    -0.287 N 
ATOM     32  H   UNL     1      -3.242  -0.675  -8.847  0.00  0.00    +0.155 HD
BRANCH  31  33
ATOM     33  C   UNL     1      -2.424   1.217  -8.761  0.00  0.00    +0.033 A 
ATOM     34  C   UNL     1      -1.366   1.904  -8.181  0.00  0.00    +0.023 A 
ATOM     35  C   UNL     1      -0.994   3.139  -8.673  0.00  0.00    +0.005 A 
ATOM     36  C   UNL     1      -1.673   3.692  -9.744  0.00  0.00    -0.050 A 
ATOM     37  C   UNL     1      -2.727   3.011 -10.324  0.00  0.00    +0.005 A 
ATOM     38  C   UNL     1      -3.101   1.772  -9.840  0.00  0.00    +0.023 A 
ATOM     39  C   UNL     1      -1.263   5.040 -10.279  0.00  0.00    +0.044 C 
ENDBRANCH  31  33
ENDBRANCH  28  29
ENDBRANCH  14  28
TORSDOF 6
