REMARK  Name = ZINC39957643
REMARK  10 active torsions:
REMARK  status: ('A' for Active; 'I' for Inactive)
REMARK    1  A    between atoms: C_1  and  C_2
REMARK    2  A    between atoms: C_2  and  C_3
REMARK    3  A    between atoms: C_2  and  C_4
REMARK    4  A    between atoms: C_4  and  C_5
REMARK    5  A    between atoms: C_5  and  C_7
REMARK    6  A    between atoms: C_5  and  N_13
REMARK    7  A    between atoms: C_14  and  C_16
REMARK    8  A    between atoms: C_16  and  S_17
REMARK    9  A    between atoms: S_17  and  C_18
REMARK   10  A    between atoms: C_22  and  C_24
REMARK                            x       y       z     vdW  Elec       q    Type
REMARK                         _______ _______ _______ _____ _____    ______ ____
ROOT
ATOM      1  S   UNL     1       2.955  -3.288   2.421  0.00  0.00    -0.087 S 
ENDROOT
BRANCH   1   2
ATOM      2  C   UNL     1       3.446  -4.162   3.933  0.00  0.00    +0.339 C 
ATOM      3  N   UNL     1       2.865  -3.508   5.117  0.00  0.00    -0.219 N 
ATOM      4  N   UNL     1       2.042  -4.474   5.714  0.00  0.00    -0.145 NA
ATOM      5  C   UNL     1       2.081  -5.585   5.026  0.00  0.00    +0.238 C 
ATOM      6  O   UNL     1       2.897  -5.487   3.945  0.00  0.00    -0.443 OA
ATOM      7  H   UNL     1       3.018  -2.600   5.421  0.00  0.00    +0.173 HD
BRANCH   5   8
ATOM      8  C   UNL     1       1.365  -6.742   5.365  0.00  0.00    +0.043 C 
ATOM      9  C   UNL     1       0.507  -6.915   6.452  0.00  0.00    +0.008 A 
ATOM     10  C   UNL     1       0.103  -6.054   7.494  0.00  0.00    +0.010 A 
ATOM     11  C   UNL     1      -0.764  -6.501   8.439  0.00  0.00    +0.001 A 
ATOM     12  C   UNL     1      -1.272  -7.801   8.409  0.00  0.00    +0.002 A 
ATOM     13  C   UNL     1      -0.927  -8.682   7.437  0.00  0.00    +0.026 A 
ATOM     14  C   UNL     1      -0.025  -8.287   6.415  0.00  0.00    +0.043 A 
ATOM     15  N   UNL     1       0.459  -8.942   5.378  0.00  0.00    -0.380 N 
ATOM     16  C   UNL     1       1.356  -8.061   4.625  0.00  0.00    +0.154 C 
ATOM     17  H   UNL     1       0.251  -9.861   5.148  0.00  0.00    +0.160 HD
ENDBRANCH   5   8
ENDBRANCH   1   2
BRANCH   1  18
ATOM     18  C   UNL     1       1.142  -3.346   2.450  0.00  0.00    +0.170 C 
BRANCH  18  20
ATOM     19  N   UNL     1      -0.734  -2.563   1.041  0.00  0.00    -0.308 N 
ATOM     20  C   UNL     1       0.598  -2.645   1.232  0.00  0.00    +0.224 C 
ATOM     21  O   UNL     1       1.358  -2.154   0.424  0.00  0.00    -0.275 OA
ATOM     22  H   UNL     1      -1.343  -2.895   1.719  0.00  0.00    +0.149 HD
BRANCH  19  23
ATOM     23  C   UNL     1      -1.262  -1.973  -0.192  0.00  0.00    +0.103 C 
BRANCH  23  24
ATOM     24  C   UNL     1      -2.608  -2.575  -0.500  0.00  0.00    -0.027 A 
ATOM     25  C   UNL     1      -3.509  -2.813   0.521  0.00  0.00    +0.005 A 
ATOM     26  C   UNL     1      -4.744  -3.365   0.238  0.00  0.00    +0.000 A 
ATOM     27  C   UNL     1      -5.079  -3.678  -1.066  0.00  0.00    +0.000 A 
ATOM     28  C   UNL     1      -4.179  -3.439  -2.087  0.00  0.00    +0.000 A 
ATOM     29  C   UNL     1      -2.945  -2.883  -1.805  0.00  0.00    +0.005 A 
ENDBRANCH  23  24
BRANCH  23  30
ATOM     30  C   UNL     1      -1.408  -0.460  -0.011  0.00  0.00    +0.030 C 
BRANCH  30  32
ATOM     31  C   UNL     1      -2.104   1.664  -1.128  0.00  0.00    +0.007 C 
ATOM     32  C   UNL     1      -1.827   0.174  -1.339  0.00  0.00    -0.015 C 
ATOM     33  C   UNL     1      -0.704   0.004  -2.363  0.00  0.00    +0.007 C 
ENDBRANCH  30  32
ENDBRANCH  23  30
ENDBRANCH  19  23
ENDBRANCH  18  20
ENDBRANCH   1  18
TORSDOF 8
