REMARK  Name = ZINC22914621
REMARK  11 active torsions:
REMARK  status: ('A' for Active; 'I' for Inactive)
REMARK    1  A    between atoms: C_1  and  C_2
REMARK    2  A    between atoms: C_4  and  O_10
REMARK    3  A    between atoms: C_6  and  C_9
REMARK    4  A    between atoms: O_10  and  C_11
REMARK    5  A    between atoms: C_11  and  C_12
REMARK    6  A    between atoms: C_12  and  C_14
REMARK    7  A    between atoms: C_12  and  O_38
REMARK    8  A    between atoms: C_14  and  N_15
REMARK    9  A    between atoms: N_18  and  C_21
REMARK   10  A    between atoms: C_21  and  C_22
REMARK   11  A    between atoms: C_22  and  N_23
REMARK                            x       y       z     vdW  Elec       q    Type
REMARK                         _______ _______ _______ _____ _____    ______ ____
ROOT
ATOM      1  N   UNL     1       7.089   9.171  -2.200  0.00  0.00    -0.303 NA
ATOM      2  C   UNL     1       7.268   7.825  -2.763  0.00  0.00    +0.066 C 
ATOM      3  C   UNL     1       5.915   7.111  -2.810  0.00  0.00    -0.063 C 
ATOM      4  N   UNL     1       5.353   7.042  -1.454  0.00  0.00    +0.382 N 
ATOM      5  C   UNL     1       5.175   8.387  -0.891  0.00  0.00    -0.063 C 
ATOM      6  C   UNL     1       6.528   9.101  -0.844  0.00  0.00    +0.066 C 
ATOM      7  H   UNL     1       6.068   6.499  -0.817  0.00  0.00    -0.082 HD
ENDROOT
BRANCH   1   8
ATOM      8  C   UNL     1       8.355   9.917  -2.208  0.00  0.00    +0.119 C 
BRANCH   8   9
ATOM      9  C   UNL     1       8.193  11.204  -1.397  0.00  0.00    +0.166 C 
BRANCH   9  10
ATOM     10  O   UNL     1       7.163  12.007  -1.978  0.00  0.00    -0.387 OA
ATOM     11  H   UNL     1       6.139  11.613  -2.059  0.00  0.00    +0.210 HD
ENDBRANCH   9  10
BRANCH   9  12
ATOM     12  C   UNL     1       9.511  11.981  -1.406  0.00  0.00    +0.261 C 
BRANCH  12  13
ATOM     13  O   UNL     1       9.396  13.123  -0.554  0.00  0.00    -0.489 OA
BRANCH  13  17
ATOM     14  C   UNL     1      11.511  17.090   1.347  0.00  0.00    +0.045 C 
ATOM     15  C   UNL     1      11.556  15.867   0.467  0.00  0.00    -0.028 A 
ATOM     16  C   UNL     1      10.446  15.052   0.361  0.00  0.00    +0.050 A 
ATOM     17  C   UNL     1      10.488  13.927  -0.449  0.00  0.00    +0.121 A 
ATOM     18  C   UNL     1      11.647  13.618  -1.146  0.00  0.00    +0.050 A 
ATOM     19  C   UNL     1      12.753  14.439  -1.041  0.00  0.00    -0.028 A 
ATOM     20  C   UNL     1      12.709  15.561  -0.233  0.00  0.00    +0.047 A 
ATOM     21 CL   UNL     1      14.103  16.587  -0.099  0.00  0.00    -0.083 Cl
ATOM     22  C   UNL     1      14.011  14.108  -1.803  0.00  0.00    +0.045 C 
ENDBRANCH  13  17
ENDBRANCH  12  13
ENDBRANCH   9  12
ENDBRANCH   8   9
ENDBRANCH   1   8
BRANCH   4  23
ATOM     23  C   UNL     1       4.088   6.295  -1.446  0.00  0.00    -0.059 C 
BRANCH  23  24
ATOM     24  C   UNL     1       3.662   6.029  -0.001  0.00  0.00    +0.098 C 
BRANCH  24  25
ATOM     25  N   UNL     1       2.400   5.285   0.007  0.00  0.00    -0.236 N 
ATOM     26  C   UNL     1       2.441   3.939  -0.000  0.00  0.00    +0.254 C 
ATOM     27  O   UNL     1       3.514   3.366  -0.013  0.00  0.00    -0.270 OA
ATOM     28  C   UNL     1       1.196   3.157   0.008  0.00  0.00    +0.046 A 
ATOM     29  C   UNL     1       1.191   1.770   0.000  0.00  0.00    +0.014 A 
ATOM     30  C   UNL     1      -0.013   1.076   0.008  0.00  0.00    +0.001 A 
ATOM     31  C   UNL     1      -1.213   1.726   0.017  0.00  0.00    +0.008 A 
ATOM     32  C   UNL     1      -1.253   3.131   0.030  0.00  0.00    -0.016 A 
ATOM     33  C   UNL     1      -0.038   3.847   0.023  0.00  0.00    +0.006 A 
ATOM     34  C   UNL     1      -0.044   5.261   0.030  0.00  0.00    +0.046 A 
ATOM     35  C   UNL     1      -1.260   5.928   0.044  0.00  0.00    +0.014 A 
ATOM     36  C   UNL     1      -2.450   5.211   0.051  0.00  0.00    +0.001 A 
ATOM     37  C   UNL     1      -2.463   3.846   0.044  0.00  0.00    +0.008 A 
ATOM     38  C   UNL     1       1.242   5.972   0.022  0.00  0.00    +0.254 C 
ATOM     39  O   UNL     1       1.261   7.188   0.029  0.00  0.00    -0.270 OA
ENDBRANCH  24  25
ENDBRANCH  23  24
ENDBRANCH   4  23
TORSDOF 9
