REMARK  Name = ZINC09102302
REMARK  11 active torsions:
REMARK  status: ('A' for Active; 'I' for Inactive)
REMARK    1  A    between atoms: C_1  and  C_2
REMARK    2  A    between atoms: C_2  and  C_4
REMARK    3  A    between atoms: C_2  and  N_53
REMARK    4  A    between atoms: C_7  and  S_16
REMARK    5  A    between atoms: N_8  and  C_9
REMARK    6  A    between atoms: S_16  and  C_17
REMARK    7  A    between atoms: C_17  and  C_19
REMARK    8  A    between atoms: C_17  and  C_20
REMARK    9  A    between atoms: N_22  and  C_23
REMARK   10  A    between atoms: C_32  and  N_53
REMARK   11  A    between atoms: C_33  and  N_53
REMARK                            x       y       z     vdW  Elec       q    Type
REMARK                         _______ _______ _______ _____ _____    ______ ____
ROOT
ATOM      1  C   UNL     1       1.341  -0.344   0.043  0.00  0.00    +0.125 A 
ATOM      2  N   UNL     1       2.032   0.761   0.038  0.00  0.00    -0.135 NA
ATOM      3  N   UNL     1       1.244   1.776   0.041  0.00  0.00    -0.122 NA
ATOM      4  C   UNL     1      -0.006   1.372   0.048  0.00  0.00    +0.197 A 
ATOM      5  N   UNL     1       0.017   0.004   0.050  0.00  0.00    -0.275 N 
ENDROOT
BRANCH   5   6
ATOM      6  C   UNL     1      -1.087  -0.862   0.057  0.00  0.00    +0.050 A 
ATOM      7  C   UNL     1      -1.312  -1.694   1.145  0.00  0.00    +0.028 A 
ATOM      8  C   UNL     1      -2.402  -2.541   1.152  0.00  0.00    +0.022 A 
ATOM      9  C   UNL     1      -3.264  -2.570   0.069  0.00  0.00    +0.041 A 
ATOM     10  C   UNL     1      -3.039  -1.746  -1.019  0.00  0.00    +0.022 A 
ATOM     11  C   UNL     1      -1.953  -0.892  -1.028  0.00  0.00    +0.028 A 
ATOM     12 CL   UNL     1      -4.630  -3.642   0.077  0.00  0.00    -0.084 Cl
ENDBRANCH   5   6
BRANCH   1  14
ATOM     13  C   UNL     1       2.425  -2.083  -1.353  0.00  0.00    -0.005 C 
ATOM     14  C   UNL     1       1.897  -1.745   0.043  0.00  0.00    -0.003 C 
BRANCH  14  17
ATOM     15  C   UNL     1       2.545  -1.427   2.354  0.00  0.00    -0.096 C 
ATOM     16  C   UNL     1       3.561  -3.192   1.043  0.00  0.00    -0.096 C 
ATOM     17  N   UNL     1       3.014  -1.819   1.008  0.00  0.00    +0.382 N 
ATOM     18  H   UNL     1       3.755  -1.173   0.712  0.00  0.00    -0.082 HD
ENDBRANCH  14  17
ENDBRANCH   1  14
BRANCH   4  19
ATOM     19  S   UNL     1      -1.439   2.397   0.048  0.00  0.00    -0.073 S 
BRANCH  19  20
ATOM     20  C   UNL     1      -0.658   4.029   0.045  0.00  0.00    +0.137 C 
ATOM     21  C   UNL     1       0.113   4.228   1.352  0.00  0.00    +0.029 C 
BRANCH  20  22
ATOM     22  C   UNL     1      -1.718   5.093  -0.079  0.00  0.00    +0.230 C 
ATOM     23  O   UNL     1      -2.852   4.865   0.287  0.00  0.00    -0.274 OA
ATOM     24  N   UNL     1      -1.406   6.298  -0.597  0.00  0.00    -0.282 N 
ATOM     25  H   UNL     1      -0.487   6.503  -0.829  0.00  0.00    +0.155 HD
BRANCH  24  26
ATOM     26  C   UNL     1      -2.410   7.255  -0.799  0.00  0.00    +0.072 A 
ATOM     27  C   UNL     1      -3.476   7.342   0.086  0.00  0.00    +0.029 A 
ATOM     28  C   UNL     1      -4.465   8.286  -0.113  0.00  0.00    +0.043 A 
ATOM     29  C   UNL     1      -4.395   9.146  -1.196  0.00  0.00    +0.161 A 
ATOM     30  C   UNL     1      -3.333   9.062  -2.083  0.00  0.00    +0.195 A 
ATOM     31  C   UNL     1      -2.337   8.121  -1.883  0.00  0.00    +0.182 A 
ATOM     32  F   UNL     1      -1.298   8.042  -2.743  0.00  0.00    -0.200 F 
ATOM     33  F   UNL     1      -3.267   9.902  -3.139  0.00  0.00    -0.199 F 
ATOM     34  F   UNL     1      -5.364  10.068  -1.387  0.00  0.00    -0.202 F 
ENDBRANCH  24  26
ENDBRANCH  20  22
ENDBRANCH  19  20
ENDBRANCH   4  19
TORSDOF 7
