REMARK  Name = ZINC15947261
REMARK  10 active torsions:
REMARK  status: ('A' for Active; 'I' for Inactive)
REMARK    1  A    between atoms: C_1  and  C_2
REMARK    2  A    between atoms: C_2  and  N_3
REMARK    3  A    between atoms: C_11  and  O_38
REMARK    4  A    between atoms: C_13  and  C_16
REMARK    5  A    between atoms: C_19  and  O_25
REMARK    6  A    between atoms: C_20  and  O_22
REMARK    7  A    between atoms: O_22  and  C_23
REMARK    8  A    between atoms: C_23  and  C_24
REMARK    9  A    between atoms: O_25  and  C_26
REMARK   10  A    between atoms: C_26  and  C_28
REMARK                            x       y       z     vdW  Elec       q    Type
REMARK                         _______ _______ _______ _____ _____    ______ ____
ROOT
ATOM      1  C   UNL     1       6.221  -4.150  -4.498  0.00  0.00    -0.002 A 
ATOM      2  C   UNL     1       7.237  -3.586  -3.750  0.00  0.00    +0.011 A 
ATOM      3  C   UNL     1       7.935  -4.353  -2.836  0.00  0.00    +0.050 A 
ATOM      4  C   UNL     1       7.617  -5.691  -2.668  0.00  0.00    +0.173 A 
ATOM      5  C   UNL     1       6.594  -6.260  -3.421  0.00  0.00    +0.163 A 
ATOM      6  C   UNL     1       5.894  -5.483  -4.332  0.00  0.00    +0.056 A 
ENDROOT
BRANCH   1  17
ATOM      7  N   UNL     1       0.783  -0.366  -1.169  0.00  0.00    +0.383 N 
ATOM      8  C   UNL     1       0.677  -1.830  -1.221  0.00  0.00    -0.074 C 
ATOM      9  C   UNL     1       1.078  -2.341  -2.608  0.00  0.00    +0.018 C 
ATOM     10  C   UNL     1       2.440  -1.751  -2.948  0.00  0.00    -0.027 A 
ATOM     11  C   UNL     1       2.908  -0.683  -2.258  0.00  0.00    -0.021 A 
ATOM     12  S   UNL     1       4.491  -0.344  -2.972  0.00  0.00    -0.080 S 
ATOM     13  C   UNL     1       4.539  -1.544  -4.116  0.00  0.00    +0.080 A 
ATOM     14  C   UNL     1       3.329  -2.238  -3.983  0.00  0.00    +0.067 A 
ATOM     15  C   UNL     1       3.089  -3.376  -4.907  0.00  0.00    +0.220 C 
ATOM     16  N   UNL     1       4.101  -3.816  -5.605  0.00  0.00    -0.223 NA
ATOM     17  C   UNL     1       5.463  -3.309  -5.493  0.00  0.00    +0.224 C 
ATOM     18  N   UNL     1       5.486  -1.904  -5.048  0.00  0.00    -0.313 N 
ATOM     19  C   UNL     1       2.204   0.026  -1.145  0.00  0.00    -0.035 C 
ATOM     20  H   UNL     1       6.131  -1.268  -5.394  0.00  0.00    +0.149 HD
ATOM     21  H   UNL     1       0.338   0.032  -1.983  0.00  0.00    -0.081 HD
BRANCH   7  23
ATOM     22  C   UNL     1       0.116   1.660   0.034  0.00  0.00    -0.017 C 
ATOM     23  C   UNL     1       0.118   0.130   0.043  0.00  0.00    -0.082 C 
ENDBRANCH   7  23
BRANCH  15  24
ATOM     24  O   UNL     1       1.863  -3.938  -5.022  0.00  0.00    -0.492 OA
ATOM     25  H   UNL     1       1.824  -4.670  -5.652  0.00  0.00    +0.294 HD
ENDBRANCH  15  24
ENDBRANCH   1  17
BRANCH   5  26
ATOM     26  O   UNL     1       6.277  -7.572  -3.261  0.00  0.00    -0.489 OA
BRANCH  26  27
ATOM     27  C   UNL     1       5.216  -8.087  -4.067  0.00  0.00    +0.226 C 
ATOM     28  C   UNL     1       5.007  -9.569  -3.749  0.00  0.00    +0.048 C 
ENDBRANCH  26  27
ENDBRANCH   5  26
BRANCH   4  29
ATOM     29  O   UNL     1       8.302  -6.448  -1.770  0.00  0.00    -0.419 OA
BRANCH  29  30
ATOM     30  C   UNL     1       9.284  -7.246  -2.234  0.00  0.00    +0.345 C 
ATOM     31  O   UNL     1       9.597  -7.206  -3.408  0.00  0.00    -0.245 OA
BRANCH  30  32
ATOM     32  C   UNL     1       9.979  -8.167  -1.318  0.00  0.00    +0.067 A 
ATOM     33  C   UNL     1       9.556  -8.312  -0.002  0.00  0.00    +0.015 A 
ATOM     34  C   UNL     1      10.213  -9.181   0.858  0.00  0.00    +0.001 A 
ATOM     35  C   UNL     1      11.285  -9.917   0.456  0.00  0.00    +0.008 A 
ATOM     36  C   UNL     1      11.767  -9.820  -0.860  0.00  0.00    -0.017 A 
ATOM     37  C   UNL     1      11.124  -8.951  -1.775  0.00  0.00    -0.004 A 
ATOM     38  C   UNL     1      11.598  -8.857  -3.089  0.00  0.00    +0.009 A 
ATOM     39  C   UNL     1      12.669  -9.606  -3.475  0.00  0.00    +0.001 A 
ATOM     40  C   UNL     1      13.300 -10.467  -2.579  0.00  0.00    +0.001 A 
ATOM     41  C   UNL     1      12.874 -10.573  -1.290  0.00  0.00    +0.008 A 
ENDBRANCH  30  32
ENDBRANCH  29  30
ENDBRANCH   4  29
TORSDOF 8
