REMARK  Name = ZINC20347541
REMARK  11 active torsions:
REMARK  status: ('A' for Active; 'I' for Inactive)
REMARK    1  A    between atoms: C_1  and  C_2
REMARK    2  A    between atoms: C_2  and  C_3
REMARK    3  A    between atoms: C_6  and  N_9
REMARK    4  A    between atoms: C_10  and  C_12
REMARK    5  A    between atoms: C_12  and  S_13
REMARK    6  A    between atoms: S_13  and  C_14
REMARK    7  A    between atoms: C_15  and  C_37
REMARK    8  A    between atoms: C_16  and  C_31
REMARK    9  A    between atoms: C_18  and  C_22
REMARK   10  A    between atoms: C_19  and  C_21
REMARK   11  A    between atoms: N_24  and  C_25
REMARK                            x       y       z     vdW  Elec       q    Type
REMARK                         _______ _______ _______ _____ _____    ______ ____
ROOT
ATOM      1  C   UNL     1       5.466   0.728   0.183  0.00  0.00    +0.080 C 
ATOM      2  C   UNL     1       4.408  -0.126   0.172  0.00  0.00    +0.069 C 
ATOM      3  C   UNL     1       3.685  -0.456  -1.102  0.00  0.00    +0.098 C 
ATOM      4  C   UNL     1       4.503  -0.060  -2.298  0.00  0.00    +0.044 C 
ATOM      5  C   UNL     1       5.544   0.781  -2.195  0.00  0.00    +0.014 C 
ATOM      6  N   UNL     1       5.907   1.308  -0.986  0.00  0.00    -0.312 N 
ATOM      7  C   UNL     1       6.325   1.150  -3.430  0.00  0.00    +0.061 C 
ATOM      8  H   UNL     1       6.554   2.197  -0.948  0.00  0.00    +0.152 HD
ENDROOT
BRANCH   3   9
ATOM      9  C   UNL     1       2.373   0.284  -1.133  0.00  0.00    -0.035 A 
ATOM     10  C   UNL     1       1.184  -0.419  -1.198  0.00  0.00    +0.004 A 
ATOM     11  C   UNL     1      -0.020   0.260  -1.226  0.00  0.00    +0.000 A 
ATOM     12  C   UNL     1      -0.035   1.642  -1.189  0.00  0.00    +0.000 A 
ATOM     13  C   UNL     1       1.153   2.345  -1.124  0.00  0.00    +0.000 A 
ATOM     14  C   UNL     1       2.357   1.666  -1.097  0.00  0.00    +0.004 A 
ENDBRANCH   3   9
BRANCH   4  15
ATOM     15  C   UNL     1       4.168  -0.588  -3.568  0.00  0.00    +0.247 C 
ATOM     16  O   UNL     1       4.822  -0.277  -4.548  0.00  0.00    -0.270 OA
ATOM     17  N   UNL     1       3.127  -1.434  -3.692  0.00  0.00    -0.282 N 
ATOM     18  H   UNL     1       2.491  -1.655  -2.823  0.00  0.00    +0.155 HD
BRANCH  17  19
ATOM     19  C   UNL     1       2.855  -2.030  -4.928  0.00  0.00    +0.034 A 
ATOM     20  C   UNL     1       2.369  -3.330  -4.981  0.00  0.00    +0.023 A 
ATOM     21  C   UNL     1       2.097  -3.915  -6.202  0.00  0.00    +0.002 A 
ATOM     22  C   UNL     1       2.317  -3.211  -7.372  0.00  0.00    +0.000 A 
ATOM     23  C   UNL     1       2.806  -1.918  -7.322  0.00  0.00    +0.002 A 
ATOM     24  C   UNL     1       3.075  -1.326  -6.104  0.00  0.00    +0.023 A 
ENDBRANCH  17  19
ENDBRANCH   4  15
BRANCH   2  25
ATOM     25  C   UNL     1       3.975  -0.723   1.400  0.00  0.00    +0.098 C 
ATOM     26  N   UNL     1       3.632  -1.196   2.374  0.00  0.00    -0.191 NA
ENDBRANCH   2  25
BRANCH   1  27
ATOM     27  S   UNL     1       6.279   1.096   1.703  0.00  0.00    -0.100 S 
BRANCH  27  28
ATOM     28  C   UNL     1       7.551   2.239   1.110  0.00  0.00    +0.171 C 
BRANCH  28  30
ATOM     29  N   UNL     1       9.410   3.560   2.069  0.00  0.00    -0.285 N 
ATOM     30  C   UNL     1       8.393   2.699   2.272  0.00  0.00    +0.227 C 
ATOM     31  O   UNL     1       8.157   2.293   3.391  0.00  0.00    -0.275 OA
ATOM     32  H   UNL     1       9.673   3.869   1.046  0.00  0.00    +0.155 HD
BRANCH  29  36
ATOM     33  C   UNL     1      11.555   5.055   5.312  0.00  0.00    -0.048 A 
ATOM     34  C   UNL     1      11.077   3.758   5.340  0.00  0.00    +0.005 A 
ATOM     35  C   UNL     1      10.365   3.260   4.267  0.00  0.00    +0.023 A 
ATOM     36  C   UNL     1      10.130   4.062   3.158  0.00  0.00    +0.033 A 
ATOM     37  C   UNL     1      10.617   5.362   3.130  0.00  0.00    +0.023 A 
ATOM     38  C   UNL     1      11.323   5.857   4.210  0.00  0.00    +0.005 A 
BRANCH  33  40
ATOM     39  C   UNL     1      13.821   5.313   6.286  0.00  0.00    +0.009 C 
ATOM     40  C   UNL     1      12.331   5.596   6.485  0.00  0.00    +0.032 C 
ENDBRANCH  33  40
ENDBRANCH  29  36
ENDBRANCH  28  30
ENDBRANCH  27  28
ENDBRANCH   1  27
TORSDOF 9
