REMARK  Name = ZINC65387734
REMARK  4 active torsions:
REMARK  status: ('A' for Active; 'I' for Inactive)
REMARK    1  A    between atoms: C_6  and  N_7
REMARK    2  A    between atoms: N_14  and  C_15
REMARK    3  A    between atoms: N_18  and  C_21
REMARK    4  A    between atoms: C_21  and  C_22
REMARK                            x       y       z     vdW  Elec       q    Type
REMARK                         _______ _______ _______ _____ _____    ______ ____
ROOT
ATOM      1  C   UNL     1      -0.009   1.373  -0.201  0.00  0.00    +0.087 A 
ATOM      2  C   UNL     1       1.206   2.052  -0.201  0.00  0.00    +0.126 A 
ATOM      3  N   UNL     1       2.331   1.368  -0.007  0.00  0.00    -0.200 NA
ATOM      4  C   UNL     1       2.303   0.057   0.183  0.00  0.00    +0.216 A 
ATOM      5  N   UNL     1       1.166  -0.622   0.189  0.00  0.00    -0.200 NA
ATOM      6  C   UNL     1       0.002  -0.004   0.002  0.00  0.00    +0.128 A 
ATOM      7  N   UNL     1       3.494  -0.620   0.382  0.00  0.00    -0.327 N 
ATOM      8  N   UNL     1       1.243   3.424  -0.400  0.00  0.00    -0.326 N 
ATOM      9  H   UNL     1       4.334  -0.135   0.380  0.00  0.00    +0.145 HD
ATOM     10  H   UNL     1       3.488  -1.579   0.522  0.00  0.00    +0.145 HD
ATOM     11  H   UNL     1       2.093   3.891  -0.398  0.00  0.00    +0.148 HD
ENDROOT
BRANCH   8  12
ATOM     12  C   UNL     1      -0.001   4.167  -0.612  0.00  0.00    +0.068 C 
ATOM     13  C   UNL     1      -0.379   4.120  -2.096  0.00  0.00    +0.003 C 
ATOM     14  C   UNL     1      -1.635   4.964  -2.324  0.00  0.00    -0.077 C 
ATOM     15  N   UNL     1      -1.373   6.353  -1.928  0.00  0.00    +0.381 N 
ATOM     16  C   UNL     1      -1.081   6.415  -0.491  0.00  0.00    -0.077 C 
ATOM     17  C   UNL     1       0.196   5.627  -0.193  0.00  0.00    +0.003 C 
ATOM     18  H   UNL     1      -0.583   6.706  -2.447  0.00  0.00    -0.082 HD
BRANCH  15  19
ATOM     19  C   UNL     1      -2.555   7.174  -2.222  0.00  0.00    -0.047 C 
BRANCH  19  20
ATOM     20  C   UNL     1      -2.242   8.643  -1.927  0.00  0.00    +0.102 C 
ATOM     21  C   UNL     1      -3.513   9.498  -2.116  0.00  0.00    +0.032 C 
ATOM     22  C   UNL     1      -2.950  10.782  -2.783  0.00  0.00    +0.030 C 
ATOM     23  C   UNL     1      -1.802  10.190  -3.639  0.00  0.00    +0.160 C 
ATOM     24  O   UNL     1      -1.254   9.123  -2.846  0.00  0.00    -0.378 OA
ENDBRANCH  19  20
ENDBRANCH  15  19
ENDBRANCH   8  12
BRANCH   6  25
ATOM     25  N   UNL     1      -1.183  -0.723   0.009  0.00  0.00    -0.311 N 
ATOM     26  C   UNL     1      -1.177  -2.194   0.008  0.00  0.00    +0.134 C 
ATOM     27  C   UNL     1      -2.092  -2.683   1.137  0.00  0.00    +0.178 C 
ATOM     28  O   UNL     1      -3.369  -2.053   1.014  0.00  0.00    -0.377 OA
ATOM     29  C   UNL     1      -3.336  -0.630   1.149  0.00  0.00    +0.178 C 
ATOM     30  C   UNL     1      -2.485  -0.036   0.026  0.00  0.00    +0.134 C 
ENDBRANCH   6  25
TORSDOF 4
