REMARK  Name = ZINC39231986
REMARK  4 active torsions:
REMARK  status: ('A' for Active; 'I' for Inactive)
REMARK    1  A    between atoms: C_1  and  C_2
REMARK    2  A    between atoms: C_5  and  C_9
REMARK    3  A    between atoms: C_6  and  C_8
REMARK    4  A    between atoms: C_19  and  C_21
REMARK                            x       y       z     vdW  Elec       q    Type
REMARK                         _______ _______ _______ _____ _____    ______ ____
ROOT
ATOM      1  C   UNL     1       0.252  -4.241  -0.136  0.00  0.00    +0.060 C 
ATOM      2  N   UNL     1       0.301  -4.889   0.994  0.00  0.00    -0.233 NA
ATOM      3  C   UNL     1       0.117  -6.215   0.874  0.00  0.00    +0.144 A 
ATOM      4  C   UNL     1      -0.082  -6.561  -0.449  0.00  0.00    +0.069 A 
ATOM      5  C   UNL     1      -0.294  -7.897  -0.802  0.00  0.00    +0.260 A 
ATOM      6  N   UNL     1      -0.303  -8.841   0.163  0.00  0.00    -0.275 N 
ATOM      7  C   UNL     1      -0.110  -8.501   1.450  0.00  0.00    +0.328 A 
ATOM      8  N   UNL     1       0.097  -7.225   1.820  0.00  0.00    -0.292 N 
ATOM      9  O   UNL     1      -0.122  -9.370   2.300  0.00  0.00    -0.247 OA
ATOM     10  O   UNL     1      -0.470  -8.207  -1.968  0.00  0.00    -0.267 OA
ATOM     11  C   UNL     1      -0.011  -5.266  -1.222  0.00  0.00    +0.096 C 
ATOM     12  H   UNL     1      -0.450  -9.770  -0.073  0.00  0.00    +0.173 HD
ATOM     13  H   UNL     1       0.234  -7.011   2.756  0.00  0.00    +0.172 HD
ENDROOT
BRANCH  11  14
ATOM     14  C   UNL     1      -1.339  -4.979  -1.927  0.00  0.00    +0.149 C 
ATOM     15  C   UNL     1      -1.400  -5.829  -3.182  0.00  0.00    +0.100 C 
ATOM     16  N   UNL     1      -2.403  -6.665  -3.307  0.00  0.00    -0.152 NA
ATOM     17  C   UNL     1      -3.355  -6.791  -2.380  0.00  0.00    +0.331 C 
ATOM     18  O   UNL     1      -4.243  -7.597  -2.590  0.00  0.00    -0.250 OA
ATOM     19  N   UNL     1      -3.405  -6.098  -1.236  0.00  0.00    -0.238 N 
ATOM     20  C   UNL     1      -2.460  -5.188  -0.926  0.00  0.00    +0.231 C 
ATOM     21  O   UNL     1      -2.507  -4.563   0.112  0.00  0.00    -0.275 OA
ATOM     22  N   UNL     1      -0.454  -5.726  -4.140  0.00  0.00    -0.348 N 
ATOM     23  H   UNL     1      -4.137  -6.254  -0.619  0.00  0.00    +0.159 HD
ATOM     24  H   UNL     1       0.296  -5.123  -4.018  0.00  0.00    +0.143 HD
ATOM     25  H   UNL     1      -0.524  -6.256  -4.949  0.00  0.00    +0.143 HD
ENDBRANCH  11  14
BRANCH   1  30
ATOM     26  C   UNL     1       0.890   1.425  -0.858  0.00  0.00    +0.044 C 
ATOM     27  C   UNL     1       0.723  -0.060  -0.669  0.00  0.00    -0.050 A 
ATOM     28  C   UNL     1       0.583  -0.884  -1.773  0.00  0.00    +0.004 A 
ATOM     29  C   UNL     1       0.430  -2.244  -1.608  0.00  0.00    +0.010 A 
ATOM     30  C   UNL     1       0.416  -2.792  -0.320  0.00  0.00    -0.000 A 
ATOM     31  C   UNL     1       0.558  -1.953   0.790  0.00  0.00    -0.041 A 
ATOM     32  C   UNL     1       0.716  -0.595   0.608  0.00  0.00    +0.007 A 
ATOM     33  C   UNL     1       0.545  -2.532   2.182  0.00  0.00    +0.044 C 
ENDBRANCH   1  30
TORSDOF 2
