REMARK  Name = ZINC19791708
REMARK  11 active torsions:
REMARK  status: ('A' for Active; 'I' for Inactive)
REMARK    1  A    between atoms: C_1  and  C_2
REMARK    2  A    between atoms: C_2  and  N_3
REMARK    3  A    between atoms: N_6  and  C_9
REMARK    4  A    between atoms: C_9  and  C_10
REMARK    5  A    between atoms: C_11  and  O_35
REMARK    6  A    between atoms: C_17  and  C_31
REMARK    7  A    between atoms: C_18  and  C_21
REMARK    8  A    between atoms: C_24  and  O_29
REMARK    9  A    between atoms: C_25  and  O_27
REMARK   10  A    between atoms: O_27  and  C_28
REMARK   11  A    between atoms: O_29  and  C_30
REMARK                            x       y       z     vdW  Elec       q    Type
REMARK                         _______ _______ _______ _____ _____    ______ ____
ROOT
ATOM      1  C   UNL     1      -4.275  -4.442  -1.345  0.00  0.00    +0.051 A 
ATOM      2  C   UNL     1      -4.322  -5.176  -2.518  0.00  0.00    +0.125 A 
ATOM      3  C   UNL     1      -4.606  -6.540  -2.492  0.00  0.00    +0.046 A 
ATOM      4  C   UNL     1      -4.840  -7.172  -1.304  0.00  0.00    +0.019 A 
ATOM      5  C   UNL     1      -4.793  -6.447  -0.115  0.00  0.00    +0.065 A 
ATOM      6  C   UNL     1      -4.508  -5.069  -0.128  0.00  0.00    +0.147 A 
ATOM      7  O   UNL     1      -4.473  -4.370   1.022  0.00  0.00    -0.449 OA
ATOM      8  C   UNL     1      -4.398  -4.974   2.210  0.00  0.00    +0.219 A 
ATOM      9  C   UNL     1      -4.656  -6.297   2.380  0.00  0.00    +0.077 A 
ATOM     10  C   UNL     1      -5.031  -7.091   1.191  0.00  0.00    +0.201 A 
ATOM     11  O   UNL     1      -5.494  -8.215   1.282  0.00  0.00    -0.286 OA
ENDROOT
BRANCH   9  12
ATOM     12  C   UNL     1      -4.577  -6.923   3.722  0.00  0.00    -0.007 A 
ATOM     13  C   UNL     1      -5.585  -6.699   4.658  0.00  0.00    +0.012 A 
ATOM     14  C   UNL     1      -5.510  -7.282   5.907  0.00  0.00    +0.050 A 
ATOM     15  C   UNL     1      -4.433  -8.091   6.234  0.00  0.00    +0.162 A 
ATOM     16  C   UNL     1      -3.423  -8.319   5.303  0.00  0.00    +0.162 A 
ATOM     17  C   UNL     1      -3.497  -7.742   4.047  0.00  0.00    +0.058 A 
BRANCH  16  18
ATOM     18  O   UNL     1      -2.367  -9.113   5.626  0.00  0.00    -0.491 OA
ATOM     19  C   UNL     1      -1.368  -9.303   4.622  0.00  0.00    +0.277 C 
ENDBRANCH  16  18
BRANCH  15  20
ATOM     20  O   UNL     1      -4.363  -8.664   7.465  0.00  0.00    -0.491 OA
ATOM     21  C   UNL     1      -5.434  -8.387   8.371  0.00  0.00    +0.277 C 
ENDBRANCH  15  20
ENDBRANCH   9  12
BRANCH   8  22
ATOM     22  C   UNL     1      -4.009  -4.155   3.414  0.00  0.00    +0.451 C 
ATOM     23  F   UNL     1      -3.811  -5.001   4.510  0.00  0.00    -0.163 F 
ATOM     24  F   UNL     1      -2.825  -3.459   3.142  0.00  0.00    -0.163 F 
ATOM     25  F   UNL     1      -5.029  -3.243   3.706  0.00  0.00    -0.163 F 
ENDBRANCH   8  22
BRANCH   2  26
ATOM     26  O   UNL     1      -4.090  -4.561  -3.706  0.00  0.00    -0.506 OA
ATOM     27  H   UNL     1      -3.161  -4.560  -3.973  0.00  0.00    +0.292 HD
ENDBRANCH   2  26
BRANCH   1  28
ATOM     28  C   UNL     1      -3.967  -2.967  -1.388  0.00  0.00    +0.126 C 
BRANCH  28  32
ATOM     29  N   UNL     1      -0.149  -1.613  -0.179  0.00  0.00    +0.381 N 
ATOM     30  C   UNL     1      -0.633  -1.217  -1.508  0.00  0.00    -0.063 C 
ATOM     31  C   UNL     1      -2.155  -1.370  -1.563  0.00  0.00    +0.066 C 
ATOM     32  N   UNL     1      -2.515  -2.768  -1.288  0.00  0.00    -0.301 NA
ATOM     33  C   UNL     1      -2.015  -3.186   0.029  0.00  0.00    +0.066 C 
ATOM     34  C   UNL     1      -0.494  -3.019   0.071  0.00  0.00    -0.063 C 
ATOM     35  H   UNL     1      -0.581  -1.031   0.523  0.00  0.00    -0.082 HD
BRANCH  29  37
ATOM     36  C   UNL     1       1.662   0.033  -0.257  0.00  0.00    -0.017 C 
ATOM     37  C   UNL     1       1.309  -1.450  -0.120  0.00  0.00    -0.082 C 
ENDBRANCH  29  37
ENDBRANCH  28  32
ENDBRANCH   1  28
TORSDOF 8
