REMARK  Name = ZINC41585718
REMARK  11 active torsions:
REMARK  status: ('A' for Active; 'I' for Inactive)
REMARK    1  A    between atoms: C_1  and  C_2
REMARK    2  A    between atoms: C_4  and  O_37
REMARK    3  A    between atoms: C_5  and  C_22
REMARK    4  A    between atoms: C_11  and  C_12
REMARK    5  A    between atoms: C_15  and  N_18
REMARK    6  A    between atoms: N_18  and  C_19
REMARK    7  A    between atoms: N_18  and  C_20
REMARK    8  A    between atoms: C_22  and  N_23
REMARK    9  A    between atoms: N_26  and  C_29
REMARK   10  A    between atoms: C_32  and  O_35
REMARK   11  A    between atoms: O_35  and  C_36
REMARK                            x       y       z     vdW  Elec       q    Type
REMARK                         _______ _______ _______ _____ _____    ______ ____
ROOT
ATOM      1  C   UNL     1       1.275   1.277   0.014  0.00  0.00    +0.045 C 
ATOM      2  C   UNL     1       0.855  -0.171   0.015  0.00  0.00    -0.033 A 
ATOM      3  C   UNL     1       0.749  -0.853  -1.164  0.00  0.00    +0.050 A 
ATOM      4  C   UNL     1       0.361  -2.190  -1.165  0.00  0.00    +0.122 A 
ATOM      5  C   UNL     1       0.080  -2.844   0.024  0.00  0.00    +0.020 A 
ATOM      6  C   UNL     1       0.184  -2.164   1.231  0.00  0.00    +0.145 A 
ATOM      7  C   UNL     1       0.581  -0.817   1.220  0.00  0.00    +0.071 A 
ATOM      8  C   UNL     1       0.605  -0.380   2.628  0.00  0.00    +0.232 C 
ATOM      9  O   UNL     1       0.892   0.723   3.062  0.00  0.00    -0.283 OA
ATOM     10  C   UNL     1       0.204  -1.570   3.391  0.00  0.00    +0.176 C 
ATOM     11  C   UNL     1       0.081  -1.654   4.741  0.00  0.00    +0.058 C 
ATOM     12  O   UNL     1      -0.030  -2.565   2.503  0.00  0.00    -0.451 OA
ENDROOT
BRANCH  11  13
ATOM     13  C   UNL     1       0.181  -0.443   5.563  0.00  0.00    -0.021 A 
ATOM     14  C   UNL     1      -0.451   0.739   5.153  0.00  0.00    +0.010 A 
ATOM     15  C   UNL     1      -0.355   1.864   5.922  0.00  0.00    +0.023 A 
ATOM     16  C   UNL     1       0.369   1.838   7.111  0.00  0.00    +0.029 A 
ATOM     17  C   UNL     1       0.999   0.666   7.523  0.00  0.00    +0.023 A 
ATOM     18  C   UNL     1       0.904  -0.466   6.763  0.00  0.00    +0.010 A 
BRANCH  16  19
ATOM     19  N   UNL     1       0.464   2.986   7.891  0.00  0.00    -0.336 N 
ATOM     20  C   UNL     1      -0.198   4.220   7.460  0.00  0.00    +0.129 C 
ATOM     21  C   UNL     1       1.225   2.961   9.142  0.00  0.00    +0.129 C 
ENDBRANCH  16  19
ENDBRANCH  11  13
BRANCH   4  22
ATOM     22  O   UNL     1       0.257  -2.860  -2.342  0.00  0.00    -0.506 OA
ATOM     23  H   UNL     1       1.073  -3.299  -2.618  0.00  0.00    +0.292 HD
ENDBRANCH   4  22
BRANCH   5  24
ATOM     24  C   UNL     1      -0.339  -4.291   0.007  0.00  0.00    -0.035 C 
BRANCH  24  25
ATOM     25  N   UNL     1       0.851  -5.147   0.104  0.00  0.00    +0.385 N 
ATOM     26  C   UNL     1       1.684  -4.960  -1.091  0.00  0.00    -0.059 C 
ATOM     27  C   UNL     1       2.980  -5.763  -0.939  0.00  0.00    +0.086 C 
ATOM     28  N   UNL     1       2.630  -7.164  -0.657  0.00  0.00    -0.333 N 
ATOM     29  C   UNL     1       1.669  -7.434   0.424  0.00  0.00    +0.086 C 
ATOM     30  C   UNL     1       0.435  -6.551   0.208  0.00  0.00    -0.059 C 
ATOM     31  H   UNL     1       1.381  -4.893   0.924  0.00  0.00    -0.081 HD
BRANCH  28  32
ATOM     32  C   UNL     1       3.195  -8.210  -1.395  0.00  0.00    +0.030 A 
ATOM     33  C   UNL     1       4.190  -7.944  -2.326  0.00  0.00    +0.027 A 
ATOM     34  C   UNL     1       4.747  -8.977  -3.054  0.00  0.00    +0.047 A 
ATOM     35  C   UNL     1       4.312 -10.279  -2.856  0.00  0.00    +0.120 A 
ATOM     36  C   UNL     1       3.318 -10.545  -1.927  0.00  0.00    +0.047 A 
ATOM     37  C   UNL     1       2.763  -9.514  -1.194  0.00  0.00    +0.027 A 
BRANCH  35  38
ATOM     38  O   UNL     1       4.862 -11.296  -3.573  0.00  0.00    -0.495 OA
ATOM     39  C   UNL     1       4.366 -12.612  -3.318  0.00  0.00    +0.277 C 
ENDBRANCH  35  38
ENDBRANCH  28  32
ENDBRANCH  24  25
ENDBRANCH   5  24
TORSDOF 7
