REMARK  Name = ZINC64502627
REMARK  8 active torsions:
REMARK  status: ('A' for Active; 'I' for Inactive)
REMARK    1  A    between atoms: C_4  and  N_7
REMARK    2  A    between atoms: C_8  and  C_10
REMARK    3  A    between atoms: C_14  and  C_17
REMARK    4  A    between atoms: C_22  and  C_25
REMARK    5  A    between atoms: C_25  and  C_26
REMARK    6  A    between atoms: N_28  and  C_29
REMARK    7  A    between atoms: C_29  and  C_30
REMARK    8  A    between atoms: C_30  and  C_31
REMARK                            x       y       z     vdW  Elec       q    Type
REMARK                         _______ _______ _______ _____ _____    ______ ____
ROOT
ATOM      1  C   UNL     1       5.881  -6.222  -1.425  0.00  0.00    +0.252 C 
ATOM      2  O   UNL     1       6.351  -6.719  -0.423  0.00  0.00    -0.272 OA
ATOM      3  N   UNL     1       6.162  -6.747  -2.634  0.00  0.00    -0.299 N 
ATOM      4  C   UNL     1       5.606  -6.153  -3.857  0.00  0.00    +0.108 C 
ATOM      5  C   UNL     1       6.753  -5.852  -4.825  0.00  0.00    +0.023 C 
ATOM      6  C   UNL     1       7.565  -7.128  -5.060  0.00  0.00    +0.001 C 
ATOM      7  C   UNL     1       8.164  -7.605  -3.735  0.00  0.00    +0.023 C 
ATOM      8  C   UNL     1       7.037  -7.922  -2.754  0.00  0.00    +0.108 C 
ENDROOT
BRANCH   1  12
ATOM      9  C   UNL     1       4.962  -2.721   0.153  0.00  0.00    +0.273 C 
ATOM     10  N   UNL     1       5.646  -2.772  -1.159  0.00  0.00    -0.167 NA
ATOM     11  N   UNL     1       5.655  -3.796  -1.815  0.00  0.00    -0.167 NA
ATOM     12  C   UNL     1       4.982  -5.017  -1.318  0.00  0.00    +0.273 C 
ATOM     13  S   UNL     1       4.714  -4.529   0.447  0.00  0.00    -0.086 S 
BRANCH   9  15
ATOM     14  N   UNL     1       3.622  -0.651  -0.037  0.00  0.00    -0.283 N 
ATOM     15  C   UNL     1       3.645  -1.995   0.057  0.00  0.00    +0.254 C 
ATOM     16  O   UNL     1       2.606  -2.620   0.064  0.00  0.00    -0.272 OA
ATOM     17  H   UNL     1       4.452  -0.156  -0.121  0.00  0.00    +0.155 HD
BRANCH  14  21
ATOM     18  C   UNL     1      -0.015   1.381   0.029  0.00  0.00    +0.000 A 
ATOM     19  C   UNL     1       0.140   0.218   0.763  0.00  0.00    +0.002 A 
ATOM     20  C   UNL     1       1.344  -0.457   0.743  0.00  0.00    +0.023 A 
ATOM     21  C   UNL     1       2.400   0.031  -0.015  0.00  0.00    +0.033 A 
ATOM     22  C   UNL     1       2.241   1.198  -0.751  0.00  0.00    +0.023 A 
ATOM     23  C   UNL     1       1.034   1.870  -0.727  0.00  0.00    +0.002 A 
ENDBRANCH  14  21
ENDBRANCH   9  15
ENDBRANCH   1  12
BRANCH   6  24
ATOM     24  C   UNL     1       8.692  -6.840  -6.054  0.00  0.00    +0.099 C 
BRANCH  24  25
ATOM     25  C   UNL     1       9.415  -8.121  -6.380  0.00  0.00    +0.213 C 
ATOM     26  O   UNL     1       9.064  -9.163  -5.867  0.00  0.00    -0.276 OA
ATOM     27  N   UNL     1      10.452  -8.110  -7.241  0.00  0.00    -0.315 N 
ATOM     28  H   UNL     1      10.733  -7.277  -7.651  0.00  0.00    +0.149 HD
BRANCH  27  29
ATOM     29  C   UNL     1      11.155  -9.356  -7.557  0.00  0.00    +0.108 C 
BRANCH  29  30
ATOM     30  C   UNL     1      12.281  -9.068  -8.551  0.00  0.00    +0.052 C 
BRANCH  30  31
ATOM     31  C   UNL     1      13.004 -10.349  -8.877  0.00  0.00    -0.040 C 
ATOM     32  C   UNL     1      12.778 -11.165  -9.931  0.00  0.00    -0.001 A 
ATOM     33  C   UNL     1      11.827 -11.107 -11.048  0.00  0.00    +0.010 A 
ATOM     34  C   UNL     1      11.838 -12.094 -11.972  0.00  0.00    +0.001 A 
ATOM     35  C   UNL     1      12.733 -13.170 -11.889  0.00  0.00    +0.002 A 
ATOM     36  C   UNL     1      13.636 -13.293 -10.894  0.00  0.00    +0.026 A 
ATOM     37  C   UNL     1      13.713 -12.311  -9.868  0.00  0.00    +0.043 A 
ATOM     38  N   UNL     1      14.487 -12.208  -8.815  0.00  0.00    -0.380 N 
ATOM     39  C   UNL     1      14.134 -10.980  -8.094  0.00  0.00    +0.144 C 
ATOM     40  H   UNL     1      15.180 -12.836  -8.557  0.00  0.00    +0.160 HD
ENDBRANCH  30  31
ENDBRANCH  29  30
ENDBRANCH  27  29
ENDBRANCH  24  25
ENDBRANCH   6  24
TORSDOF 8
