REMARK  Name = ZINC38050764
REMARK  5 active torsions:
REMARK  status: ('A' for Active; 'I' for Inactive)
REMARK    1  A    between atoms: C_1  and  N_2
REMARK    2  A    between atoms: C_5  and  N_17
REMARK    3  A    between atoms: C_6  and  N_7
REMARK    4  A    between atoms: N_7  and  C_8
REMARK    5  A    between atoms: C_14  and  N_16
REMARK                            x       y       z     vdW  Elec       q    Type
REMARK                         _______ _______ _______ _____ _____    ______ ____
ROOT
ATOM      1  N   UNL     1       1.186   1.752  -2.741  0.00  0.00    -0.386 NA
ATOM      2  H   UNL     1       1.409   2.439  -3.445  0.00  0.00    +0.125 HD
ATOM      3  H   UNL     1       1.756   1.908  -1.924  0.00  0.00    +0.125 HD
ENDROOT
BRANCH   1   9
ATOM      4  C   UNL     1      -0.013   1.086   0.008  0.00  0.00    +0.151 C 
ATOM      5  N   UNL     1      -0.721   1.571  -1.179  0.00  0.00    -0.321 N 
ATOM      6  C   UNL     1      -2.045   1.821  -1.276  0.00  0.00    +0.203 A 
ATOM      7  N   UNL     1      -2.304   2.239  -2.484  0.00  0.00    -0.211 NA
ATOM      8  C   UNL     1      -1.168   2.270  -3.196  0.00  0.00    +0.253 A 
ATOM      9  C   UNL     1      -0.165   1.861  -2.395  0.00  0.00    +0.134 A 
BRANCH   8  10
ATOM     10  N   UNL     1      -1.038   2.686  -4.610  0.00  0.00    +0.079 N 
ATOM     11  O   UNL     1      -2.014   3.040  -5.228  0.00  0.00    -0.125 OA
ATOM     12  O   UNL     1       0.045   2.671  -5.147  0.00  0.00    -0.125 OA
ENDBRANCH   8  10
ENDBRANCH   1   9
BRANCH   1  13
ATOM     13  C   UNL     1       1.448   0.406  -3.271  0.00  0.00    +0.071 C 
ATOM     14  C   UNL     1       1.227  -0.628  -2.166  0.00  0.00    +0.022 C 
ATOM     15  C   UNL     1       1.500  -2.029  -2.717  0.00  0.00    +0.002 C 
ATOM     16  C   UNL     1       2.946  -2.110  -3.211  0.00  0.00    +0.002 C 
ATOM     17  C   UNL     1       3.166  -1.075  -4.316  0.00  0.00    +0.020 C 
ATOM     18  C   UNL     1       2.893   0.325  -3.765  0.00  0.00    +0.070 C 
BRANCH  18  19
ATOM     19  N   UNL     1       3.105   1.319  -4.826  0.00  0.00    -0.326 NA
ATOM     20  H   UNL     1       4.053   1.286  -5.169  0.00  0.00    +0.119 HD
ATOM     21  H   UNL     1       2.443   1.192  -5.577  0.00  0.00    +0.119 HD
ENDBRANCH  18  19
ENDBRANCH   1  13
TORSDOF 4
