REMARK  Name = ZINC61595106
REMARK  8 active torsions:
REMARK  status: ('A' for Active; 'I' for Inactive)
REMARK    1  A    between atoms: C_1  and  C_2
REMARK    2  A    between atoms: C_2  and  C_3
REMARK    3  A    between atoms: C_2  and  N_4
REMARK    4  A    between atoms: C_10  and  S_11
REMARK    5  A    between atoms: S_11  and  C_12
REMARK    6  A    between atoms: C_12  and  C_14
REMARK    7  A    between atoms: C_12  and  C_16
REMARK    8  A    between atoms: C_14  and  N_15
REMARK                            x       y       z     vdW  Elec       q    Type
REMARK                         _______ _______ _______ _____ _____    ______ ____
ROOT
ATOM      1  C   UNL     1       3.981  -2.919  -0.530  0.00  0.00    +0.073 C 
ENDROOT
BRANCH   1   2
ATOM      2  C   UNL     1       4.707  -3.487   0.662  0.00  0.00    +0.002 A 
ATOM      3  C   UNL     1       6.022  -3.408   0.978  0.00  0.00    +0.013 A 
ATOM      4  C   UNL     1       6.472  -4.013   2.136  0.00  0.00    +0.023 A 
ATOM      5  C   UNL     1       5.583  -4.669   2.923  0.00  0.00    +0.055 A 
ATOM      6  S   UNL     1       4.056  -4.434   2.029  0.00  0.00    -0.085 S 
ATOM      7 BR   UNL     1       5.881  -5.587   4.549  0.00  0.00    -0.043 Br
ENDBRANCH   1   2
BRANCH   1   8
ATOM      8  S   UNL     1       2.705  -1.760   0.036  0.00  0.00    -0.079 S 
BRANCH   8  15
ATOM      9  N   UNL     1       1.044  -0.155  -1.544  0.00  0.00    -0.268 N 
ATOM     10  C   UNL     1       0.892   0.190  -2.838  0.00  0.00    +0.345 A 
ATOM     11  O   UNL     1       0.053   0.951  -3.287  0.00  0.00    -0.245 OA
ATOM     12  N   UNL     1       1.838  -0.461  -3.547  0.00  0.00    -0.226 N 
ATOM     13  H   UNL     1       1.975  -0.408  -4.506  0.00  0.00    +0.194 HD
ATOM     14  N   UNL     1       2.587  -1.226  -2.643  0.00  0.00    -0.145 NA
ATOM     15  C   UNL     1       2.104  -1.028  -1.451  0.00  0.00    +0.193 A 
BRANCH   9  17
ATOM     16  C   UNL     1       0.325   1.846  -0.337  0.00  0.00    +0.031 C 
ATOM     17  C   UNL     1       0.225   0.322  -0.428  0.00  0.00    +0.088 C 
ATOM     18  C   UNL     1      -1.233  -0.081  -0.656  0.00  0.00    +0.031 C 
ENDBRANCH   9  17
ENDBRANCH   8  15
ENDBRANCH   1   8
BRANCH   1  19
ATOM     19  C   UNL     1       3.325  -4.055  -1.317  0.00  0.00    -0.066 C 
BRANCH  19  20
ATOM     20  N   UNL     1       4.366  -4.922  -1.885  0.00  0.00    +0.379 N 
ATOM     21  H   UNL     1       3.935  -5.713  -2.339  0.00  0.00    -0.090 HD
ATOM     22  H   UNL     1       4.907  -4.401  -2.559  0.00  0.00    -0.090 HD
ATOM     23  H   UNL     1       4.973  -5.247  -1.147  0.00  0.00    -0.090 HD
ENDBRANCH  19  20
ENDBRANCH   1  19
TORSDOF 6
