REMARK  Name = ZINC19324426
REMARK  14 active torsions:
REMARK  status: ('A' for Active; 'I' for Inactive)
REMARK    1  A    between atoms: C_1  and  C_2
REMARK    2  A    between atoms: C_2  and  C_3
REMARK    3  A    between atoms: C_3  and  C_4
REMARK    4  A    between atoms: C_8  and  C_26
REMARK    5  A    between atoms: C_14  and  C_15
REMARK    6  A    between atoms: C_15  and  C_17
REMARK    7  A    between atoms: C_15  and  O_25
REMARK    8  A    between atoms: C_17  and  C_19
REMARK    9  A    between atoms: C_17  and  O_24
REMARK   10  A    between atoms: C_19  and  C_21
REMARK   11  A    between atoms: C_19  and  O_23
REMARK   12  A    between atoms: C_21  and  O_22
REMARK   13  A    between atoms: C_26  and  C_27
REMARK   14  A    between atoms: C_27  and  C_28
REMARK                            x       y       z     vdW  Elec       q    Type
REMARK                         _______ _______ _______ _____ _____    ______ ____
ROOT
ATOM      1  C   UNL     1      -1.100  -2.678   0.266  0.00  0.00    +0.028 C 
ATOM      2  C   UNL     1      -2.605  -2.983   0.237  0.00  0.00    -0.061 C 
ATOM      3  N   UNL     1      -2.822  -4.428   0.152  0.00  0.00    +0.393 N 
ATOM      4  C   UNL     1      -2.300  -5.123   1.330  0.00  0.00    -0.061 C 
ATOM      5  C   UNL     1      -0.777  -4.936   1.418  0.00  0.00    +0.028 C 
ATOM      6  C   UNL     1      -0.525  -3.432   1.462  0.00  0.00    +0.144 C 
ATOM      7  O   UNL     1       0.057  -2.886   2.368  0.00  0.00    -0.296 OA
ATOM      8  C   UNL     1      -0.153  -5.448   0.110  0.00  0.00    +0.095 C 
ATOM      9  N   UNL     1      -0.756  -4.733  -1.023  0.00  0.00    -0.311 NA
ATOM     10  C   UNL     1      -0.439  -3.277  -0.987  0.00  0.00    +0.095 C 
ATOM     11  C   UNL     1      -2.207  -4.963  -1.067  0.00  0.00    +0.034 C 
ATOM     12  H   UNL     1      -3.815  -4.598   0.107  0.00  0.00    -0.079 HD
ENDROOT
BRANCH   1  13
ATOM     13  C   UNL     1      -0.836  -1.175   0.372  0.00  0.00    +0.013 C 
BRANCH  13  15
ATOM     14  C   UNL     1       0.937   0.579   0.531  0.00  0.00    +0.004 C 
ATOM     15  C   UNL     1       0.673  -0.925   0.424  0.00  0.00    -0.002 C 
ENDBRANCH  13  15
ENDBRANCH   1  13
BRANCH  11  16
ATOM     16  C   UNL     1      -2.799  -4.259  -2.289  0.00  0.00    +0.146 C 
BRANCH  16  17
ATOM     17  O   UNL     1      -2.127  -4.706  -3.469  0.00  0.00    -0.390 OA
ATOM     18  H   UNL     1      -2.247  -5.647  -3.657  0.00  0.00    +0.210 HD
ENDBRANCH  16  17
BRANCH  16  19
ATOM     19  C   UNL     1      -4.290  -4.588  -2.395  0.00  0.00    +0.173 C 
BRANCH  19  20
ATOM     20  O   UNL     1      -4.984  -4.015  -1.285  0.00  0.00    -0.387 OA
ATOM     21  H   UNL     1      -4.945  -3.050  -1.252  0.00  0.00    +0.210 HD
ENDBRANCH  19  20
BRANCH  19  22
ATOM     22  C   UNL     1      -4.848  -4.011  -3.698  0.00  0.00    +0.171 C 
BRANCH  22  23
ATOM     23  O   UNL     1      -4.567  -2.611  -3.757  0.00  0.00    -0.387 OA
ATOM     24  H   UNL     1      -4.953  -2.101  -3.032  0.00  0.00    +0.210 HD
ENDBRANCH  22  23
BRANCH  22  25
ATOM     25  C   UNL     1      -6.361  -4.230  -3.746  0.00  0.00    +0.189 C 
BRANCH  25  26
ATOM     26  O   UNL     1      -6.865  -3.797  -5.011  0.00  0.00    -0.392 OA
ATOM     27  H   UNL     1      -7.821  -3.907  -5.112  0.00  0.00    +0.210 HD
ENDBRANCH  25  26
ENDBRANCH  22  25
ENDBRANCH  19  22
ENDBRANCH  16  19
ENDBRANCH  11  16
BRANCH   5  28
ATOM     28  C   UNL     1      -0.199  -5.636   2.649  0.00  0.00    +0.013 C 
BRANCH  28  29
ATOM     29  C   UNL     1       1.316  -5.421   2.693  0.00  0.00    -0.002 C 
ATOM     30  C   UNL     1       1.894  -6.122   3.925  0.00  0.00    +0.004 C 
ENDBRANCH  28  29
ENDBRANCH   5  28
TORSDOF 12
