REMARK  Name = ZINC59739471
REMARK  3 active torsions:
REMARK  status: ('A' for Active; 'I' for Inactive)
REMARK    1  A    between atoms: C_4  and  C_7
REMARK    2  A    between atoms: C_7  and  C_9
REMARK    3  A    between atoms: C_11  and  C_17
REMARK                            x       y       z     vdW  Elec       q    Type
REMARK                         _______ _______ _______ _____ _____    ______ ____
ROOT
ATOM      1  C   UNL     1       3.716  -2.186  -0.046  0.00  0.00    +0.169 C 
ATOM      2  C   UNL     1       3.501  -2.719  -1.474  0.00  0.00    +0.131 C 
ATOM      3  N   UNL     1       4.729  -3.467  -1.778  0.00  0.00    -0.310 N 
ATOM      4  C   UNL     1       5.569  -3.404  -0.701  0.00  0.00    +0.152 C 
ATOM      5  N   UNL     1       5.046  -2.679   0.338  0.00  0.00    -0.307 N 
ATOM      6  N   UNL     1       6.741  -3.973  -0.665  0.00  0.00    -0.375 N 
ATOM      7  H   UNL     1       5.482  -2.516   1.189  0.00  0.00    +0.149 HD
ATOM      8  H   UNL     1       7.060  -4.475  -1.431  0.00  0.00    +0.158 HD
ATOM      9  H   UNL     1       4.913  -3.933  -2.609  0.00  0.00    +0.149 HD
ATOM     10  H   UNL     1       7.294  -3.894   0.128  0.00  0.00    +0.158 HD
ENDROOT
BRANCH   2  11
ATOM     11  C   UNL     1       3.327  -1.576  -2.441  0.00  0.00    -0.025 A 
ATOM     12  C   UNL     1       4.434  -0.898  -2.916  0.00  0.00    +0.007 A 
ATOM     13  C   UNL     1       4.274   0.150  -3.803  0.00  0.00    +0.020 A 
ATOM     14  C   UNL     1       3.006   0.521  -4.215  0.00  0.00    +0.041 A 
ATOM     15  C   UNL     1       1.899  -0.159  -3.739  0.00  0.00    +0.020 A 
ATOM     16  C   UNL     1       2.060  -1.210  -2.857  0.00  0.00    +0.007 A 
ATOM     17 CL   UNL     1       2.805   1.837  -5.328  0.00  0.00    -0.084 Cl
ENDBRANCH   2  11
BRANCH   1  18
ATOM     18  C   UNL     1       3.691  -0.679  -0.038  0.00  0.00    +0.185 C 
ATOM     19  O   UNL     1       4.731  -0.056  -0.045  0.00  0.00    -0.290 OA
BRANCH  18  23
ATOM     20  C   UNL     1      -0.017   1.380   0.010  0.00  0.00    +0.000 A 
ATOM     21  C   UNL     1       1.168   2.095   0.002  0.00  0.00    +0.001 A 
ATOM     22  C   UNL     1       2.377   1.433  -0.013  0.00  0.00    +0.011 A 
ATOM     23  C   UNL     1       2.405   0.035  -0.021  0.00  0.00    +0.019 A 
ATOM     24  C   UNL     1       1.203  -0.681  -0.013  0.00  0.00    +0.011 A 
ATOM     25  C   UNL     1       0.002  -0.004   0.002  0.00  0.00    +0.001 A 
ENDBRANCH  18  23
ENDBRANCH   1  18
TORSDOF 3
