REMARK  Name = ZINC14156535
REMARK  12 active torsions:
REMARK  status: ('A' for Active; 'I' for Inactive)
REMARK    1  A    between atoms: C_1  and  C_2
REMARK    2  A    between atoms: C_4  and  C_34
REMARK    3  A    between atoms: N_10  and  C_11
REMARK    4  A    between atoms: C_11  and  N_13
REMARK    5  A    between atoms: N_13  and  C_14
REMARK    6  A    between atoms: C_16  and  O_23
REMARK    7  A    between atoms: C_19  and  O_20
REMARK    8  A    between atoms: O_20  and  C_21
REMARK    9  A    between atoms: O_23  and  C_24
REMARK   10  A    between atoms: N_25  and  C_26
REMARK   11  A    between atoms: C_26  and  C_27
REMARK   12  A    between atoms: C_27  and  C_28
REMARK                            x       y       z     vdW  Elec       q    Type
REMARK                         _______ _______ _______ _____ _____    ______ ____
ROOT
ATOM      1  C   UNL     1      -8.491  -2.924  -1.401  0.00  0.00    +0.066 C 
ATOM      2  C   UNL     1      -7.824  -3.462  -2.641  0.00  0.00    +0.044 A 
ATOM      3  C   UNL     1      -8.512  -4.309  -3.497  0.00  0.00    +0.046 A 
ATOM      4  C   UNL     1      -7.862  -4.781  -4.626  0.00  0.00    +0.044 A 
ATOM      5  N   UNL     1      -6.612  -4.412  -4.852  0.00  0.00    -0.217 NA
ATOM      6  C   UNL     1      -5.983  -3.602  -4.014  0.00  0.00    +0.231 A 
ATOM      7  N   UNL     1      -6.573  -3.137  -2.924  0.00  0.00    -0.217 NA
ATOM      8  N   UNL     1      -4.670  -3.236  -4.282  0.00  0.00    -0.297 N 
ATOM      9  C   UNL     1      -4.005  -2.399  -3.427  0.00  0.00    +0.195 C 
ATOM     10  N   UNL     1      -4.612  -1.940  -2.346  0.00  0.00    -0.159 NA
ATOM     11  N   UNL     1      -2.715  -2.039  -3.691  0.00  0.00    -0.357 N 
ATOM     12  C   UNL     1      -8.570  -5.703  -5.585  0.00  0.00    +0.066 C 
ATOM     13  H   UNL     1      -4.166  -3.618  -5.182  0.00  0.00    +0.171 HD
ATOM     14  H   UNL     1      -2.153  -1.435  -2.963  0.00  0.00    +0.162 HD
ENDROOT
BRANCH  10  15
ATOM     15  C   UNL     1      -3.961  -1.118  -1.510  0.00  0.00    +0.162 C 
ATOM     16  S   UNL     1      -3.457   0.427  -2.049  0.00  0.00    -0.016 S 
BRANCH  15  17
ATOM     17  N   UNL     1      -3.704  -1.507  -0.246  0.00  0.00    -0.292 N 
ATOM     18  H   UNL     1      -3.986  -2.517   0.086  0.00  0.00    +0.154 HD
BRANCH  17  19
ATOM     19  C   UNL     1      -3.078  -0.626   0.645  0.00  0.00    +0.078 A 
ATOM     20  C   UNL     1      -3.409   0.722   0.637  0.00  0.00    +0.074 A 
ATOM     21  C   UNL     1      -2.789   1.591   1.520  0.00  0.00    +0.140 A 
ATOM     22  C   UNL     1      -1.833   1.117   2.408  0.00  0.00    +0.086 A 
ATOM     23  C   UNL     1      -1.506  -0.227   2.421  0.00  0.00    +0.071 A 
ATOM     24  C   UNL     1      -2.123  -1.101   1.541  0.00  0.00    +0.143 A 
ATOM     25 CL   UNL     1      -1.053   2.210   3.508  0.00  0.00    -0.080 Cl
BRANCH  24  26
ATOM     26  O   UNL     1      -1.797  -2.421   1.551  0.00  0.00    -0.493 OA
ATOM     27  C   UNL     1      -0.809  -2.838   2.496  0.00  0.00    +0.277 C 
ENDBRANCH  24  26
BRANCH  21  28
ATOM     28  O   UNL     1      -3.112   2.912   1.512  0.00  0.00    -0.494 OA
ATOM     29  C   UNL     1      -4.099   3.333   0.569  0.00  0.00    +0.277 C 
ENDBRANCH  21  28
ENDBRANCH  17  19
ENDBRANCH  15  17
ENDBRANCH  10  15
BRANCH  11  30
ATOM     30  C   UNL     1      -2.079  -2.457  -4.942  0.00  0.00    +0.121 C 
BRANCH  30  31
ATOM     31  C   UNL     1      -0.645  -1.926  -4.988  0.00  0.00    +0.075 C 
BRANCH  31  32
ATOM     32  C   UNL     1       0.009  -2.356  -6.276  0.00  0.00    +0.035 A 
ATOM     33  C   UNL     1       0.589  -1.543  -7.179  0.00  0.00    +0.105 A 
ATOM     34  N   UNL     1       1.054  -2.341  -8.190  0.00  0.00    -0.352 N 
ATOM     35  H   UNL     1       1.571  -1.893  -9.051  0.00  0.00    +0.166 HD
ATOM     36  C   UNL     1       0.742  -3.615  -7.868  0.00  0.00    +0.171 A 
ATOM     37  N   UNL     1       0.121  -3.617  -6.720  0.00  0.00    -0.350 N 
ATOM     38  H   UNL     1      -0.284  -4.448  -6.125  0.00  0.00    +0.166 HD
ENDBRANCH  31  32
ENDBRANCH  30  31
ENDBRANCH  11  30
TORSDOF 8
