REMARK  Name = ZINC39665688
REMARK  12 active torsions:
REMARK  status: ('A' for Active; 'I' for Inactive)
REMARK    1  A    between atoms: C_1  and  C_2
REMARK    2  A    between atoms: C_2  and  O_3
REMARK    3  A    between atoms: O_3  and  C_4
REMARK    4  A    between atoms: C_9  and  C_10
REMARK    5  A    between atoms: C_14  and  C_23
REMARK    6  A    between atoms: N_25  and  C_26
REMARK    7  A    between atoms: C_26  and  C_27
REMARK    8  A    between atoms: C_27  and  C_29
REMARK    9  A    between atoms: C_27  and  O_30
REMARK   10  A    between atoms: O_30  and  C_31
REMARK   11  A    between atoms: C_34  and  O_37
REMARK   12  A    between atoms: O_37  and  C_38
REMARK                            x       y       z     vdW  Elec       q    Type
REMARK                         _______ _______ _______ _____ _____    ______ ____
ROOT
ATOM      1  C   UNL     1      -3.432  -2.725  -0.909  0.00  0.00    +0.250 C 
ATOM      2  O   UNL     1      -3.115  -1.553  -0.974  0.00  0.00    -0.270 OA
ATOM      3  N   UNL     1      -4.734  -3.070  -0.882  0.00  0.00    -0.296 N 
ATOM      4  C   UNL     1      -5.312  -4.423  -0.700  0.00  0.00    +0.121 C 
ATOM      5  C   UNL     1      -6.545  -4.202   0.204  0.00  0.00    +0.100 C 
ATOM      6  C   UNL     1      -6.936  -2.731  -0.017  0.00  0.00    -0.004 C 
ATOM      7  C   UNL     1      -5.913  -2.182  -1.022  0.00  0.00    +0.115 C 
ATOM      8  C   UNL     1      -6.845  -1.957   1.295  0.00  0.00    -0.010 C 
ATOM      9  C   UNL     1      -7.293  -0.511   1.061  0.00  0.00    -0.082 C 
ATOM     10  N   UNL     1      -8.671  -0.500   0.556  0.00  0.00    +0.379 N 
ATOM     11  C   UNL     1      -8.732  -1.166  -0.750  0.00  0.00    -0.082 C 
ATOM     12  C   UNL     1      -8.345  -2.639  -0.593  0.00  0.00    -0.010 C 
ATOM     13  H   UNL     1      -9.271  -0.984   1.208  0.00  0.00    -0.086 HD
ATOM     14  H   UNL     1      -8.985   0.455   0.461  0.00  0.00    -0.086 HD
ENDROOT
BRANCH   1  20
ATOM     15  C   UNL     1      -1.181  -3.526  -0.194  0.00  0.00    +0.133 A 
ATOM     16  C   UNL     1      -0.211  -4.517  -0.149  0.00  0.00    +0.046 A 
ATOM     17  C   UNL     1      -0.436  -5.734  -0.760  0.00  0.00    +0.004 A 
ATOM     18  C   UNL     1      -1.628  -5.976  -1.423  0.00  0.00    +0.001 A 
ATOM     19  C   UNL     1      -2.603  -5.003  -1.478  0.00  0.00    +0.017 A 
ATOM     20  C   UNL     1      -2.390  -3.769  -0.859  0.00  0.00    +0.078 A 
BRANCH  15  21
ATOM     21  O   UNL     1      -0.961  -2.330   0.406  0.00  0.00    -0.491 OA
BRANCH  21  23
ATOM     22  C   UNL     1       0.360  -0.755   1.677  0.00  0.00    +0.048 C 
ATOM     23  C   UNL     1       0.296  -2.155   1.064  0.00  0.00    +0.226 C 
ENDBRANCH  21  23
ENDBRANCH  15  21
ENDBRANCH   1  20
BRANCH   5  24
ATOM     24  C   UNL     1      -7.670  -5.114  -0.211  0.00  0.00    +0.218 C 
ATOM     25  O   UNL     1      -7.750  -5.494  -1.360  0.00  0.00    -0.275 OA
ATOM     26  N   UNL     1      -8.588  -5.508   0.694  0.00  0.00    -0.312 N 
ATOM     27  H   UNL     1      -8.524  -5.204   1.613  0.00  0.00    +0.149 HD
BRANCH  26  28
ATOM     28  C   UNL     1      -9.682  -6.395   0.290  0.00  0.00    +0.148 C 
BRANCH  28  29
ATOM     29  C   UNL     1     -10.574  -6.686   1.498  0.00  0.00    +0.187 C 
ATOM     30  C   UNL     1     -11.717  -7.613   1.076  0.00  0.00    +0.053 C 
BRANCH  29  31
ATOM     31  O   UNL     1      -9.801  -7.319   2.520  0.00  0.00    -0.488 OA
BRANCH  31  32
ATOM     32  C   UNL     1     -10.245  -7.189   3.799  0.00  0.00    +0.121 A 
ATOM     33  C   UNL     1      -9.480  -7.672   4.851  0.00  0.00    +0.049 A 
ATOM     34  C   UNL     1      -9.931  -7.540   6.150  0.00  0.00    +0.049 A 
ATOM     35  C   UNL     1     -11.148  -6.924   6.402  0.00  0.00    +0.120 A 
ATOM     36  C   UNL     1     -11.912  -6.440   5.351  0.00  0.00    +0.049 A 
ATOM     37  C   UNL     1     -11.459  -6.568   4.052  0.00  0.00    +0.049 A 
BRANCH  35  38
ATOM     38  O   UNL     1     -11.592  -6.795   7.681  0.00  0.00    -0.495 OA
ATOM     39  C   UNL     1     -12.854  -6.151   7.868  0.00  0.00    +0.277 C 
ENDBRANCH  35  38
ENDBRANCH  31  32
ENDBRANCH  29  31
ENDBRANCH  28  29
ENDBRANCH  26  28
ENDBRANCH   5  24
TORSDOF 9
