REMARK  Name = ZINC63506927
REMARK  11 active torsions:
REMARK  status: ('A' for Active; 'I' for Inactive)
REMARK    1  A    between atoms: C_1  and  C_2
REMARK    2  A    between atoms: C_6  and  C_37
REMARK    3  A    between atoms: C_7  and  N_8
REMARK    4  A    between atoms: C_9  and  C_11
REMARK    5  A    between atoms: C_11  and  C_13
REMARK    6  A    between atoms: C_11  and  N_20
REMARK    7  A    between atoms: N_20  and  C_21
REMARK    8  A    between atoms: C_21  and  C_22
REMARK    9  A    between atoms: C_22  and  C_23
REMARK   10  A    between atoms: C_31  and  C_33
REMARK   11  A    between atoms: C_34  and  C_36
REMARK                            x       y       z     vdW  Elec       q    Type
REMARK                         _______ _______ _______ _____ _____    ______ ____
ROOT
ATOM      1  C   UNL     1      -0.726   0.014   4.922  0.00  0.00    +0.192 C 
ENDROOT
BRANCH   1   2
ATOM      2  C   UNL     1      -2.215   0.175   4.747  0.00  0.00    -0.018 A 
ATOM      3  C   UNL     1      -3.050  -0.915   4.900  0.00  0.00    +0.007 A 
ATOM      4  C   UNL     1      -4.415  -0.768   4.740  0.00  0.00    +0.020 A 
ATOM      5  C   UNL     1      -4.945   0.471   4.426  0.00  0.00    +0.041 A 
ATOM      6  C   UNL     1      -4.108   1.562   4.272  0.00  0.00    +0.020 A 
ATOM      7  C   UNL     1      -2.744   1.415   4.439  0.00  0.00    +0.007 A 
ATOM      8 CL   UNL     1      -6.659   0.656   4.223  0.00  0.00    -0.084 Cl
ENDBRANCH   1   2
BRANCH   1  10
ATOM      9  N   UNL     1      -0.102   0.252   2.540  0.00  0.00    -0.283 N 
ATOM     10  C   UNL     1      -0.125  -0.517   3.646  0.00  0.00    +0.242 C 
ATOM     11  O   UNL     1       0.338  -1.638   3.615  0.00  0.00    -0.273 OA
ATOM     12  H   UNL     1      -0.523   1.126   2.548  0.00  0.00    +0.155 HD
BRANCH   9  19
ATOM     13  C   UNL     1       2.659  -0.423   2.690  0.00  0.00    +0.045 C 
ATOM     14  C   UNL     1       1.875  -0.551   1.409  0.00  0.00    -0.029 A 
ATOM     15  C   UNL     1       2.494  -1.012   0.263  0.00  0.00    +0.005 A 
ATOM     16  C   UNL     1       1.776  -1.129  -0.913  0.00  0.00    +0.001 A 
ATOM     17  C   UNL     1       0.437  -0.784  -0.946  0.00  0.00    +0.005 A 
ATOM     18  C   UNL     1      -0.187  -0.323   0.196  0.00  0.00    -0.029 A 
ATOM     19  C   UNL     1       0.529  -0.210   1.380  0.00  0.00    +0.039 A 
ATOM     20  C   UNL     1      -1.647   0.052   0.159  0.00  0.00    +0.045 C 
ENDBRANCH   9  19
ENDBRANCH   1  10
BRANCH   1  21
ATOM     21  N   UNL     1      -0.462  -0.924   6.015  0.00  0.00    -0.286 N 
ATOM     22  C   UNL     1      -0.132  -0.460   7.237  0.00  0.00    +0.213 C 
ATOM     23  O   UNL     1       0.169  -1.236   8.119  0.00  0.00    -0.276 OA
ATOM     24  C   UNL     1      -0.135   1.022   7.506  0.00  0.00    +0.109 C 
BRANCH  21  25
ATOM     25  C   UNL     1      -0.557  -2.367   5.780  0.00  0.00    +0.113 C 
BRANCH  25  26
ATOM     26  C   UNL     1       0.843  -2.984   5.822  0.00  0.00    +0.052 C 
BRANCH  26  27
ATOM     27  C   UNL     1       0.745  -4.468   5.580  0.00  0.00    -0.037 C 
ATOM     28  C   UNL     1      -0.380  -5.183   5.352  0.00  0.00    -0.001 A 
ATOM     29  C   UNL     1      -1.796  -4.806   5.265  0.00  0.00    +0.010 A 
ATOM     30  C   UNL     1      -2.716  -5.767   5.021  0.00  0.00    +0.001 A 
ATOM     31  C   UNL     1      -2.352  -7.110   4.849  0.00  0.00    +0.002 A 
ATOM     32  C   UNL     1      -1.072  -7.532   4.915  0.00  0.00    +0.026 A 
ATOM     33  C   UNL     1      -0.022  -6.607   5.167  0.00  0.00    +0.043 A 
ATOM     34  N   UNL     1       1.275  -6.767   5.276  0.00  0.00    -0.378 N 
ATOM     35  C   UNL     1       1.887  -5.459   5.537  0.00  0.00    +0.103 C 
ATOM     36  C   UNL     1       2.860  -5.095   4.414  0.00  0.00    +0.035 C 
ATOM     37  H   UNL     1       1.750  -7.608   5.194  0.00  0.00    +0.160 HD
ENDBRANCH  26  27
ENDBRANCH  25  26
ENDBRANCH  21  25
ENDBRANCH   1  21
TORSDOF 7
