REMARK  Name = ZINC08686540
REMARK  7 active torsions:
REMARK  status: ('A' for Active; 'I' for Inactive)
REMARK    1  A    between atoms: C_1  and  O_2
REMARK    2  A    between atoms: O_2  and  C_3
REMARK    3  A    between atoms: C_3  and  C_5
REMARK    4  A    between atoms: C_5  and  N_6
REMARK    5  A    between atoms: C_7  and  C_26
REMARK    6  A    between atoms: C_16  and  C_18
REMARK    7  A    between atoms: C_23  and  O_24
REMARK                            x       y       z     vdW  Elec       q    Type
REMARK                         _______ _______ _______ _____ _____    ______ ____
ROOT
ATOM      1  N   UNL     1       1.268  -2.665   2.398  0.00  0.00    +0.409 N 
ATOM      2  C   UNL     1       1.229  -4.125   2.537  0.00  0.00    -0.001 C 
ATOM      3  C   UNL     1       2.156  -4.575   3.635  0.00  0.00    -0.035 A 
ATOM      4  C   UNL     1       1.963  -5.808   4.231  0.00  0.00    +0.019 A 
ATOM      5  C   UNL     1       2.809  -6.231   5.240  0.00  0.00    +0.018 A 
ATOM      6  C   UNL     1       3.853  -5.426   5.658  0.00  0.00    +0.017 A 
ATOM      7  C   UNL     1       4.052  -4.192   5.067  0.00  0.00    +0.024 A 
ATOM      8  C   UNL     1       3.202  -3.766   4.056  0.00  0.00    +0.028 A 
ATOM      9  N   UNL     1       3.396  -2.516   3.456  0.00  0.00    -0.353 N 
ATOM     10  C   UNL     1       2.660  -2.224   2.216  0.00  0.00    +0.053 C 
ATOM     11 BR   UNL     1       2.539  -7.919   6.050  0.00  0.00    -0.050 Br
ATOM     12  H   UNL     1       3.997  -1.862   3.846  0.00  0.00    +0.145 HD
ATOM     13  H   UNL     1       0.886  -2.238   3.228  0.00  0.00    -0.076 HD
ENDROOT
BRANCH  10  14
ATOM     14  C   UNL     1       2.694  -0.743   1.940  0.00  0.00    -0.003 A 
ATOM     15  C   UNL     1       1.677   0.070   2.405  0.00  0.00    +0.007 A 
ATOM     16  C   UNL     1       1.707   1.428   2.151  0.00  0.00    +0.000 A 
ATOM     17  C   UNL     1       2.753   1.978   1.433  0.00  0.00    +0.004 A 
ATOM     18  C   UNL     1       3.772   1.169   0.967  0.00  0.00    +0.045 A 
ATOM     19  C   UNL     1       3.747  -0.194   1.224  0.00  0.00    +0.120 A 
BRANCH  19  20
ATOM     20  O   UNL     1       4.751  -0.990   0.771  0.00  0.00    -0.507 OA
ATOM     21  H   UNL     1       4.598  -1.352  -0.113  0.00  0.00    +0.292 HD
ENDBRANCH  19  20
ENDBRANCH  10  14
BRANCH   2  22
ATOM     22  C   UNL     1      -0.177  -4.556   2.866  0.00  0.00    -0.057 A 
ATOM     23  C   UNL     1      -0.942  -3.808   3.740  0.00  0.00    +0.002 A 
ATOM     24  C   UNL     1      -2.232  -4.203   4.042  0.00  0.00    +0.000 A 
ATOM     25  C   UNL     1      -2.757  -5.346   3.469  0.00  0.00    +0.000 A 
ATOM     26  C   UNL     1      -1.991  -6.094   2.593  0.00  0.00    +0.000 A 
ATOM     27  C   UNL     1      -0.703  -5.696   2.288  0.00  0.00    +0.002 A 
ENDBRANCH   2  22
BRANCH   1  28
ATOM     28  C   UNL     1       0.471  -2.264   1.230  0.00  0.00    +0.048 C 
BRANCH  28  29
ATOM     29  C   UNL     1       1.095  -2.827  -0.021  0.00  0.00    +0.290 C 
ATOM     30  O   UNL     1       2.036  -3.581   0.060  0.00  0.00    -0.253 OA
BRANCH  29  32
ATOM     31  C   UNL     1       1.171  -3.147  -2.361  0.00  0.00    +0.280 C 
ATOM     32  O   UNL     1       0.605  -2.491  -1.224  0.00  0.00    -0.469 OA
ENDBRANCH  29  32
ENDBRANCH  28  29
ENDBRANCH   1  28
TORSDOF 6
