REMARK  Name = ZINC61668943
REMARK  7 active torsions:
REMARK  status: ('A' for Active; 'I' for Inactive)
REMARK    1  A    between atoms: C_1  and  O_2
REMARK    2  A    between atoms: O_2  and  C_3
REMARK    3  A    between atoms: C_6  and  C_10
REMARK    4  A    between atoms: C_10  and  C_12
REMARK    5  A    between atoms: C_10  and  N_21
REMARK    6  A    between atoms: C_15  and  O_19
REMARK    7  A    between atoms: O_19  and  C_20
REMARK                            x       y       z     vdW  Elec       q    Type
REMARK                         _______ _______ _______ _____ _____    ______ ____
ROOT
ATOM      1  C   UNL     1      -4.983  -2.627   0.034  0.00  0.00    -0.012 C 
ENDROOT
BRANCH   1   5
ATOM      2  C   UNL     1      -1.200  -0.637   0.010  0.00  0.00    +0.121 A 
ATOM      3  C   UNL     1      -2.375   0.101   0.019  0.00  0.00    +0.046 A 
ATOM      4  C   UNL     1      -3.596  -0.544   0.027  0.00  0.00    +0.007 A 
ATOM      5  C   UNL     1      -3.649  -1.926   0.026  0.00  0.00    -0.039 A 
ATOM      6  C   UNL     1      -2.480  -2.665   0.017  0.00  0.00    +0.046 A 
ATOM      7  C   UNL     1      -1.255  -2.023   0.003  0.00  0.00    +0.065 A 
ATOM      8 CL   UNL     1      -2.550  -4.400   0.015  0.00  0.00    -0.083 Cl
BRANCH   2  10
ATOM      9  C   UNL     1      -0.017   1.425   0.010  0.00  0.00    +0.277 C 
ATOM     10  O   UNL     1       0.002  -0.004   0.002  0.00  0.00    -0.495 OA
ENDBRANCH   2  10
ENDBRANCH   1   5
BRANCH   1  11
ATOM     11  C   UNL     1      -5.323  -3.077  -1.363  0.00  0.00    -0.055 A 
ATOM     12  C   UNL     1      -5.837  -2.173  -2.274  0.00  0.00    +0.006 A 
ATOM     13  C   UNL     1      -6.150  -2.582  -3.556  0.00  0.00    +0.049 A 
ATOM     14  C   UNL     1      -5.948  -3.902  -3.931  0.00  0.00    +0.155 A 
ATOM     15  C   UNL     1      -5.431  -4.809  -3.015  0.00  0.00    +0.165 A 
ATOM     16  C   UNL     1      -5.115  -4.393  -1.734  0.00  0.00    +0.044 A 
ATOM     17  F   UNL     1      -5.233  -6.096  -3.376  0.00  0.00    -0.202 F 
BRANCH  14  18
ATOM     18  O   UNL     1      -6.256  -4.307  -5.191  0.00  0.00    -0.492 OA
ATOM     19  C   UNL     1      -6.783  -3.319  -6.079  0.00  0.00    +0.277 C 
ENDBRANCH  14  18
ENDBRANCH   1  11
BRANCH   1  20
ATOM     20  N   UNL     1      -6.019  -1.704   0.516  0.00  0.00    +0.385 N 
ATOM     21  H   UNL     1      -5.792  -1.402   1.452  0.00  0.00    -0.089 HD
ATOM     22  H   UNL     1      -6.065  -0.901  -0.094  0.00  0.00    -0.089 HD
ATOM     23  H   UNL     1      -6.912  -2.174   0.522  0.00  0.00    -0.089 HD
ENDBRANCH   1  20
TORSDOF 5
