REMARK  Name = ZINC51318475
REMARK  10 active torsions:
REMARK  status: ('A' for Active; 'I' for Inactive)
REMARK    1  A    between atoms: C_1  and  C_2
REMARK    2  A    between atoms: C_2  and  O_3
REMARK    3  A    between atoms: O_3  and  C_4
REMARK    4  A    between atoms: C_4  and  C_6
REMARK    5  A    between atoms: C_7  and  C_21
REMARK    6  A    between atoms: C_12  and  C_14
REMARK    7  A    between atoms: C_17  and  C_20
REMARK    8  A    between atoms: C_21  and  N_22
REMARK    9  A    between atoms: C_25  and  C_28
REMARK   10  A    between atoms: C_25  and  N_31
REMARK                            x       y       z     vdW  Elec       q    Type
REMARK                         _______ _______ _______ _____ _____    ______ ____
ROOT
ATOM      1  C   UNL     1       0.960  -2.815  -4.301  0.00  0.00    +0.079 C 
ATOM      2  C   UNL     1       1.662  -3.853  -3.797  0.00  0.00    +0.038 C 
ATOM      3  N   UNL     1       2.750  -4.353  -4.453  0.00  0.00    -0.271 N 
ATOM      4  C   UNL     1       3.201  -3.871  -5.619  0.00  0.00    +0.304 C 
ATOM      5  O   UNL     1       4.178  -4.383  -6.128  0.00  0.00    -0.252 OA
ATOM      6  N   UNL     1       2.605  -2.837  -6.245  0.00  0.00    -0.288 N 
ATOM      7  C   UNL     1       1.417  -2.230  -5.621  0.00  0.00    +0.144 C 
ATOM      8  H   UNL     1       3.224  -5.099  -4.053  0.00  0.00    +0.156 HD
ATOM      9  H   UNL     1       2.948  -2.504  -7.089  0.00  0.00    +0.151 HD
ENDROOT
BRANCH   7  10
ATOM     10  C   UNL     1       0.272  -2.331  -6.596  0.00  0.00    -0.022 A 
ATOM     11  C   UNL     1       0.008  -3.530  -7.230  0.00  0.00    +0.006 A 
ATOM     12  C   UNL     1      -1.043  -3.622  -8.124  0.00  0.00    +0.004 A 
ATOM     13  C   UNL     1      -1.830  -2.516  -8.382  0.00  0.00    -0.050 A 
ATOM     14  C   UNL     1      -1.566  -1.317  -7.747  0.00  0.00    +0.004 A 
ATOM     15  C   UNL     1      -0.518  -1.225  -6.850  0.00  0.00    +0.006 A 
ATOM     16  C   UNL     1      -2.974  -2.616  -9.357  0.00  0.00    +0.044 C 
ENDBRANCH   7  10
BRANCH   1  17
ATOM     17  C   UNL     1      -0.167  -2.297  -3.622  0.00  0.00    +0.339 C 
ATOM     18  O   UNL     1      -0.588  -2.855  -2.626  0.00  0.00    -0.245 OA
BRANCH  17  19
ATOM     19  O   UNL     1      -0.776  -1.183  -4.079  0.00  0.00    -0.462 OA
BRANCH  19  21
ATOM     20  C   UNL     1      -2.462   0.548  -4.008  0.00  0.00    +0.048 C 
ATOM     21  C   UNL     1      -1.909  -0.715  -3.344  0.00  0.00    +0.229 C 
ENDBRANCH  19  21
ENDBRANCH  17  19
ENDBRANCH   1  17
BRANCH   2  22
ATOM     22  C   UNL     1       1.239  -4.469  -2.488  0.00  0.00    +0.135 C 
BRANCH  22  23
ATOM     23  N   UNL     1       0.199  -5.476  -2.735  0.00  0.00    -0.297 NA
ATOM     24  C   UNL     1       0.761  -6.663  -3.392  0.00  0.00    +0.084 C 
ATOM     25  C   UNL     1      -0.369  -7.625  -3.764  0.00  0.00    +0.013 C 
ATOM     26  C   UNL     1      -1.126  -8.031  -2.496  0.00  0.00    +0.015 C 
ATOM     27  C   UNL     1      -1.660  -6.773  -1.805  0.00  0.00    +0.013 C 
ATOM     28  C   UNL     1      -0.492  -5.835  -1.490  0.00  0.00    +0.084 C 
BRANCH  26  29
ATOM     29  N   UNL     1      -2.248  -8.909  -2.853  0.00  0.00    +0.389 N 
ATOM     30  C   UNL     1      -3.144  -8.203  -3.778  0.00  0.00    -0.077 C 
ATOM     31  C   UNL     1      -4.271  -9.140  -4.217  0.00  0.00    -0.019 C 
ATOM     32  C   UNL     1      -5.060  -9.593  -2.985  0.00  0.00    -0.004 C 
ATOM     33  C   UNL     1      -4.103 -10.261  -1.994  0.00  0.00    -0.019 C 
ATOM     34  C   UNL     1      -2.982  -9.282  -1.638  0.00  0.00    -0.077 C 
ATOM     35  H   UNL     1      -1.894  -9.741  -3.300  0.00  0.00    -0.080 HD
ENDBRANCH  26  29
BRANCH  26  36
ATOM     36  C   UNL     1      -0.192  -8.759  -1.563  0.00  0.00    +0.200 C 
ATOM     37  O   UNL     1       0.308  -8.174  -0.627  0.00  0.00    -0.278 OA
ATOM     38  N   UNL     1       0.087 -10.062  -1.771  0.00  0.00    -0.330 N 
ATOM     39  H   UNL     1      -0.256 -10.511  -2.559  0.00  0.00    +0.145 HD
ATOM     40  H   UNL     1       0.630 -10.549  -1.132  0.00  0.00    +0.145 HD
ENDBRANCH  26  36
ENDBRANCH  22  23
ENDBRANCH   2  22
TORSDOF 8
