REMARK  Name = ZINC19802602
REMARK  4 active torsions:
REMARK  status: ('A' for Active; 'I' for Inactive)
REMARK    1  A    between atoms: C_5  and  C_8
REMARK    2  A    between atoms: C_8  and  C_9
REMARK    3  A    between atoms: C_9  and  N_10
REMARK    4  A    between atoms: C_11  and  C_13
REMARK                            x       y       z     vdW  Elec       q    Type
REMARK                         _______ _______ _______ _____ _____    ______ ____
ROOT
ATOM      1  N   UNL     1      -2.425   6.983   1.454  0.00  0.00    -0.315 N 
ATOM      2  C   UNL     1      -3.085   7.595   2.458  0.00  0.00    +0.219 C 
ATOM      3  O   UNL     1      -3.636   6.935   3.313  0.00  0.00    -0.275 OA
ATOM      4  H   UNL     1      -1.925   7.582   0.678  0.00  0.00    +0.149 HD
ENDROOT
BRANCH   2   5
ATOM      5  C   UNL     1      -3.137   9.100   2.517  0.00  0.00    +0.048 C 
ATOM      6  C   UNL     1      -1.715   9.656   2.616  0.00  0.00    +0.019 C 
ATOM      7  C   UNL     1      -1.768  11.184   2.676  0.00  0.00    -0.009 C 
ATOM      8  C   UNL     1      -2.571  11.618   3.904  0.00  0.00    +0.007 C 
ATOM      9  C   UNL     1      -3.993  11.062   3.805  0.00  0.00    -0.009 C 
ATOM     10  C   UNL     1      -3.940   9.534   3.745  0.00  0.00    +0.019 C 
ATOM     11  C   UNL     1      -4.664  11.600   2.540  0.00  0.00    +0.007 C 
ATOM     12  C   UNL     1      -3.861  11.166   1.313  0.00  0.00    -0.009 C 
ATOM     13  C   UNL     1      -2.439  11.722   1.411  0.00  0.00    +0.007 C 
ATOM     14  C   UNL     1      -3.808   9.638   1.252  0.00  0.00    +0.019 C 
ENDBRANCH   2   5
BRANCH   1  15
ATOM     15  C   UNL     1      -2.375   5.520   1.396  0.00  0.00    +0.102 C 
BRANCH  15  16
ATOM     16  C   UNL     1      -1.571   5.086   0.168  0.00  0.00    +0.003 C 
BRANCH  16  21
ATOM     17  C   UNL     1      -0.755   1.594  -1.231  0.00  0.00    -0.003 C 
ATOM     18  C   UNL     1      -0.013   1.086   0.008  0.00  0.00    -0.019 C 
ATOM     19  C   UNL     1      -0.731   1.580   1.266  0.00  0.00    -0.082 C 
ATOM     20  N   UNL     1      -0.770   3.048   1.264  0.00  0.00    +0.381 N 
ATOM     21  C   UNL     1      -1.519   3.558   0.108  0.00  0.00    -0.070 C 
ATOM     22  C   UNL     1      -0.823   3.123  -1.184  0.00  0.00    -0.016 C 
ATOM     23  H   UNL     1      -1.260   3.403   2.182  0.00  0.00    -0.086 HD
ATOM     24  H   UNL     1       0.256   3.442   1.219  0.00  0.00    -0.086 HD
ENDBRANCH  16  21
ENDBRANCH  15  16
ENDBRANCH   1  15
TORSDOF 4
