REMARK  Name = ZINC39691079
REMARK  7 active torsions:
REMARK  status: ('A' for Active; 'I' for Inactive)
REMARK    1  A    between atoms: C_1  and  C_2
REMARK    2  A    between atoms: C_7  and  C_8
REMARK    3  A    between atoms: C_8  and  C_9
REMARK    4  A    between atoms: C_9  and  N_10
REMARK    5  A    between atoms: C_11  and  C_13
REMARK    6  A    between atoms: C_24  and  C_26
REMARK    7  A    between atoms: C_32  and  C_34
REMARK                            x       y       z     vdW  Elec       q    Type
REMARK                         _______ _______ _______ _____ _____    ______ ____
ROOT
ATOM      1  C   UNL     1      -2.571   2.266   6.027  0.00  0.00    +0.100 C 
ATOM      2  C   UNL     1      -1.717   3.548   5.913  0.00  0.00    +0.121 C 
ATOM      3  N   UNL     1      -2.690   4.619   5.591  0.00  0.00    -0.299 N 
ATOM      4  C   UNL     1      -3.877   4.299   6.419  0.00  0.00    +0.115 C 
ATOM      5  C   UNL     1      -3.988   2.763   6.362  0.00  0.00    -0.004 C 
ATOM      6  C   UNL     1      -4.967   2.345   5.269  0.00  0.00    -0.010 C 
ATOM      7  C   UNL     1      -6.377   2.801   5.653  0.00  0.00    -0.082 C 
ATOM      8  N   UNL     1      -6.757   2.197   6.936  0.00  0.00    +0.379 N 
ATOM      9  C   UNL     1      -5.866   2.676   7.999  0.00  0.00    -0.082 C 
ATOM     10  C   UNL     1      -4.434   2.215   7.714  0.00  0.00    -0.010 C 
ATOM     11  C   UNL     1      -2.531   5.650   4.738  0.00  0.00    +0.236 C 
ATOM     12  O   UNL     1      -3.428   6.451   4.581  0.00  0.00    -0.274 OA
ATOM     13  H   UNL     1      -7.709   2.449   7.157  0.00  0.00    -0.086 HD
ATOM     14  H   UNL     1      -6.686   1.192   6.866  0.00  0.00    -0.086 HD
ENDROOT
BRANCH  11  15
ATOM     15  C   UNL     1      -1.239   5.807   3.978  0.00  0.00    +0.162 C 
ATOM     16  C   UNL     1      -0.174   6.460   4.884  0.00  0.00    +0.033 C 
ATOM     17  C   UNL     1       0.577   7.407   3.912  0.00  0.00    +0.021 C 
ATOM     18  C   UNL     1      -0.575   7.883   2.990  0.00  0.00    +0.109 C 
ATOM     19  N   UNL     1      -1.442   6.698   2.826  0.00  0.00    -0.283 N 
ATOM     20  C   UNL     1      -2.278   6.469   1.794  0.00  0.00    +0.320 C 
ATOM     21  O   UNL     1      -2.944   5.456   1.766  0.00  0.00    -0.266 OA
BRANCH  20  22
ATOM     22  C   UNL     1      -2.386   7.473   0.675  0.00  0.00    +0.470 C 
ATOM     23  F   UNL     1      -3.311   7.019  -0.271  0.00  0.00    -0.162 F 
ATOM     24  F   UNL     1      -2.812   8.702   1.191  0.00  0.00    -0.162 F 
ATOM     25  F   UNL     1      -1.136   7.631   0.068  0.00  0.00    -0.162 F 
ENDBRANCH  20  22
ENDBRANCH  11  15
BRANCH   1  27
ATOM     26  N   UNL     1      -2.736   0.181   4.705  0.00  0.00    -0.315 N 
ATOM     27  C   UNL     1      -2.574   1.519   4.718  0.00  0.00    +0.218 C 
ATOM     28  O   UNL     1      -2.430   2.123   3.675  0.00  0.00    -0.275 OA
ATOM     29  H   UNL     1      -2.850  -0.301   5.538  0.00  0.00    +0.149 HD
BRANCH  26  30
ATOM     30  C   UNL     1      -2.738  -0.544   3.432  0.00  0.00    +0.109 C 
BRANCH  30  31
ATOM     31  C   UNL     1      -2.937  -2.038   3.697  0.00  0.00    +0.054 C 
BRANCH  31  38
ATOM     32  C   UNL     1      -0.440  -2.866   2.502  0.00  0.00    +0.044 C 
ATOM     33  C   UNL     1      -1.745  -3.180   1.816  0.00  0.00    -0.047 A 
ATOM     34  C   UNL     1      -1.747  -3.870   0.618  0.00  0.00    +0.003 A 
ATOM     35  C   UNL     1      -2.944  -4.159  -0.011  0.00  0.00    +0.000 A 
ATOM     36  C   UNL     1      -4.138  -3.758   0.559  0.00  0.00    +0.000 A 
ATOM     37  C   UNL     1      -4.136  -3.069   1.757  0.00  0.00    +0.004 A 
ATOM     38  C   UNL     1      -2.939  -2.784   2.388  0.00  0.00    -0.043 A 
ENDBRANCH  31  38
ENDBRANCH  30  31
ENDBRANCH  26  30
ENDBRANCH   1  27
TORSDOF 6
