REMARK  Name = ZINC15357192
REMARK  5 active torsions:
REMARK  status: ('A' for Active; 'I' for Inactive)
REMARK    1  A    between atoms: C_4  and  N_22
REMARK    2  A    between atoms: C_5  and  N_7
REMARK    3  A    between atoms: N_7  and  C_8
REMARK    4  A    between atoms: C_8  and  C_9
REMARK    5  A    between atoms: N_14  and  C_15
REMARK                            x       y       z     vdW  Elec       q    Type
REMARK                         _______ _______ _______ _____ _____    ______ ____
ROOT
ATOM      1  C   UNL     1      -0.145  -2.783  -0.094  0.00  0.00    +0.198 C 
ENDROOT
BRANCH   1   2
ATOM      2  C   UNL     1       0.098  -4.270  -0.073  0.00  0.00    +0.237 C 
ATOM      3  O   UNL     1       1.230  -4.698   0.010  0.00  0.00    -0.274 OA
ATOM      4  N   UNL     1      -0.942  -5.125  -0.145  0.00  0.00    -0.239 N 
ATOM      5  C   UNL     1      -0.724  -6.454  -0.127  0.00  0.00    +0.306 C 
ATOM      6  O   UNL     1       0.411  -6.883  -0.044  0.00  0.00    -0.252 OA
ATOM      7  N   UNL     1      -1.763  -7.309  -0.200  0.00  0.00    -0.295 N 
ATOM      8  H   UNL     1      -1.847  -4.782  -0.211  0.00  0.00    +0.159 HD
ATOM      9  H   UNL     1      -2.668  -6.967  -0.266  0.00  0.00    +0.151 HD
BRANCH   7  10
ATOM     10  C   UNL     1      -1.526  -8.754  -0.179  0.00  0.00    +0.097 C 
ATOM     11  C   UNL     1      -1.247  -9.255  -1.606  0.00  0.00    +0.046 C 
ATOM     12  C   UNL     1      -1.314 -10.801  -1.645  0.00  0.00    +0.168 C 
ATOM     13  S   UNL     1      -2.488 -11.189  -0.284  0.00  0.00    -0.029 S 
ATOM     14  O   UNL     1      -1.808 -11.940   0.713  0.00  0.00    -0.174 OA
ATOM     15  O   UNL     1      -3.692 -11.697  -0.842  0.00  0.00    -0.174 OA
ATOM     16  C   UNL     1      -2.792  -9.487   0.352  0.00  0.00    +0.188 C 
ENDBRANCH   7  10
ENDBRANCH   1   2
BRANCH   1  17
ATOM     17  N   UNL     1       1.135  -2.077  -0.003  0.00  0.00    -0.334 N 
ATOM     18  H   UNL     1       1.963  -2.579   0.058  0.00  0.00    +0.147 HD
BRANCH  17  23
ATOM     19  C   UNL     1       0.009   1.421   0.025  0.00  0.00    +0.002 A 
ATOM     20  C   UNL     1       1.222   2.086  -0.007  0.00  0.00    +0.002 A 
ATOM     21  C   UNL     1       2.405   1.371  -0.038  0.00  0.00    +0.023 A 
ATOM     22  C   UNL     1       2.380  -0.010  -0.037  0.00  0.00    +0.035 A 
ATOM     23  C   UNL     1       1.164  -0.681  -0.004  0.00  0.00    +0.047 A 
ATOM     24  C   UNL     1      -0.023   0.041   0.026  0.00  0.00    +0.025 A 
BRANCH  22  25
ATOM     25  N   UNL     1       3.577  -0.732  -0.069  0.00  0.00    -0.392 NA
ATOM     26  C   UNL     1       4.426  -0.317   1.054  0.00  0.00    +0.085 C 
ATOM     27  C   UNL     1       5.703  -1.161   1.071  0.00  0.00    +0.017 C 
ATOM     28  C   UNL     1       6.459  -0.959  -0.245  0.00  0.00    +0.003 C 
ATOM     29  C   UNL     1       5.538  -1.323  -1.413  0.00  0.00    +0.017 C 
ATOM     30  C   UNL     1       4.268  -0.474  -1.338  0.00  0.00    +0.085 C 
ATOM     31  H   UNL     1       3.376  -1.717   0.009  0.00  0.00    +0.126 HD
ENDBRANCH  22  25
ENDBRANCH  17  23
ENDBRANCH   1  17
TORSDOF 5
