REMARK  Name = ZINC56524060
REMARK  11 active torsions:
REMARK  status: ('A' for Active; 'I' for Inactive)
REMARK    1  A    between atoms: C_1  and  C_2
REMARK    2  A    between atoms: C_2  and  C_4
REMARK    3  A    between atoms: C_2  and  N_13
REMARK    4  A    between atoms: N_9  and  C_10
REMARK    5  A    between atoms: C_10  and  C_11
REMARK    6  A    between atoms: C_10  and  C_12
REMARK    7  A    between atoms: C_16  and  C_19
REMARK    8  A    between atoms: C_19  and  C_20
REMARK    9  A    between atoms: C_20  and  N_21
REMARK   10  A    between atoms: N_21  and  C_22
REMARK   11  A    between atoms: N_21  and  C_23
REMARK                            x       y       z     vdW  Elec       q    Type
REMARK                         _______ _______ _______ _____ _____    ______ ____
ROOT
ATOM      1  C   UNL     1       0.142   1.428  -0.519  0.00  0.00    -0.004 C 
ATOM      2  C   UNL     1       0.002  -0.004   0.002  0.00  0.00    +0.017 C 
ENDROOT
BRANCH   2   3
ATOM      3  C   UNL     1      -1.443  -0.425  -0.068  0.00  0.00    +0.207 C 
ATOM      4  O   UNL     1      -1.864  -0.986  -1.057  0.00  0.00    -0.277 OA
ATOM      5  N   UNL     1      -2.268  -0.178   0.968  0.00  0.00    -0.242 N 
ATOM      6  C   UNL     1      -3.561  -0.554   0.905  0.00  0.00    +0.306 C 
ATOM      7  O   UNL     1      -3.982  -1.117  -0.086  0.00  0.00    -0.252 OA
ATOM      8  N   UNL     1      -4.386  -0.307   1.942  0.00  0.00    -0.297 N 
ATOM      9  H   UNL     1      -1.932   0.271   1.760  0.00  0.00    +0.159 HD
ATOM     10  H   UNL     1      -4.050   0.142   2.733  0.00  0.00    +0.151 HD
BRANCH   8  11
ATOM     11  C   UNL     1      -5.791  -0.716   1.874  0.00  0.00    +0.068 C 
ATOM     12  C   UNL     1      -6.335  -0.910   3.291  0.00  0.00    +0.027 C 
ATOM     13  C   UNL     1      -6.603   0.366   1.159  0.00  0.00    +0.027 C 
ENDBRANCH   8  11
ENDBRANCH   2   3
BRANCH   2  14
ATOM     14  N   UNL     1       0.816  -0.907  -0.823  0.00  0.00    +0.387 N 
ATOM     15  C   UNL     1       2.224  -0.498  -0.750  0.00  0.00    -0.078 C 
ATOM     16  C   UNL     1       3.064  -1.385  -1.671  0.00  0.00    -0.015 C 
ATOM     17  C   UNL     1       2.932  -2.844  -1.226  0.00  0.00    -0.016 C 
ATOM     18  C   UNL     1       1.452  -3.237  -1.234  0.00  0.00    -0.015 C 
ATOM     19  C   UNL     1       0.671  -2.282  -0.330  0.00  0.00    -0.078 C 
ATOM     20  H   UNL     1       0.503  -0.860  -1.781  0.00  0.00    -0.081 HD
BRANCH  17  21
ATOM     21  C   UNL     1       3.706  -3.746  -2.190  0.00  0.00    -0.015 C 
BRANCH  21  22
ATOM     22  C   UNL     1       3.676  -5.186  -1.676  0.00  0.00    -0.079 C 
BRANCH  22  23
ATOM     23  N   UNL     1       4.420  -6.052  -2.602  0.00  0.00    +0.376 N 
ATOM     24  C   UNL     1       4.494  -7.411  -2.049  0.00  0.00    -0.097 C 
ATOM     25  C   UNL     1       3.731  -6.088  -3.899  0.00  0.00    -0.097 C 
ATOM     26  H   UNL     1       5.353  -5.688  -2.727  0.00  0.00    -0.083 HD
ENDBRANCH  22  23
ENDBRANCH  21  22
ENDBRANCH  17  21
ENDBRANCH   2  14
TORSDOF 6
