REMARK  Name = ZINC03320406
REMARK  7 active torsions:
REMARK  status: ('A' for Active; 'I' for Inactive)
REMARK    1  A    between atoms: C_3  and  O_23
REMARK    2  A    between atoms: C_6  and  N_7
REMARK    3  A    between atoms: N_7  and  C_8
REMARK    4  A    between atoms: C_8  and  N_10
REMARK    5  A    between atoms: N_10  and  N_11
REMARK    6  A    between atoms: N_11  and  C_12
REMARK    7  A    between atoms: O_23  and  C_24
REMARK                            x       y       z     vdW  Elec       q    Type
REMARK                         _______ _______ _______ _____ _____    ______ ____
ROOT
ATOM      1  N   UNL     1      -2.345  -2.746  -0.193  0.00  0.00    -0.248 N 
ATOM      2  H   UNL     1      -2.334  -3.713  -0.271  0.00  0.00    +0.172 HD
ENDROOT
BRANCH   1   3
ATOM      3  C   UNL     1      -1.186  -2.065  -0.099  0.00  0.00    +0.151 C 
ATOM      4  S   UNL     1       0.305  -2.905  -0.118  0.00  0.00    -0.017 S 
BRANCH   3   5
ATOM      5  N   UNL     1      -1.201  -0.721   0.010  0.00  0.00    -0.296 N 
ATOM      6  H   UNL     1      -2.046  -0.250   0.084  0.00  0.00    +0.154 HD
BRANCH   5  12
ATOM      7  C   UNL     1       0.135   1.138  -0.759  0.00  0.00    +0.027 A 
ATOM      8  C   UNL     1       1.323   1.844  -0.752  0.00  0.00    +0.047 A 
ATOM      9  C   UNL     1       2.382   1.410   0.032  0.00  0.00    +0.127 A 
ATOM     10  C   UNL     1       2.251   0.268   0.807  0.00  0.00    +0.047 A 
ATOM     11  C   UNL     1       1.064  -0.439   0.800  0.00  0.00    +0.027 A 
ATOM     12  C   UNL     1       0.003  -0.005   0.017  0.00  0.00    +0.033 A 
BRANCH   9  13
ATOM     13  O   UNL     1       3.551   2.106   0.039  0.00  0.00    -0.434 OA
BRANCH  13  14
ATOM     14  C   UNL     1       4.600   1.602   0.868  0.00  0.00    +0.541 C 
ATOM     15  F   UNL     1       4.170   1.576   2.199  0.00  0.00    -0.166 F 
ATOM     16  F   UNL     1       4.936   0.307   0.461  0.00  0.00    -0.166 F 
ENDBRANCH  13  14
ENDBRANCH   9  13
ENDBRANCH   5  12
ENDBRANCH   3   5
ENDBRANCH   1   3
BRANCH   1  17
ATOM     17  N   UNL     1      -3.565  -2.059  -0.177  0.00  0.00    -0.265 N 
ATOM     18  H   UNL     1      -3.576  -1.092  -0.098  0.00  0.00    +0.170 HD
BRANCH  17  19
ATOM     19  C   UNL     1      -4.757  -2.760  -0.273  0.00  0.00    +0.055 A 
ATOM     20  C   UNL     1      -4.767  -4.142  -0.380  0.00  0.00    +0.042 A 
ATOM     21  C   UNL     1      -5.977  -4.816  -0.475  0.00  0.00    +0.085 A 
ATOM     22  N   UNL     1      -7.126  -4.181  -0.466  0.00  0.00    -0.361 N 
ATOM     23  C   UNL     1      -7.192  -2.849  -0.366  0.00  0.00    +0.050 A 
ATOM     24  C   UNL     1      -6.003  -2.088  -0.259  0.00  0.00    +0.021 A 
ATOM     25  C   UNL     1      -6.078  -0.693  -0.149  0.00  0.00    +0.013 A 
ATOM     26  C   UNL     1      -7.295  -0.082  -0.139  0.00  0.00    +0.021 A 
ATOM     27  C   UNL     1      -8.469  -0.828  -0.238  0.00  0.00    +0.043 A 
ATOM     28  C   UNL     1      -8.430  -2.184  -0.359  0.00  0.00    +0.046 A 
ATOM     29 CL   UNL     1     -10.002  -0.014  -0.223  0.00  0.00    -0.083 Cl
ATOM     30  H   UNL     1      -7.948  -4.691  -0.534  0.00  0.00    +0.165 HD
ENDBRANCH  17  19
ENDBRANCH   1  17
TORSDOF 7
