REMARK  Name = ZINC31947084
REMARK  5 active torsions:
REMARK  status: ('A' for Active; 'I' for Inactive)
REMARK    1  A    between atoms: C_6  and  N_10
REMARK    2  A    between atoms: C_7  and  C_8
REMARK    3  A    between atoms: C_11  and  C_13
REMARK    4  A    between atoms: C_13  and  C_14
REMARK    5  A    between atoms: C_14  and  C_15
REMARK                            x       y       z     vdW  Elec       q    Type
REMARK                         _______ _______ _______ _____ _____    ______ ____
ROOT
ATOM      1  N   UNL     1      -0.242   1.246   2.466  0.00  0.00    -0.279 N 
ATOM      2  C   UNL     1      -0.718   1.572   1.248  0.00  0.00    +0.218 C 
ATOM      3  O   UNL     1      -1.715   2.256   1.150  0.00  0.00    -0.275 OA
ATOM      4  H   UNL     1       0.662   0.625   2.555  0.00  0.00    +0.155 HD
ENDROOT
BRANCH   1  10
ATOM      5  C   UNL     1      -2.385   3.260   7.851  0.00  0.00    +0.010 C 
ATOM      6  C   UNL     1      -1.458   2.085   7.485  0.00  0.00    +0.037 C 
ATOM      7  C   UNL     1      -1.416   2.057   5.957  0.00  0.00    -0.018 A 
ATOM      8  C   UNL     1      -2.457   2.771   5.489  0.00  0.00    -0.004 A 
ATOM      9  S   UNL     1      -2.315   2.671   3.722  0.00  0.00    -0.077 S 
ATOM     10  C   UNL     1      -0.891   1.694   3.608  0.00  0.00    +0.090 A 
ATOM     11  C   UNL     1      -0.561   1.462   4.931  0.00  0.00    +0.084 A 
ATOM     12  C   UNL     1      -3.290   3.348   6.602  0.00  0.00    +0.043 C 
BRANCH  11  13
ATOM     13  C   UNL     1       0.579   0.671   5.284  0.00  0.00    +0.102 C 
ATOM     14  N   UNL     1       1.484   0.043   5.563  0.00  0.00    -0.191 NA
ENDBRANCH  11  13
ENDBRANCH   1  10
BRANCH   2  15
ATOM     15  C   UNL     1      -0.013   1.086   0.008  0.00  0.00    +0.105 C 
BRANCH  15  16
ATOM     16  C   UNL     1      -0.753   1.593  -1.232  0.00  0.00    +0.105 C 
BRANCH  16  17
ATOM     17  C   UNL     1      -0.047   1.107  -2.471  0.00  0.00    +0.216 C 
ATOM     18  O   UNL     1       0.949   0.422  -2.373  0.00  0.00    -0.276 OA
ATOM     19  N   UNL     1      -0.524   1.433  -3.689  0.00  0.00    -0.305 N 
ATOM     20  C   UNL     1      -1.734   2.256  -3.831  0.00  0.00    +0.088 C 
ATOM     21  C   UNL     1      -2.699   1.552  -4.783  0.00  0.00    -0.063 C 
ATOM     22  N   UNL     1      -2.006   1.244  -6.041  0.00  0.00    +0.381 N 
ATOM     23  C   UNL     1      -0.894   0.310  -5.822  0.00  0.00    -0.063 C 
ATOM     24  C   UNL     1       0.149   0.969  -4.912  0.00  0.00    +0.088 C 
ATOM     25  H   UNL     1      -2.715   0.785  -6.747  0.00  0.00    -0.086 HD
ATOM     26  H   UNL     1      -1.605   2.171  -6.476  0.00  0.00    -0.086 HD
ENDBRANCH  16  17
ENDBRANCH  15  16
ENDBRANCH   2  15
TORSDOF 5
