REMARK  Name = ZINC13769626
REMARK  6 active torsions:
REMARK  status: ('A' for Active; 'I' for Inactive)
REMARK    1  A    between atoms: C_1  and  O_2
REMARK    2  A    between atoms: O_2  and  C_3
REMARK    3  A    between atoms: C_6  and  C_9
REMARK    4  A    between atoms: N_17  and  C_20
REMARK    5  A    between atoms: C_28  and  N_32
REMARK    6  A    between atoms: C_29  and  C_30
REMARK                            x       y       z     vdW  Elec       q    Type
REMARK                         _______ _______ _______ _____ _____    ______ ____
ROOT
ATOM      1  C   UNL     1       2.505  -2.503  -4.381  0.00  0.00    +0.075 C 
ATOM      2  C   UNL     1       3.644  -3.349  -3.889  0.00  0.00    +0.110 C 
ATOM      3  C   UNL     1       4.370  -3.959  -5.129  0.00  0.00    +0.152 C 
ATOM      4  C   UNL     1       5.670  -4.357  -4.488  0.00  0.00    +0.240 C 
ATOM      5  O   UNL     1       6.383  -5.285  -4.804  0.00  0.00    -0.274 OA
ATOM      6  N   UNL     1       5.887  -3.469  -3.484  0.00  0.00    -0.209 N 
ATOM      7  C   UNL     1       4.805  -2.709  -3.198  0.00  0.00    +0.232 C 
ATOM      8  O   UNL     1       4.784  -1.710  -2.510  0.00  0.00    -0.274 OA
ATOM      9  S   UNL     1       3.313  -5.332  -5.656  0.00  0.00    -0.096 S 
ATOM     10  C   UNL     1       1.725  -4.547  -5.684  0.00  0.00    +0.074 C 
ATOM     11  C   UNL     1       1.503  -3.362  -5.105  0.00  0.00    +0.064 C 
ENDROOT
BRANCH   6  12
ATOM     12  C   UNL     1       7.114  -3.345  -2.818  0.00  0.00    +0.044 A 
ATOM     13  C   UNL     1       7.261  -2.418  -1.796  0.00  0.00    +0.025 A 
ATOM     14  C   UNL     1       8.472  -2.299  -1.141  0.00  0.00    +0.017 A 
ATOM     15  C   UNL     1       9.538  -3.103  -1.504  0.00  0.00    +0.018 A 
ATOM     16  C   UNL     1       9.394  -4.028  -2.523  0.00  0.00    +0.017 A 
ATOM     17  C   UNL     1       8.184  -4.155  -3.177  0.00  0.00    +0.025 A 
ATOM     18 BR   UNL     1      11.194  -2.936  -0.607  0.00  0.00    -0.050 Br
ENDBRANCH   6  12
BRANCH   1  22
ATOM     19  C   UNL     1       0.606  -0.607  -1.056  0.00  0.00    +0.120 A 
ATOM     20  C   UNL     1       1.173   0.161  -2.062  0.00  0.00    +0.046 A 
ATOM     21  C   UNL     1       1.786  -0.455  -3.136  0.00  0.00    +0.008 A 
ATOM     22  C   UNL     1       1.835  -1.835  -3.209  0.00  0.00    -0.038 A 
ATOM     23  C   UNL     1       1.270  -2.602  -2.207  0.00  0.00    +0.008 A 
ATOM     24  C   UNL     1       0.661  -1.992  -1.128  0.00  0.00    +0.046 A 
BRANCH  19  26
ATOM     25  C   UNL     1      -0.017   1.425   0.010  0.00  0.00    +0.277 C 
ATOM     26  O   UNL     1       0.002  -0.004   0.002  0.00  0.00    -0.495 OA
ENDBRANCH  19  26
ENDBRANCH   1  22
BRANCH  10  27
ATOM     27  N   UNL     1       0.679  -5.187  -6.305  0.00  0.00    -0.352 N 
ATOM     28  H   UNL     1       0.818  -6.053  -6.718  0.00  0.00    +0.143 HD
ATOM     29  H   UNL     1      -0.197  -4.772  -6.329  0.00  0.00    +0.143 HD
ENDBRANCH  10  27
BRANCH  11  30
ATOM     30  C   UNL     1       0.171  -2.847  -5.207  0.00  0.00    +0.098 C 
ATOM     31  N   UNL     1      -0.886  -2.438  -5.288  0.00  0.00    -0.191 NA
ENDBRANCH  11  30
TORSDOF 5
