REMARK  Name = ZINC56184299
REMARK  10 active torsions:
REMARK  status: ('A' for Active; 'I' for Inactive)
REMARK    1  A    between atoms: C_1  and  C_2
REMARK    2  A    between atoms: C_2  and  C_4
REMARK    3  A    between atoms: C_2  and  N_18
REMARK    4  A    between atoms: C_7  and  O_10
REMARK    5  A    between atoms: O_10  and  C_11
REMARK    6  A    between atoms: C_11  and  C_12
REMARK    7  A    between atoms: N_14  and  C_15
REMARK    8  A    between atoms: N_18  and  C_19
REMARK    9  A    between atoms: C_19  and  C_21
REMARK   10  A    between atoms: C_19  and  C_27
REMARK                            x       y       z     vdW  Elec       q    Type
REMARK                         _______ _______ _______ _____ _____    ______ ____
ROOT
ATOM      1  C   UNL     1      -0.538   1.714   0.316  0.00  0.00    -0.009 C 
ATOM      2  C   UNL     1       0.009   0.311   0.052  0.00  0.00    -0.043 C 
ENDROOT
BRANCH   2   3
ATOM      3  C   UNL     1       0.784   0.309  -1.241  0.00  0.00    -0.061 A 
ATOM      4  C   UNL     1       2.084   0.779  -1.267  0.00  0.00    +0.005 A 
ATOM      5  C   UNL     1       2.796   0.779  -2.451  0.00  0.00    +0.046 A 
ATOM      6  C   UNL     1       2.205   0.307  -3.614  0.00  0.00    +0.121 A 
ATOM      7  C   UNL     1       0.901  -0.164  -3.585  0.00  0.00    +0.046 A 
ATOM      8  C   UNL     1       0.195  -0.167  -2.398  0.00  0.00    +0.005 A 
BRANCH   6   9
ATOM      9  O   UNL     1       2.904   0.306  -4.780  0.00  0.00    -0.483 OA
BRANCH   9  10
ATOM     10  C   UNL     1       2.232  -0.194  -5.938  0.00  0.00    +0.324 C 
BRANCH  10  11
ATOM     11  C   UNL     1       3.156  -0.117  -7.127  0.00  0.00    +0.251 C 
ATOM     12  O   UNL     1       4.278   0.323  -6.995  0.00  0.00    -0.272 OA
ATOM     13  N   UNL     1       2.734  -0.537  -8.336  0.00  0.00    -0.310 N 
ATOM     14  H   UNL     1       1.836  -0.889  -8.441  0.00  0.00    +0.149 HD
BRANCH  13  15
ATOM     15  C   UNL     1       3.631  -0.463  -9.491  0.00  0.00    +0.073 C 
ATOM     16  C   UNL     1       3.046   0.052 -10.808  0.00  0.00    +0.024 C 
ATOM     17  C   UNL     1       3.378  -1.433 -10.647  0.00  0.00    +0.024 C 
ENDBRANCH  13  15
ENDBRANCH  10  11
ENDBRANCH   9  10
ENDBRANCH   6   9
ENDBRANCH   2   3
BRANCH   2  18
ATOM     18  N   UNL     1       0.896  -0.085   1.154  0.00  0.00    +0.394 N 
ATOM     19  H   UNL     1       1.333  -0.967   0.934  0.00  0.00    -0.083 HD
ATOM     20  H   UNL     1       1.607   0.620   1.284  0.00  0.00    -0.083 HD
BRANCH  18  21
ATOM     21  C   UNL     1       0.111  -0.222   2.389  0.00  0.00    +0.047 C 
BRANCH  21  22
ATOM     22  C   UNL     1      -0.857  -1.368   2.244  0.00  0.00    -0.053 A 
ATOM     23  C   UNL     1      -0.459  -2.534   1.617  0.00  0.00    +0.002 A 
ATOM     24  C   UNL     1      -1.346  -3.585   1.484  0.00  0.00    +0.000 A 
ATOM     25  C   UNL     1      -2.632  -3.471   1.979  0.00  0.00    +0.000 A 
ATOM     26  C   UNL     1      -3.030  -2.305   2.607  0.00  0.00    +0.000 A 
ATOM     27  C   UNL     1      -2.141  -1.256   2.743  0.00  0.00    +0.002 A 
ENDBRANCH  21  22
BRANCH  21  28
ATOM     28  C   UNL     1       1.038  -0.490   3.546  0.00  0.00    +0.201 C 
ATOM     29  O   UNL     1       2.141  -0.953   3.345  0.00  0.00    -0.277 OA
ATOM     30  N   UNL     1       0.642  -0.216   4.804  0.00  0.00    -0.330 N 
ATOM     31  H   UNL     1      -0.240   0.153   4.965  0.00  0.00    +0.145 HD
ATOM     32  H   UNL     1       1.239  -0.389   5.549  0.00  0.00    +0.145 HD
ENDBRANCH  21  28
ENDBRANCH  18  21
ENDBRANCH   2  18
TORSDOF 9
