REMARK  Name = ZINC40036442
REMARK  8 active torsions:
REMARK  status: ('A' for Active; 'I' for Inactive)
REMARK    1  A    between atoms: C_1  and  C_2
REMARK    2  A    between atoms: C_2  and  C_3
REMARK    3  A    between atoms: C_3  and  C_4
REMARK    4  A    between atoms: C_4  and  C_39
REMARK    5  A    between atoms: N_16  and  C_32
REMARK    6  A    between atoms: N_19  and  N_20
REMARK    7  A    between atoms: C_21  and  C_22
REMARK    8  A    between atoms: C_35  and  C_38
REMARK                            x       y       z     vdW  Elec       q    Type
REMARK                         _______ _______ _______ _____ _____    ______ ____
ROOT
ATOM      1  C   UNL     1       1.142  -1.243  -0.726  0.00  0.00    +0.004 C 
ATOM      2  C   UNL     1       1.486  -1.276  -2.213  0.00  0.00    +0.047 C 
ATOM      3  C   UNL     1       2.968  -1.447  -2.409  0.00  0.00    -0.037 A 
ATOM      4  C   UNL     1       3.611  -0.822  -3.458  0.00  0.00    +0.004 A 
ATOM      5  C   UNL     1       4.973  -0.988  -3.634  0.00  0.00    +0.000 A 
ATOM      6  C   UNL     1       5.700  -1.780  -2.763  0.00  0.00    +0.001 A 
ATOM      7  C   UNL     1       5.069  -2.410  -1.709  0.00  0.00    +0.010 A 
ATOM      8  C   UNL     1       3.700  -2.244  -1.527  0.00  0.00    +0.004 A 
ATOM      9  C   UNL     1       2.997  -2.898  -0.401  0.00  0.00    +0.084 A 
ATOM     10  C   UNL     1       1.754  -2.416  -0.014  0.00  0.00    +0.050 A 
ATOM     11  C   UNL     1       1.087  -3.041   1.047  0.00  0.00    +0.264 A 
ATOM     12  O   UNL     1      -0.008  -2.647   1.413  0.00  0.00    -0.267 OA
ATOM     13  N   UNL     1       1.682  -4.090   1.656  0.00  0.00    -0.248 N 
ATOM     14  C   UNL     1       2.907  -4.521   1.240  0.00  0.00    +0.223 A 
ATOM     15  N   UNL     1       3.539  -3.938   0.241  0.00  0.00    -0.214 NA
ATOM     16  N   UNL     1       3.495  -5.585   1.875  0.00  0.00    -0.206 N 
ATOM     17  C   UNL     1      -0.378  -1.289  -0.559  0.00  0.00    +0.017 C 
ATOM     18  H   UNL     1       3.031  -6.033   2.600  0.00  0.00    +0.177 HD
ENDROOT
BRANCH  13  19
ATOM     19  C   UNL     1       1.037  -4.737   2.717  0.00  0.00    +0.053 A 
ATOM     20  C   UNL     1       1.244  -4.308   4.022  0.00  0.00    +0.026 A 
ATOM     21  C   UNL     1       0.607  -4.948   5.067  0.00  0.00    +0.005 A 
ATOM     22  C   UNL     1      -0.235  -6.016   4.815  0.00  0.00    -0.050 A 
ATOM     23  C   UNL     1      -0.443  -6.446   3.518  0.00  0.00    +0.005 A 
ATOM     24  C   UNL     1       0.186  -5.806   2.468  0.00  0.00    +0.026 A 
ATOM     25  C   UNL     1      -0.929  -6.712   5.958  0.00  0.00    +0.044 C 
ENDBRANCH  13  19
BRANCH  16  26
ATOM     26  N   UNL     1       4.764  -6.024   1.478  0.00  0.00    -0.188 NA
ATOM     27  C   UNL     1       5.322  -7.034   2.081  0.00  0.00    +0.137 C 
BRANCH  27  28
ATOM     28  C   UNL     1       6.607  -7.479   1.679  0.00  0.00    +0.010 C 
ATOM     29  C   UNL     1       7.259  -6.851   0.670  0.00  0.00    +0.020 C 
ATOM     30  C   UNL     1       8.582  -7.367   0.280  0.00  0.00    +0.017 A 
ATOM     31  C   UNL     1       9.459  -6.609  -0.495  0.00  0.00    +0.011 A 
ATOM     32  C   UNL     1      10.690  -7.133  -0.837  0.00  0.00    +0.001 A 
ATOM     33  C   UNL     1      11.053  -8.400  -0.414  0.00  0.00    +0.004 A 
ATOM     34  C   UNL     1      10.190  -9.160   0.356  0.00  0.00    +0.046 A 
ATOM     35  C   UNL     1       8.953  -8.652   0.708  0.00  0.00    +0.128 A 
ATOM     36  O   UNL     1       8.084  -9.372   1.461  0.00  0.00    -0.487 OA
ATOM     37  C   UNL     1       7.255  -8.647   2.375  0.00  0.00    +0.266 C 
ENDBRANCH  27  28
ENDBRANCH  16  26
BRANCH   1  38
ATOM     38  C   UNL     1       1.678   0.053  -0.113  0.00  0.00    +0.011 C 
BRANCH  38  40
ATOM     39  C   UNL     1       1.847   1.401   1.984  0.00  0.00    +0.004 C 
ATOM     40  C   UNL     1       1.311   0.105   1.371  0.00  0.00    -0.003 C 
ENDBRANCH  38  40
ENDBRANCH   1  38
TORSDOF 5
