REMARK  Name = ZINC00849582
REMARK  4 active torsions:
REMARK  status: ('A' for Active; 'I' for Inactive)
REMARK    1  A    between atoms: C_1  and  S_2
REMARK    2  A    between atoms: S_2  and  C_3
REMARK    3  A    between atoms: C_13  and  N_15
REMARK    4  A    between atoms: N_15  and  N_16
REMARK                            x       y       z     vdW  Elec       q    Type
REMARK                         _______ _______ _______ _____ _____    ______ ____
ROOT
ATOM      1  C   UNL     1       6.678  -2.405   7.119  0.00  0.00    +0.190 A 
ATOM      2  N   UNL     1       6.254  -1.813   6.022  0.00  0.00    -0.221 NA
ATOM      3  C   UNL     1       4.974  -1.940   5.604  0.00  0.00    +0.094 A 
ATOM      4  C   UNL     1       4.347  -1.346   4.409  0.00  0.00    +0.035 A 
ATOM      5  C   UNL     1       4.962  -0.511   3.439  0.00  0.00    -0.029 A 
ATOM      6  C   UNL     1       4.229  -0.059   2.390  0.00  0.00    -0.005 A 
ATOM      7  C   UNL     1       2.874  -0.404   2.286  0.00  0.00    +0.103 A 
ATOM      8  C   UNL     1       2.989  -1.645   4.216  0.00  0.00    +0.089 A 
ATOM      9  S   UNL     1       2.567  -2.688   5.590  0.00  0.00    -0.066 S 
ATOM     10  C   UNL     1       4.141  -2.731   6.404  0.00  0.00    +0.081 A 
ATOM     11  C   UNL     1       4.620  -3.342   7.554  0.00  0.00    +0.151 A 
ATOM     12  N   UNL     1       5.898  -3.158   7.884  0.00  0.00    -0.205 NA
ATOM     13  N   UNL     1       2.125   0.070   1.217  0.00  0.00    -0.312 N 
ATOM     14  C   UNL     1       1.629  -1.039   0.389  0.00  0.00    +0.134 C 
ATOM     15  C   UNL     1       0.861  -0.471  -0.807  0.00  0.00    +0.178 C 
ATOM     16  O   UNL     1      -0.197   0.367  -0.334  0.00  0.00    -0.377 OA
ATOM     17  C   UNL     1       0.251   1.458   0.476  0.00  0.00    +0.178 C 
ATOM     18  C   UNL     1       1.012   0.909   1.685  0.00  0.00    +0.134 C 
ATOM     19  C   UNL     1       4.811   0.823   1.315  0.00  0.00    +0.039 C 
ATOM     20  C   UNL     1       6.118   1.457   1.789  0.00  0.00    +0.005 C 
ATOM     21  C   UNL     1       7.024   0.347   2.335  0.00  0.00    +0.005 C 
ATOM     22  C   UNL     1       6.415  -0.175   3.635  0.00  0.00    +0.036 C 
ATOM     23  N   UNL     1       2.231  -1.199   3.184  0.00  0.00    -0.337 N 
ATOM     24  H   UNL     1       1.239  -1.444   3.087  0.00  0.00    +0.168 HD
ENDROOT
BRANCH   1  26
ATOM     25  C   UNL     1       8.392  -3.181   9.106  0.00  0.00    +0.093 C 
ATOM     26  S   UNL     1       8.362  -2.189   7.593  0.00  0.00    -0.089 S 
ENDBRANCH   1  26
BRANCH  11  27
ATOM     27  N   UNL     1       3.790  -4.124   8.341  0.00  0.00    -0.267 N 
ATOM     28  H   UNL     1       2.861  -4.250   8.090  0.00  0.00    +0.167 HD
BRANCH  27  29
ATOM     29  N   UNL     1       4.279  -4.718   9.470  0.00  0.00    -0.255 NA
ATOM     30  H   UNL     1       3.561  -5.252   9.937  0.00  0.00    +0.140 HD
ATOM     31  H   UNL     1       5.079  -5.294   9.258  0.00  0.00    +0.140 HD
ENDBRANCH  27  29
ENDBRANCH  11  27
TORSDOF 3
