REMARK  Name = ZINC08529889
REMARK  10 active torsions:
REMARK  status: ('A' for Active; 'I' for Inactive)
REMARK    1  A    between atoms: C_1  and  C_2
REMARK    2  A    between atoms: C_2  and  C_3
REMARK    3  A    between atoms: C_6  and  C_9
REMARK    4  A    between atoms: C_9  and  N_10
REMARK    5  A    between atoms: N_10  and  C_11
REMARK    6  A    between atoms: N_10  and  C_12
REMARK    7  A    between atoms: C_12  and  C_14
REMARK    8  A    between atoms: C_12  and  C_15
REMARK    9  A    between atoms: N_17  and  C_18
REMARK   10  A    between atoms: C_19  and  C_23
REMARK                            x       y       z     vdW  Elec       q    Type
REMARK                         _______ _______ _______ _____ _____    ______ ____
ROOT
ATOM      1  C   UNL     1       3.745  -1.160  -6.809  0.00  0.00    +0.016 C 
ATOM      2  C   UNL     1       2.268  -1.329  -7.174  0.00  0.00    -0.004 C 
ENDROOT
BRANCH   1   3
ATOM      3  C   UNL     1       4.310   0.030  -7.541  0.00  0.00    +0.204 C 
ATOM      4  O   UNL     1       4.306   1.123  -7.015  0.00  0.00    -0.277 OA
ATOM      5  N   UNL     1       4.821  -0.120  -8.779  0.00  0.00    -0.281 N 
ATOM      6  H   UNL     1       4.824  -0.995  -9.200  0.00  0.00    +0.155 HD
BRANCH   5   7
ATOM      7  C   UNL     1       5.341   0.975  -9.452  0.00  0.00    +0.084 A 
ATOM      8  C   UNL     1       5.897   1.009 -10.722  0.00  0.00    +0.065 A 
ATOM      9  C   UNL     1       6.367   2.294 -11.187  0.00  0.00    +0.022 A 
ATOM     10  C   UNL     1       6.212   3.321 -10.330  0.00  0.00    +0.048 A 
ATOM     11  S   UNL     1       5.436   2.563  -8.920  0.00  0.00    -0.081 S 
BRANCH   8  12
ATOM     12  C   UNL     1       6.003  -0.196 -11.551  0.00  0.00    +0.244 C 
ATOM     13  O   UNL     1       5.598  -1.262 -11.128  0.00  0.00    -0.270 OA
ATOM     14  N   UNL     1       6.550  -0.122 -12.780  0.00  0.00    -0.325 N 
ATOM     15  H   UNL     1       6.874   0.728 -13.117  0.00  0.00    +0.145 HD
ATOM     16  H   UNL     1       6.620  -0.919 -13.328  0.00  0.00    +0.145 HD
ENDBRANCH   8  12
ENDBRANCH   5   7
ENDBRANCH   1   3
BRANCH   1  17
ATOM     17  N   UNL     1       3.870  -0.950  -5.361  0.00  0.00    +0.388 N 
ATOM     18  C   UNL     1       5.279  -0.711  -5.021  0.00  0.00    -0.095 C 
ATOM     19  H   UNL     1       3.318  -0.150  -5.088  0.00  0.00    -0.081 HD
BRANCH  17  20
ATOM     20  C   UNL     1       3.390  -2.142  -4.649  0.00  0.00    -0.042 C 
BRANCH  20  24
ATOM     21  C   UNL     1       3.426  -1.403  -0.442  0.00  0.00    -0.048 A 
ATOM     22  C   UNL     1       2.299  -1.107  -1.186  0.00  0.00    +0.004 A 
ATOM     23  C   UNL     1       2.287  -1.346  -2.548  0.00  0.00    +0.002 A 
ATOM     24  C   UNL     1       3.403  -1.880  -3.165  0.00  0.00    -0.064 A 
ATOM     25  C   UNL     1       4.530  -2.175  -2.422  0.00  0.00    +0.002 A 
ATOM     26  C   UNL     1       4.543  -1.932  -1.061  0.00  0.00    +0.004 A 
BRANCH  21  28
ATOM     27  C   UNL     1       3.943   0.278   1.306  0.00  0.00    +0.009 C 
ATOM     28  C   UNL     1       3.439  -1.142   1.042  0.00  0.00    +0.032 C 
ENDBRANCH  21  28
ENDBRANCH  20  24
ENDBRANCH  17  20
ENDBRANCH   1  17
TORSDOF 7
