REMARK  Name = ZINC44254936
REMARK  9 active torsions:
REMARK  status: ('A' for Active; 'I' for Inactive)
REMARK    1  A    between atoms: N_9  and  C_12
REMARK    2  A    between atoms: C_12  and  C_13
REMARK    3  A    between atoms: C_13  and  C_14
REMARK    4  A    between atoms: C_14  and  O_15
REMARK    5  A    between atoms: O_15  and  C_16
REMARK    6  A    between atoms: C_19  and  C_22
REMARK    7  A    between atoms: C_22  and  C_24
REMARK    8  A    between atoms: C_22  and  N_28
REMARK    9  A    between atoms: C_24  and  C_25
REMARK                            x       y       z     vdW  Elec       q    Type
REMARK                         _______ _______ _______ _____ _____    ______ ____
ROOT
ATOM      1  C   UNL     1       5.682  -6.716  -3.058  0.00  0.00    +0.121 A 
ATOM      2  C   UNL     1       6.127  -7.448  -1.967  0.00  0.00    +0.046 A 
ATOM      3  C   UNL     1       6.835  -8.618  -2.164  0.00  0.00    +0.005 A 
ATOM      4  C   UNL     1       7.101  -9.059  -3.447  0.00  0.00    -0.061 A 
ATOM      5  C   UNL     1       6.659  -8.331  -4.537  0.00  0.00    +0.005 A 
ATOM      6  C   UNL     1       5.945  -7.163  -4.345  0.00  0.00    +0.046 A 
ENDROOT
BRANCH   1   7
ATOM      7  O   UNL     1       4.986  -5.565  -2.867  0.00  0.00    -0.492 OA
BRANCH   7   8
ATOM      8  C   UNL     1       4.752  -5.165  -1.515  0.00  0.00    +0.230 C 
BRANCH   8   9
ATOM      9  C   UNL     1       3.959  -3.857  -1.501  0.00  0.00    +0.060 C 
BRANCH   9  10
ATOM     10  C   UNL     1       3.709  -3.428  -0.053  0.00  0.00    +0.120 C 
BRANCH  10  19
ATOM     11  C   UNL     1      -0.017   1.382   0.010  0.00  0.00    +0.001 A 
ATOM     12  C   UNL     1       1.165   2.099   0.002  0.00  0.00    +0.001 A 
ATOM     13  C   UNL     1       2.385   1.442  -0.013  0.00  0.00    +0.014 A 
ATOM     14  C   UNL     1       2.420   0.056  -0.021  0.00  0.00    +0.049 A 
ATOM     15  C   UNL     1       1.215  -0.675  -0.013  0.00  0.00    +0.049 A 
ATOM     16  C   UNL     1       0.002  -0.004   0.002  0.00  0.00    +0.014 A 
ATOM     17  C   UNL     1       1.606  -2.100  -0.025  0.00  0.00    +0.254 C 
ATOM     18  O   UNL     1       0.843  -3.045  -0.023  0.00  0.00    -0.270 OA
ATOM     19  N   UNL     1       2.949  -2.175  -0.039  0.00  0.00    -0.234 N 
ATOM     20  C   UNL     1       3.503  -0.949  -0.038  0.00  0.00    +0.254 C 
ATOM     21  O   UNL     1       4.693  -0.709  -0.049  0.00  0.00    -0.270 OA
ENDBRANCH  10  19
ENDBRANCH   9  10
ENDBRANCH   8   9
ENDBRANCH   7   8
ENDBRANCH   1   7
BRANCH   4  22
ATOM     22  C   UNL     1       7.873 -10.335  -3.659  0.00  0.00    -0.035 C 
BRANCH  22  23
ATOM     23  N   UNL     1       7.285 -11.084  -4.778  0.00  0.00    +0.383 N 
ATOM     24  H   UNL     1       7.802 -11.939  -4.920  0.00  0.00    -0.089 HD
ATOM     25  H   UNL     1       6.323 -11.304  -4.566  0.00  0.00    -0.089 HD
ATOM     26  H   UNL     1       7.324 -10.524  -5.616  0.00  0.00    -0.089 HD
ENDBRANCH  22  23
BRANCH  22  27
ATOM     27  C   UNL     1       9.331 -10.001  -3.981  0.00  0.00    +0.084 C 
BRANCH  27  28
ATOM     28  C   UNL     1      10.130 -11.276  -4.072  0.00  0.00    +0.209 C 
ATOM     29  O   UNL     1       9.587 -12.346  -3.897  0.00  0.00    -0.276 OA
ATOM     30  N   UNL     1      11.449 -11.226  -4.347  0.00  0.00    -0.329 N 
ATOM     31  H   UNL     1      11.883 -10.371  -4.487  0.00  0.00    +0.145 HD
ATOM     32  H   UNL     1      11.963 -12.047  -4.406  0.00  0.00    +0.145 HD
ENDBRANCH  27  28
ENDBRANCH  22  27
ENDBRANCH   4  22
TORSDOF 9
