REMARK  Name = ZINC35797267
REMARK  8 active torsions:
REMARK  status: ('A' for Active; 'I' for Inactive)
REMARK    1  A    between atoms: C_1  and  S_2
REMARK    2  A    between atoms: S_2  and  N_5
REMARK    3  A    between atoms: N_5  and  C_6
REMARK    4  A    between atoms: C_6  and  C_7
REMARK    5  A    between atoms: C_7  and  N_8
REMARK    6  A    between atoms: N_8  and  S_9
REMARK    7  A    between atoms: S_9  and  C_12
REMARK    8  A    between atoms: C_15  and  N_19
REMARK                            x       y       z     vdW  Elec       q    Type
REMARK                         _______ _______ _______ _____ _____    ______ ____
ROOT
ATOM      1  S   UNL     1       5.189  -1.457  -3.833  0.00  0.00    +0.061 S 
ATOM      2  O   UNL     1       6.472  -0.848  -3.823  0.00  0.00    -0.153 OA
ATOM      3  O   UNL     1       4.977  -2.796  -3.407  0.00  0.00    -0.153 OA
ENDROOT
BRANCH   1   4
ATOM      4  C   UNL     1       4.596  -1.356  -5.490  0.00  0.00    +0.142 A 
ATOM      5  C   UNL     1       3.640  -2.251  -5.937  0.00  0.00    +0.070 A 
ATOM      6  C   UNL     1       3.174  -2.174  -7.236  0.00  0.00    +0.044 A 
ATOM      7  C   UNL     1       3.666  -1.197  -8.092  0.00  0.00    +0.027 A 
ATOM      8  C   UNL     1       4.625  -0.300  -7.640  0.00  0.00    +0.044 A 
ATOM      9  C   UNL     1       5.084  -0.378  -6.339  0.00  0.00    +0.070 A 
ATOM     10 CL   UNL     1       6.278   0.747  -5.771  0.00  0.00    -0.081 Cl
ATOM     11 CL   UNL     1       3.026  -3.471  -4.866  0.00  0.00    -0.081 Cl
BRANCH   7  12
ATOM     12  N   UNL     1       3.197  -1.117  -9.405  0.00  0.00    -0.358 N 
ATOM     13  H   UNL     1       2.527  -1.744  -9.720  0.00  0.00    +0.142 HD
ATOM     14  H   UNL     1       3.541  -0.434 -10.003  0.00  0.00    +0.142 HD
ENDBRANCH   7  12
ENDBRANCH   1   4
BRANCH   1  15
ATOM     15  N   UNL     1       4.205  -0.504  -2.903  0.00  0.00    -0.189 NA
ATOM     16  H   UNL     1       4.564   0.286  -2.469  0.00  0.00    +0.148 HD
BRANCH  15  17
ATOM     17  C   UNL     1       2.792  -0.854  -2.733  0.00  0.00    +0.122 C 
BRANCH  17  18
ATOM     18  C   UNL     1       2.207  -0.061  -1.563  0.00  0.00    +0.122 C 
BRANCH  18  19
ATOM     19  N   UNL     1       0.795  -0.411  -1.394  0.00  0.00    -0.194 NA
ATOM     20  H   UNL     1       0.324  -0.881  -2.099  0.00  0.00    +0.148 HD
BRANCH  19  22
ATOM     21  C   UNL     1      -0.022   1.810   0.012  0.00  0.00    +0.214 C 
ATOM     22  S   UNL     1       0.002  -0.004   0.002  0.00  0.00    +0.027 S 
ATOM     23  O   UNL     1       0.835  -0.488   1.046  0.00  0.00    -0.158 OA
ATOM     24  O   UNL     1      -1.315  -0.510  -0.168  0.00  0.00    -0.158 OA
ENDBRANCH  19  22
ENDBRANCH  18  19
ENDBRANCH  17  18
ENDBRANCH  15  17
ENDBRANCH   1  15
TORSDOF 7
