REMARK  Name = ZINC39710801
REMARK  10 active torsions:
REMARK  status: ('A' for Active; 'I' for Inactive)
REMARK    1  A    between atoms: C_1  and  C_2
REMARK    2  A    between atoms: C_8  and  C_14
REMARK    3  A    between atoms: C_14  and  C_16
REMARK    4  A    between atoms: C_14  and  N_25
REMARK    5  A    between atoms: N_20  and  C_21
REMARK    6  A    between atoms: C_21  and  C_22
REMARK    7  A    between atoms: C_22  and  O_23
REMARK    8  A    between atoms: O_23  and  C_24
REMARK    9  A    between atoms: N_28  and  C_31
REMARK   10  A    between atoms: C_35  and  C_37
REMARK                            x       y       z     vdW  Elec       q    Type
REMARK                         _______ _______ _______ _____ _____    ______ ____
ROOT
ATOM      1  C   UNL     1       1.531  -2.535   4.455  0.00  0.00    +0.142 C 
ENDROOT
BRANCH   1   9
ATOM      2  C   UNL     1      -3.405  -4.035   1.131  0.00  0.00    +0.045 C 
ATOM      3  C   UNL     1      -3.256  -3.671   2.586  0.00  0.00    -0.029 A 
ATOM      4  C   UNL     1      -4.264  -3.941   3.455  0.00  0.00    +0.005 A 
ATOM      5  C   UNL     1      -4.189  -3.631   4.814  0.00  0.00    +0.001 A 
ATOM      6  C   UNL     1      -3.091  -3.034   5.343  0.00  0.00    +0.009 A 
ATOM      7  C   UNL     1      -1.967  -2.714   4.462  0.00  0.00    -0.007 A 
ATOM      8  C   UNL     1      -0.844  -2.115   4.950  0.00  0.00    -0.003 C 
ATOM      9  C   UNL     1       0.271  -1.821   3.965  0.00  0.00    +0.123 C 
ATOM     10  C   UNL     1       0.046  -2.215   2.523  0.00  0.00    +0.226 C 
ATOM     11  O   UNL     1       0.907  -2.003   1.690  0.00  0.00    -0.275 OA
ATOM     12  N   UNL     1      -1.091  -2.793   2.170  0.00  0.00    -0.284 N 
ATOM     13  C   UNL     1      -2.071  -3.058   3.033  0.00  0.00    +0.043 A 
ATOM     14  H   UNL     1      -1.215  -3.038   1.240  0.00  0.00    +0.155 HD
ENDBRANCH   1   9
BRANCH   1  15
ATOM     15  N   UNL     1       1.809  -2.142   5.843  0.00  0.00    -0.289 NA
ATOM     16  C   UNL     1       2.000  -0.689   5.950  0.00  0.00    +0.104 C 
ATOM     17  C   UNL     1       2.106  -0.299   7.428  0.00  0.00    +0.120 C 
ATOM     18  N   UNL     1       3.160  -1.112   8.052  0.00  0.00    -0.327 N 
ATOM     19  C   UNL     1       3.112  -2.571   7.871  0.00  0.00    +0.120 C 
ATOM     20  C   UNL     1       2.967  -2.872   6.376  0.00  0.00    +0.104 C 
BRANCH  18  21
ATOM     21  C   UNL     1       4.181  -0.515   8.796  0.00  0.00    +0.030 A 
ATOM     22  C   UNL     1       4.145   0.849   9.057  0.00  0.00    +0.023 A 
ATOM     23  C   UNL     1       5.155   1.436   9.793  0.00  0.00    +0.002 A 
ATOM     24  C   UNL     1       6.202   0.668  10.269  0.00  0.00    +0.012 A 
ATOM     25  C   UNL     1       6.241  -0.690  10.010  0.00  0.00    +0.057 A 
ATOM     26  C   UNL     1       5.231  -1.284   9.280  0.00  0.00    +0.035 A 
BRANCH  25  27
ATOM     27  C   UNL     1       7.385  -1.523  10.530  0.00  0.00    +0.417 C 
ATOM     28  F   UNL     1       8.272  -0.706  11.238  0.00  0.00    -0.166 F 
ATOM     29  F   UNL     1       6.889  -2.518  11.378  0.00  0.00    -0.166 F 
ATOM     30  F   UNL     1       8.055  -2.117   9.455  0.00  0.00    -0.166 F 
ENDBRANCH  25  27
ENDBRANCH  18  21
ENDBRANCH   1  15
BRANCH   1  31
ATOM     31  C   UNL     1       2.698  -2.152   3.582  0.00  0.00    +0.170 A 
ATOM     32  N   UNL     1       3.211  -0.954   3.442  0.00  0.00    -0.112 NA
ATOM     33  N   UNL     1       4.192  -1.035   2.611  0.00  0.00    -0.023 NA
ATOM     34  N   UNL     1       4.319  -2.254   2.217  0.00  0.00    -0.044 NA
ATOM     35  N   UNL     1       3.419  -2.974   2.797  0.00  0.00    -0.225 N 
BRANCH  35  36
ATOM     36  C   UNL     1       3.218  -4.416   2.631  0.00  0.00    +0.175 C 
BRANCH  36  37
ATOM     37  C   UNL     1       2.241  -4.665   1.480  0.00  0.00    +0.183 C 
BRANCH  37  38
ATOM     38  O   UNL     1       2.001  -6.068   1.353  0.00  0.00    -0.381 OA
ATOM     39  C   UNL     1       1.097  -6.411   0.301  0.00  0.00    +0.194 C 
ENDBRANCH  37  38
ENDBRANCH  36  37
ENDBRANCH  35  36
ENDBRANCH   1  31
TORSDOF 8
