REMARK  Name = ZINC52013939
REMARK  8 active torsions:
REMARK  status: ('A' for Active; 'I' for Inactive)
REMARK    1  A    between atoms: C_3  and  O_8
REMARK    2  A    between atoms: O_8  and  C_9
REMARK    3  A    between atoms: C_9  and  C_10
REMARK    4  A    between atoms: C_10  and  C_12
REMARK    5  A    between atoms: C_10  and  O_23
REMARK    6  A    between atoms: C_12  and  N_13
REMARK    7  A    between atoms: N_13  and  C_14
REMARK    8  A    between atoms: C_20  and  O_22
REMARK                            x       y       z     vdW  Elec       q    Type
REMARK                         _______ _______ _______ _____ _____    ______ ____
ROOT
ATOM      1  C   UNL     1       5.958   2.291  -0.043  0.00  0.00    +0.135 C 
ENDROOT
BRANCH   1   2
ATOM      2  O   UNL     1       5.991   3.026   1.181  0.00  0.00    -0.390 OA
ATOM      3  H   UNL     1       6.069   2.473   1.970  0.00  0.00    +0.210 HD
ENDBRANCH   1   2
BRANCH   1   4
ATOM      4  C   UNL     1       4.757   1.343  -0.037  0.00  0.00    +0.258 C 
BRANCH   4   5
ATOM      5  O   UNL     1       3.548   2.105  -0.021  0.00  0.00    -0.489 OA
BRANCH   5   8
ATOM      6  C   UNL     1      -0.017   1.378   0.010  0.00  0.00    +0.005 A 
ATOM      7  C   UNL     1       1.170   2.087   0.002  0.00  0.00    +0.046 A 
ATOM      8  C   UNL     1       2.381   1.410  -0.013  0.00  0.00    +0.122 A 
ATOM      9  C   UNL     1       2.398   0.023  -0.021  0.00  0.00    +0.061 A 
ATOM     10  C   UNL     1       1.208  -0.682  -0.013  0.00  0.00    +0.021 A 
ATOM     11  C   UNL     1       0.002  -0.004   0.002  0.00  0.00    +0.015 A 
ATOM     12 BR   UNL     1       1.230  -2.573  -0.024  0.00  0.00    -0.050 Br
ENDBRANCH   5   8
ENDBRANCH   4   5
ENDBRANCH   1   4
BRANCH   1  13
ATOM     13  C   UNL     1       7.247   1.479  -0.186  0.00  0.00    -0.047 C 
BRANCH  13  14
ATOM     14  N   UNL     1       8.400   2.389  -0.193  0.00  0.00    +0.384 N 
ATOM     15  H   UNL     1       8.319   3.030  -0.968  0.00  0.00    -0.085 HD
ATOM     16  H   UNL     1       8.424   2.909   0.672  0.00  0.00    -0.085 HD
BRANCH  14  17
ATOM     17  C   UNL     1       9.638   1.611  -0.329  0.00  0.00    -0.043 C 
ATOM     18  C   UNL     1       9.825   0.729   0.907  0.00  0.00    -0.013 C 
ATOM     19  C   UNL     1      11.115  -0.082   0.765  0.00  0.00    -0.001 C 
ATOM     20  C   UNL     1      12.305   0.871   0.633  0.00  0.00    +0.002 C 
ATOM     21  C   UNL     1      12.117   1.752  -0.604  0.00  0.00    +0.030 C 
ATOM     22  C   UNL     1      10.828   2.563  -0.462  0.00  0.00    +0.101 C 
BRANCH  22  23
ATOM     23  O   UNL     1      10.910   3.387   0.703  0.00  0.00    -0.393 OA
ATOM     24  H   UNL     1      11.643   4.018   0.688  0.00  0.00    +0.210 HD
ENDBRANCH  22  23
ENDBRANCH  14  17
ENDBRANCH  13  14
ENDBRANCH   1  13
TORSDOF 8
