REMARK  Name = ZINC54409650
REMARK  8 active torsions:
REMARK  status: ('A' for Active; 'I' for Inactive)
REMARK    1  A    between atoms: C_1  and  C_2
REMARK    2  A    between atoms: C_2  and  C_4
REMARK    3  A    between atoms: C_2  and  N_10
REMARK    4  A    between atoms: C_13  and  N_16
REMARK    5  A    between atoms: N_19  and  C_20
REMARK    6  A    between atoms: C_25  and  S_26
REMARK    7  A    between atoms: S_26  and  C_27
REMARK    8  A    between atoms: C_27  and  C_28
REMARK                            x       y       z     vdW  Elec       q    Type
REMARK                         _______ _______ _______ _____ _____    ______ ____
ROOT
ATOM      1  N   UNL     1      -4.417  -0.728   1.622  0.00  0.00    -0.298 N 
ATOM      2  C   UNL     1      -5.356  -1.363   2.351  0.00  0.00    +0.304 C 
ATOM      3  O   UNL     1      -5.044  -2.300   3.061  0.00  0.00    -0.253 OA
ATOM      4  N   UNL     1      -6.641  -0.960   2.293  0.00  0.00    -0.268 N 
ATOM      5  H   UNL     1      -4.666   0.019   1.056  0.00  0.00    +0.150 HD
ATOM      6  H   UNL     1      -6.880  -0.174   1.779  0.00  0.00    +0.156 HD
ENDROOT
BRANCH   1  10
ATOM      7  N   UNL     1      -1.365  -0.485   0.044  0.00  0.00    +0.385 N 
ATOM      8  C   UNL     1      -1.359  -1.969   0.117  0.00  0.00    -0.076 C 
ATOM      9  C   UNL     1      -2.768  -2.303   0.667  0.00  0.00    +0.002 C 
ATOM     10  C   UNL     1      -3.020  -1.166   1.685  0.00  0.00    +0.056 C 
ATOM     11  C   UNL     1      -2.080  -0.025   1.254  0.00  0.00    -0.056 C 
ATOM     12  H   UNL     1      -1.851  -0.179  -0.785  0.00  0.00    -0.081 HD
BRANCH   7  14
ATOM     13  C   UNL     1      -0.014   1.557   0.059  0.00  0.00    -0.008 C 
ATOM     14  C   UNL     1       0.012   0.027   0.044  0.00  0.00    -0.041 C 
BRANCH  14  15
ATOM     15  C   UNL     1       0.726  -0.451  -1.194  0.00  0.00    -0.061 A 
ATOM     16  C   UNL     1       0.063  -0.478  -2.407  0.00  0.00    +0.002 A 
ATOM     17  C   UNL     1       0.718  -0.917  -3.542  0.00  0.00    +0.000 A 
ATOM     18  C   UNL     1       2.035  -1.327  -3.466  0.00  0.00    +0.000 A 
ATOM     19  C   UNL     1       2.699  -1.298  -2.253  0.00  0.00    +0.000 A 
ATOM     20  C   UNL     1       2.045  -0.856  -1.118  0.00  0.00    +0.002 A 
ENDBRANCH  14  15
ENDBRANCH   7  14
ENDBRANCH   1  10
BRANCH   4  21
ATOM     21  C   UNL     1      -7.632  -1.678   2.978  0.00  0.00    +0.048 A 
ATOM     22  C   UNL     1      -7.342  -2.276   4.195  0.00  0.00    +0.024 A 
ATOM     23  C   UNL     1      -8.321  -2.983   4.868  0.00  0.00    +0.002 A 
ATOM     24  C   UNL     1      -9.590  -3.098   4.331  0.00  0.00    +0.001 A 
ATOM     25  C   UNL     1      -9.888  -2.505   3.118  0.00  0.00    +0.016 A 
ATOM     26  C   UNL     1      -8.914  -1.788   2.439  0.00  0.00    +0.030 A 
BRANCH  26  27
ATOM     27  S   UNL     1      -9.292  -1.025   0.896  0.00  0.00    -0.114 S 
BRANCH  27  28
ATOM     28  C   UNL     1     -11.037  -1.438   0.619  0.00  0.00    +0.169 C 
BRANCH  28  29
ATOM     29  C   UNL     1     -11.494  -0.837  -0.685  0.00  0.00    +0.221 C 
ATOM     30  O   UNL     1     -10.719  -0.194  -1.362  0.00  0.00    -0.275 OA
ATOM     31  N   UNL     1     -12.764  -1.014  -1.101  0.00  0.00    -0.329 N 
ATOM     32  H   UNL     1     -13.383  -1.529  -0.560  0.00  0.00    +0.145 HD
ATOM     33  H   UNL     1     -13.058  -0.628  -1.940  0.00  0.00    +0.145 HD
ENDBRANCH  28  29
ENDBRANCH  27  28
ENDBRANCH  26  27
ENDBRANCH   4  21
TORSDOF 7
