REMARK  Name = ZINC03838730
REMARK  13 active torsions:
REMARK  status: ('A' for Active; 'I' for Inactive)
REMARK    1  A    between atoms: C_1  and  C_2
REMARK    2  A    between atoms: C_2  and  C_4
REMARK    3  A    between atoms: C_2  and  N_7
REMARK    4  A    between atoms: C_8  and  C_10
REMARK    5  A    between atoms: C_10  and  O_29
REMARK    6  A    between atoms: C_12  and  N_21
REMARK    7  A    between atoms: C_14  and  O_20
REMARK    8  A    between atoms: C_16  and  O_19
REMARK    9  A    between atoms: C_22  and  C_24
REMARK   10  A    between atoms: C_24  and  C_25
REMARK   11  A    between atoms: C_25  and  C_26
REMARK   12  A    between atoms: C_25  and  C_27
REMARK   13  A    between atoms: C_25  and  C_28
REMARK                            x       y       z     vdW  Elec       q    Type
REMARK                         _______ _______ _______ _____ _____    ______ ____
ROOT
ATOM      1  C   UNL     1      -4.320   5.298   0.545  0.00  0.00    +0.146 C 
ATOM      2  C   UNL     1      -4.341   6.828   0.553  0.00  0.00    +0.069 C 
ATOM      3  C   UNL     1      -5.790   7.319   0.563  0.00  0.00    +0.107 C 
ATOM      4  C   UNL     1      -6.498   6.792   1.812  0.00  0.00    +0.163 C 
ATOM      5  C   UNL     1      -6.478   5.262   1.804  0.00  0.00    +0.148 C 
ATOM      6  C   UNL     1      -5.028   4.772   1.794  0.00  0.00    +0.078 C 
ENDROOT
BRANCH   1   8
ATOM      7  N   UNL     1      -2.595   3.600   0.034  0.00  0.00    -0.302 N 
ATOM      8  C   UNL     1      -2.892   4.815   0.535  0.00  0.00    +0.245 C 
ATOM      9  O   UNL     1      -2.011   5.520   0.979  0.00  0.00    -0.273 OA
ATOM     10  H   UNL     1      -3.300   3.036  -0.321  0.00  0.00    +0.150 HD
BRANCH   7  12
ATOM     11  C   UNL     1      -0.499   3.657  -1.225  0.00  0.00    +0.038 C 
ATOM     12  C   UNL     1      -1.208   3.131   0.025  0.00  0.00    +0.156 C 
BRANCH  12  13
ATOM     13  C   UNL     1      -1.187   1.624   0.017  0.00  0.00    +0.231 C 
ATOM     14  O   UNL     1      -2.229   1.003   0.018  0.00  0.00    -0.274 OA
ATOM     15  N   UNL     1      -0.011   0.966   0.007  0.00  0.00    -0.328 N 
ATOM     16  H   UNL     1       0.002  -0.004   0.002  0.00  0.00    +0.145 HD
ATOM     17  H   UNL     1       0.822   1.462   0.002  0.00  0.00    +0.145 HD
ENDBRANCH  12  13
ENDBRANCH   7  12
ENDBRANCH   1   8
BRANCH   3  18
ATOM     18  N   UNL     1      -5.810   8.783   0.571  0.00  0.00    -0.310 N 
ATOM     19  C   UNL     1      -6.879   9.445   0.086  0.00  0.00    +0.214 C 
ATOM     20  O   UNL     1      -7.825   8.829  -0.357  0.00  0.00    -0.276 OA
ATOM     21  H   UNL     1      -5.053   9.277   0.925  0.00  0.00    +0.149 HD
BRANCH  19  22
ATOM     22  C   UNL     1      -6.899  10.952   0.094  0.00  0.00    +0.102 C 
BRANCH  22  23
ATOM     23  C   UNL     1      -8.216  11.448  -0.506  0.00  0.00    -0.029 C 
ATOM     24  C   UNL     1      -9.387  10.917   0.324  0.00  0.00    +0.011 C 
ATOM     25  C   UNL     1      -8.237  12.978  -0.498  0.00  0.00    +0.011 C 
ATOM     26  C   UNL     1      -8.342  10.944  -1.946  0.00  0.00    +0.011 C 
ENDBRANCH  22  23
ENDBRANCH  19  22
ENDBRANCH   3  18
BRANCH   5  27
ATOM     27  O   UNL     1      -7.139   4.770   2.971  0.00  0.00    -0.389 OA
ATOM     28  H   UNL     1      -7.164   3.806   3.032  0.00  0.00    +0.210 HD
ENDBRANCH   5  27
BRANCH   4  29
ATOM     29  O   UNL     1      -7.852   7.250   1.821  0.00  0.00    -0.387 OA
ATOM     30  H   UNL     1      -8.362   6.954   2.587  0.00  0.00    +0.210 HD
ENDBRANCH   4  29
BRANCH   1  31
ATOM     31  O   UNL     1      -4.992   4.819  -0.622  0.00  0.00    -0.379 OA
ATOM     32  H   UNL     1      -5.018   3.855  -0.693  0.00  0.00    +0.211 HD
ENDBRANCH   1  31
TORSDOF 9
