REMARK  Name = ZINC36227621
REMARK  4 active torsions:
REMARK  status: ('A' for Active; 'I' for Inactive)
REMARK    1  A    between atoms: C_3  and  C_18
REMARK    2  A    between atoms: C_8  and  C_10
REMARK    3  A    between atoms: C_13  and  O_17
REMARK    4  A    between atoms: C_18  and  O_19
REMARK                            x       y       z     vdW  Elec       q    Type
REMARK                         _______ _______ _______ _____ _____    ______ ____
ROOT
ATOM      1  C   UNL     1      -0.019   1.528   0.010  0.00  0.00    +0.019 C 
ATOM      2  C   UNL     1       1.419   2.053  -0.001  0.00  0.00    +0.009 C 
ATOM      3  C   UNL     1       2.149   1.573   1.256  0.00  0.00    +0.032 C 
ATOM      4  C   UNL     1       2.194   0.042   1.262  0.00  0.00    +0.113 C 
ATOM      5  N   UNL     1       0.824  -0.472   1.126  0.00  0.00    -0.302 N 
ATOM      6  C   UNL     1       0.002  -0.004   0.002  0.00  0.00    +0.108 C 
ATOM      7  C   UNL     1       0.332  -1.357   2.016  0.00  0.00    +0.202 C 
ATOM      8  O   UNL     1       1.021  -1.735   2.939  0.00  0.00    -0.277 OA
ENDROOT
BRANCH   7   9
ATOM      9  C   UNL     1      -1.075  -1.875   1.863  0.00  0.00    +0.019 C 
ATOM     10  C   UNL     1      -2.078  -0.840   2.414  0.00  0.00    +0.023 C 
ATOM     11  C   UNL     1      -3.150  -1.725   3.105  0.00  0.00    +0.097 C 
ATOM     12  C   UNL     1      -2.284  -2.875   3.676  0.00  0.00    -0.050 C 
ATOM     13  N   UNL     1      -1.242  -3.111   2.648  0.00  0.00    +0.388 N 
ATOM     14  H   UNL     1      -1.527  -3.864   2.040  0.00  0.00    -0.085 HD
ATOM     15  H   UNL     1      -0.370  -3.349   3.096  0.00  0.00    -0.085 HD
BRANCH  11  16
ATOM     16  O   UNL     1      -3.807  -1.009   4.153  0.00  0.00    -0.394 OA
ATOM     17  H   UNL     1      -4.485  -1.522   4.614  0.00  0.00    +0.210 HD
ENDBRANCH  11  16
ENDBRANCH   7   9
BRANCH   3  18
ATOM     18  C   UNL     1       3.575   2.127   1.261  0.00  0.00    +0.160 C 
BRANCH  18  19
ATOM     19  O   UNL     1       3.533   3.551   1.369  0.00  0.00    -0.395 OA
ATOM     20  H   UNL     1       4.404   3.971   1.379  0.00  0.00    +0.209 HD
ENDBRANCH  18  19
ENDBRANCH   3  18
TORSDOF 4
