REMARK  Name = ZINC31550231
REMARK  11 active torsions:
REMARK  status: ('A' for Active; 'I' for Inactive)
REMARK    1  A    between atoms: C_1  and  C_2
REMARK    2  A    between atoms: C_2  and  C_3
REMARK    3  A    between atoms: C_3  and  C_4
REMARK    4  A    between atoms: C_4  and  C_5
REMARK    5  A    between atoms: C_5  and  C_6
REMARK    6  A    between atoms: C_6  and  C_7
REMARK    7  A    between atoms: C_11  and  C_31
REMARK    8  A    between atoms: N_13  and  N_14
REMARK    9  A    between atoms: C_15  and  C_17
REMARK   10  A    between atoms: C_20  and  N_23
REMARK   11  A    between atoms: C_29  and  O_30
REMARK                            x       y       z     vdW  Elec       q    Type
REMARK                         _______ _______ _______ _____ _____    ______ ____
ROOT
ATOM      1  C   UNL     1      -1.698  -1.506   0.741  0.00  0.00    -0.005 A 
ATOM      2  C   UNL     1      -1.590  -0.161   0.589  0.00  0.00    +0.018 A 
ATOM      3  C   UNL     1      -0.312   0.425   0.477  0.00  0.00    +0.019 A 
ATOM      4  C   UNL     1      -0.148   1.804   0.320  0.00  0.00    +0.030 A 
ATOM      5  C   UNL     1       1.166   2.309   0.216  0.00  0.00    +0.098 A 
ATOM      6  C   UNL     1       2.256   1.441   0.270  0.00  0.00    +0.224 A 
ATOM      7  N   UNL     1       3.511   1.950   0.168  0.00  0.00    -0.273 N 
ATOM      8  O   UNL     1       2.100   0.119   0.422  0.00  0.00    -0.437 OA
ATOM      9  C   UNL     1       0.880  -0.431   0.528  0.00  0.00    +0.141 A 
ATOM     10  C   UNL     1       0.715  -1.798   0.684  0.00  0.00    +0.092 A 
ATOM     11  C   UNL     1      -0.561  -2.326   0.789  0.00  0.00    +0.124 A 
ATOM     12  H   UNL     1       4.362   1.408   0.606  0.00  0.00    +0.188 HD
ENDROOT
BRANCH   5  13
ATOM     13  C   UNL     1       1.388   3.766   0.047  0.00  0.00    +0.247 C 
ATOM     14  O   UNL     1       0.781   4.377  -0.810  0.00  0.00    -0.270 OA
ATOM     15  N   UNL     1       2.262   4.411   0.844  0.00  0.00    -0.325 N 
ATOM     16  H   UNL     1       2.427   5.491   0.719  0.00  0.00    +0.145 HD
ATOM     17  H   UNL     1       2.811   3.857   1.620  0.00  0.00    +0.145 HD
ENDBRANCH   5  13
BRANCH   7  18
ATOM     18  N   UNL     1       3.705   3.069  -0.443  0.00  0.00    -0.223 N 
ATOM     19  C   UNL     1       4.925   3.641  -0.431  0.00  0.00    +0.262 C 
ATOM     20  O   UNL     1       5.862   3.061   0.078  0.00  0.00    -0.269 OA
ATOM     21  H   UNL     1       2.874   3.557  -0.975  0.00  0.00    +0.175 HD
BRANCH  19  22
ATOM     22  C   UNL     1       5.122   4.973  -1.036  0.00  0.00    +0.038 A 
ATOM     23  C   UNL     1       4.077   5.592  -1.727  0.00  0.00    +0.015 A 
ATOM     24  C   UNL     1       4.267   6.838  -2.286  0.00  0.00    +0.033 A 
ATOM     25  C   UNL     1       5.492   7.472  -2.172  0.00  0.00    +0.126 A 
ATOM     26  C   UNL     1       6.533   6.864  -1.492  0.00  0.00    +0.033 A 
ATOM     27  C   UNL     1       6.356   5.619  -0.924  0.00  0.00    +0.015 A 
BRANCH  25  28
ATOM     28  N   UNL     1       5.690   8.807  -2.780  0.00  0.00    +0.056 N 
ATOM     29  O   UNL     1       6.854   9.413  -2.673  0.00  0.00    -0.126 OA
ATOM     30  O   UNL     1       4.702   9.389  -3.426  0.00  0.00    -0.126 OA
ENDBRANCH  25  28
ENDBRANCH  19  22
ENDBRANCH   7  18
BRANCH  11  31
ATOM     31  O   UNL     1      -0.714  -3.663   0.941  0.00  0.00    -0.506 OA
ATOM     32  H   UNL     1       0.170  -4.317   0.980  0.00  0.00    +0.292 HD
ENDBRANCH  11  31
BRANCH   1  33
ATOM     33  C   UNL     1      -3.064  -2.130   0.860  0.00  0.00    +0.039 C 
BRANCH  33  34
ATOM     34  C   UNL     1      -3.474  -2.722  -0.490  0.00  0.00    +0.005 C 
BRANCH  34  35
ATOM     35  C   UNL     1      -4.862  -3.355  -0.370  0.00  0.00    +0.000 C 
BRANCH  35  36
ATOM     36  C   UNL     1      -5.271  -3.948  -1.720  0.00  0.00    -0.000 C 
BRANCH  36  38
ATOM     37  C   UNL     1      -7.068  -5.173  -2.949  0.00  0.00    +0.004 C 
ATOM     38  C   UNL     1      -6.659  -4.580  -1.599  0.00  0.00    -0.003 C 
ENDBRANCH  36  38
ENDBRANCH  35  36
ENDBRANCH  34  35
ENDBRANCH  33  34
ENDBRANCH   1  33
TORSDOF 10
