REMARK  Name = ZINC66244814
REMARK  3 active torsions:
REMARK  status: ('A' for Active; 'I' for Inactive)
REMARK    1  A    between atoms: C_2  and  C_11
REMARK    2  A    between atoms: C_11  and  N_12
REMARK    3  A    between atoms: N_15  and  C_16
REMARK                            x       y       z     vdW  Elec       q    Type
REMARK                         _______ _______ _______ _____ _____    ______ ____
ROOT
ATOM      1  N   UNL     1       1.153   4.077   1.394  0.00  0.00    -0.354 N 
ATOM      2  C   UNL     1       1.134   5.428   1.653  0.00  0.00    +0.169 C 
ATOM      3  N   UNL     1       1.111   6.280   0.667  0.00  0.00    -0.371 N 
ATOM      4  N   UNL     1       1.139   5.879   2.951  0.00  0.00    -0.355 N 
ATOM      5  H   UNL     1       1.169   3.443   2.128  0.00  0.00    +0.163 HD
ATOM      6  H   UNL     1       1.098   7.232   0.849  0.00  0.00    +0.159 HD
ATOM      7  H   UNL     1       1.156   5.245   3.685  0.00  0.00    +0.163 HD
ATOM      8  H   UNL     1       1.107   5.961  -0.249  0.00  0.00    +0.159 HD
ENDROOT
BRANCH   4   9
ATOM      9  C   UNL     1       1.119   7.317   3.227  0.00  0.00    +0.082 C 
ATOM     10  C   UNL     1      -0.337   7.824   3.286  0.00  0.00    +0.024 C 
ATOM     11  C   UNL     1      -0.685   7.804   4.796  0.00  0.00    +0.002 C 
ATOM     12  C   UNL     1       0.637   8.266   5.457  0.00  0.00    +0.002 C 
ATOM     13  C   UNL     1       1.738   7.598   4.607  0.00  0.00    +0.024 C 
ENDBRANCH   4   9
BRANCH   1  14
ATOM     14  C   UNL     1       1.147   3.596   0.010  0.00  0.00    +0.151 C 
BRANCH  14  16
ATOM     15  C   UNL     1      -0.017   1.381   0.010  0.00  0.00    +0.055 A 
ATOM     16  C   UNL     1       1.171   2.090   0.002  0.00  0.00    -0.024 A 
ATOM     17  C   UNL     1       2.379   1.419  -0.013  0.00  0.00    +0.024 A 
ATOM     18  C   UNL     1       2.406   0.036  -0.021  0.00  0.00    +0.064 A 
ATOM     19  C   UNL     1       1.220  -0.680  -0.014  0.00  0.00    +0.180 A 
ATOM     20  C   UNL     1       0.002  -0.004   0.002  0.00  0.00    +0.168 A 
ATOM     21  O   UNL     1      -1.007  -0.923   0.006  0.00  0.00    -0.453 OA
ATOM     22  C   UNL     1      -0.404  -2.159  -0.419  0.00  0.00    +0.466 C 
ATOM     23  O   UNL     1       0.973  -2.023  -0.020  0.00  0.00    -0.451 OA
ATOM     24 BR   UNL     1       4.061  -0.877  -0.043  0.00  0.00    -0.046 Br
ENDBRANCH  14  16
ENDBRANCH   1  14
TORSDOF 3
