REMARK  Name = ZINC04172766
REMARK  17 active torsions:
REMARK  status: ('A' for Active; 'I' for Inactive)
REMARK    1  A    between atoms: C_1  and  C_2
REMARK    2  A    between atoms: C_9  and  C_20
REMARK    3  A    between atoms: C_10  and  N_11
REMARK    4  A    between atoms: N_11  and  C_12
REMARK    5  A    between atoms: C_12  and  C_13
REMARK    6  A    between atoms: C_12  and  C_14
REMARK    7  A    between atoms: C_12  and  C_15
REMARK    8  A    between atoms: C_15  and  C_16
REMARK    9  A    between atoms: C_16  and  C_17
REMARK   10  A    between atoms: C_16  and  C_18
REMARK   11  A    between atoms: C_16  and  C_19
REMARK   12  A    between atoms: C_23  and  O_28
REMARK   13  A    between atoms: C_24  and  O_26
REMARK   14  A    between atoms: O_26  and  C_27
REMARK   15  A    between atoms: O_28  and  C_29
REMARK   16  A    between atoms: C_29  and  C_31
REMARK   17  A    between atoms: C_32  and  C_33
REMARK                            x       y       z     vdW  Elec       q    Type
REMARK                         _______ _______ _______ _____ _____    ______ ____
ROOT
ATOM      1  C   UNL     1      -0.923   1.309  -4.498  0.00  0.00    +0.044 C 
ATOM      2  C   UNL     1      -0.629   0.016  -3.782  0.00  0.00    -0.046 A 
ATOM      3  C   UNL     1      -1.151  -1.195  -4.271  0.00  0.00    +0.021 A 
ATOM      4  C   UNL     1      -0.892  -2.355  -3.634  0.00  0.00    +0.094 A 
ATOM      5  N   UNL     1      -0.119  -2.372  -2.504  0.00  0.00    -0.289 N 
ATOM      6  C   UNL     1       0.406  -1.203  -2.002  0.00  0.00    +0.117 A 
ATOM      7  C   UNL     1       0.145   0.016  -2.664  0.00  0.00    +0.048 A 
ATOM      8  N   UNL     1       1.106  -1.488  -0.917  0.00  0.00    -0.338 N 
ATOM      9  C   UNL     1       1.056  -2.813  -0.692  0.00  0.00    +0.087 A 
ATOM     10  C   UNL     1       0.288  -3.387  -1.683  0.00  0.00    +0.129 A 
ATOM     11  H   UNL     1       1.581  -0.843  -0.370  0.00  0.00    +0.167 HD
ENDROOT
BRANCH   9  12
ATOM     12  C   UNL     1       1.712  -3.532   0.426  0.00  0.00    +0.005 A 
ATOM     13  C   UNL     1       2.381  -4.732   0.188  0.00  0.00    +0.014 A 
ATOM     14  C   UNL     1       2.992  -5.401   1.230  0.00  0.00    +0.051 A 
ATOM     15  C   UNL     1       2.942  -4.881   2.515  0.00  0.00    +0.173 A 
ATOM     16  C   UNL     1       2.276  -3.683   2.759  0.00  0.00    +0.163 A 
ATOM     17  C   UNL     1       1.667  -3.005   1.717  0.00  0.00    +0.059 A 
BRANCH  16  18
ATOM     18  O   UNL     1       2.228  -3.175   4.019  0.00  0.00    -0.491 OA
ATOM     19  C   UNL     1       1.527  -1.942   4.196  0.00  0.00    +0.277 C 
ENDBRANCH  16  18
BRANCH  15  20
ATOM     20  O   UNL     1       3.545  -5.543   3.538  0.00  0.00    -0.419 OA
BRANCH  20  21
ATOM     21  C   UNL     1       2.814  -6.442   4.228  0.00  0.00    +0.337 C 
ATOM     22  O   UNL     1       1.682  -6.708   3.871  0.00  0.00    -0.245 OA
BRANCH  21  23
ATOM     23  C   UNL     1       3.383  -7.099   5.404  0.00  0.00    +0.092 C 
ATOM     24  C   UNL     1       2.652  -7.999   6.094  0.00  0.00    +0.015 C 
BRANCH  24  25
ATOM     25  C   UNL     1       3.224  -8.659   7.278  0.00  0.00    -0.025 A 
ATOM     26  C   UNL     1       4.524  -8.352   7.695  0.00  0.00    +0.008 A 
ATOM     27  C   UNL     1       5.053  -8.975   8.806  0.00  0.00    +0.001 A 
ATOM     28  C   UNL     1       4.302  -9.901   9.508  0.00  0.00    +0.000 A 
ATOM     29  C   UNL     1       3.015 -10.211   9.101  0.00  0.00    +0.001 A 
ATOM     30  C   UNL     1       2.470  -9.592   7.996  0.00  0.00    +0.008 A 
ENDBRANCH  24  25
ENDBRANCH  21  23
ENDBRANCH  20  21
ENDBRANCH  15  20
ENDBRANCH   9  12
BRANCH  10  31
ATOM     31  N   UNL     1      -0.016  -4.742  -1.821  0.00  0.00    -0.323 N 
ATOM     32  H   UNL     1       0.209  -5.364  -1.112  0.00  0.00    +0.148 HD
BRANCH  31  33
ATOM     33  C   UNL     1      -0.673  -5.225  -3.038  0.00  0.00    +0.028 C 
ATOM     34  C   UNL     1      -2.087  -4.647  -3.117  0.00  0.00    +0.031 C 
ATOM     35  C   UNL     1       0.129  -4.779  -4.262  0.00  0.00    +0.031 C 
BRANCH  33  36
ATOM     36  C   UNL     1      -0.748  -6.753  -3.006  0.00  0.00    +0.031 C 
BRANCH  36  37
ATOM     37  C   UNL     1       0.545  -7.314  -2.409  0.00  0.00    -0.036 C 
ATOM     38  C   UNL     1       0.365  -7.520  -0.904  0.00  0.00    +0.010 C 
ATOM     39  C   UNL     1       0.873  -8.653  -3.072  0.00  0.00    +0.010 C 
ATOM     40  C   UNL     1       1.690  -6.329  -2.655  0.00  0.00    +0.010 C 
ENDBRANCH  36  37
ENDBRANCH  33  36
ENDBRANCH  31  33
ENDBRANCH  10  31
TORSDOF 10
