REMARK  Name = ZINC16007121
REMARK  4 active torsions:
REMARK  status: ('A' for Active; 'I' for Inactive)
REMARK    1  A    between atoms: C_21  and  C_32
REMARK    2  A    between atoms: C_23  and  C_25
REMARK    3  A    between atoms: C_25  and  C_27
REMARK    4  A    between atoms: C_32  and  C_34
REMARK                            x       y       z     vdW  Elec       q    Type
REMARK                         _______ _______ _______ _____ _____    ______ ____
ROOT
ATOM      1  C   UNL     1      -7.168  -2.711  -2.138  0.00  0.00    +0.001 A 
ATOM      2  C   UNL     1      -6.847  -3.224  -0.893  0.00  0.00    +0.000 A 
ATOM      3  C   UNL     1      -5.537  -3.560  -0.596  0.00  0.00    +0.006 A 
ATOM      4  C   UNL     1      -4.537  -3.377  -1.526  0.00  0.00    -0.020 A 
ATOM      5  C   UNL     1      -4.863  -2.889  -2.794  0.00  0.00    -0.019 A 
ATOM      6  C   UNL     1      -6.188  -2.554  -3.091  0.00  0.00    +0.008 A 
ATOM      7  C   UNL     1      -3.832  -2.722  -3.839  0.00  0.00    +0.022 C 
ATOM      8  C   UNL     1      -2.533  -2.824  -3.509  0.00  0.00    +0.054 C 
ATOM      9  C   UNL     1      -3.108  -3.703  -1.199  0.00  0.00    +0.107 C 
ATOM     10  C   UNL     1      -2.672  -3.187   0.172  0.00  0.00    +0.107 C 
ATOM     11  C   UNL     1      -3.700  -2.350   0.849  0.00  0.00    -0.008 A 
ATOM     12  C   UNL     1      -4.433  -1.254   0.443  0.00  0.00    +0.006 A 
ATOM     13  C   UNL     1      -5.319  -0.698   1.359  0.00  0.00    +0.000 A 
ATOM     14  C   UNL     1      -5.467  -1.224   2.627  0.00  0.00    +0.002 A 
ATOM     15  C   UNL     1      -4.755  -2.340   3.042  0.00  0.00    +0.023 A 
ATOM     16  C   UNL     1      -3.882  -2.918   2.122  0.00  0.00    +0.038 A 
ATOM     17  N   UNL     1      -3.125  -4.070   2.248  0.00  0.00    -0.284 N 
ATOM     18  C   UNL     1      -2.445  -4.350   1.117  0.00  0.00    +0.231 C 
ATOM     19  O   UNL     1      -1.786  -5.342   0.891  0.00  0.00    -0.274 OA
ATOM     20  C   UNL     1      -1.346  -2.439  -0.043  0.00  0.00    +0.108 C 
ATOM     21  C   UNL     1      -0.954  -2.748  -1.508  0.00  0.00    +0.143 C 
ATOM     22  H   UNL     1      -3.091  -4.614   3.052  0.00  0.00    +0.155 HD
ATOM     23  N   UNL     1      -2.311  -2.754  -2.003  0.00  0.00    -0.383 NA
ATOM     24  H   UNL     1      -2.671  -1.826  -1.752  0.00  0.00    +0.127 HD
ENDROOT
BRANCH  21  25
ATOM     25  C   UNL     1      -0.004  -3.916  -1.574  0.00  0.00    +0.217 C 
ATOM     26  O   UNL     1      -0.422  -5.023  -1.847  0.00  0.00    -0.287 OA
BRANCH  25  27
ATOM     27  C   UNL     1       1.372  -3.723  -1.319  0.00  0.00    +0.172 A 
ATOM     28  C   UNL     1       2.332  -4.712  -1.242  0.00  0.00    +0.053 A 
ATOM     29  C   UNL     1       3.548  -4.068  -0.977  0.00  0.00    +0.042 A 
ATOM     30  C   UNL     1       3.289  -2.742  -0.896  0.00  0.00    +0.196 A 
ATOM     31  O   UNL     1       1.983  -2.538  -1.102  0.00  0.00    -0.460 OA
ENDBRANCH  25  27
ENDBRANCH  21  25
BRANCH  20  32
ATOM     32  C   UNL     1      -1.480  -0.952   0.182  0.00  0.00    +0.170 C 
ATOM     33  O   UNL     1      -1.787  -0.225  -0.739  0.00  0.00    -0.292 OA
BRANCH  32  34
ATOM     34  C   UNL     1      -1.239  -0.386   1.518  0.00  0.00    +0.018 A 
ATOM     35  C   UNL     1      -1.328   0.995   1.722  0.00  0.00    +0.013 A 
ATOM     36  C   UNL     1      -1.101   1.519   2.976  0.00  0.00    +0.020 A 
ATOM     37  C   UNL     1      -0.785   0.681   4.034  0.00  0.00    +0.041 A 
ATOM     38  C   UNL     1      -0.694  -0.687   3.839  0.00  0.00    +0.020 A 
ATOM     39  C   UNL     1      -0.919  -1.225   2.590  0.00  0.00    +0.013 A 
ATOM     40 CL   UNL     1      -0.499   1.350   5.610  0.00  0.00    -0.084 Cl
ENDBRANCH  32  34
ENDBRANCH  20  32
TORSDOF 4
