REMARK  Name = ZINC39856175
REMARK  9 active torsions:
REMARK  status: ('A' for Active; 'I' for Inactive)
REMARK    1  A    between atoms: C_1  and  C_2
REMARK    2  A    between atoms: C_7  and  N_8
REMARK    3  A    between atoms: C_9  and  C_11
REMARK    4  A    between atoms: C_12  and  C_27
REMARK    5  A    between atoms: C_17  and  C_25
REMARK    6  A    between atoms: C_17  and  C_26
REMARK    7  A    between atoms: N_20  and  N_21
REMARK    8  A    between atoms: N_21  and  C_22
REMARK    9  A    between atoms: C_22  and  N_24
REMARK                            x       y       z     vdW  Elec       q    Type
REMARK                         _______ _______ _______ _____ _____    ______ ____
ROOT
ATOM      1  C   UNL     1      -0.165   0.032   4.847  0.00  0.00    +0.193 A 
ATOM      2  C   UNL     1      -0.248  -0.536   6.088  0.00  0.00    +0.009 A 
ATOM      3  C   UNL     1      -0.336   0.523   6.998  0.00  0.00    +0.042 A 
ATOM      4  C   UNL     1      -0.303   1.692   6.276  0.00  0.00    +0.116 A 
ATOM      5  O   UNL     1      -0.193   1.377   4.987  0.00  0.00    -0.454 OA
ATOM      6  C   UNL     1      -0.381   3.055   6.916  0.00  0.00    +0.081 C 
ATOM      7  C   UNL     1      -0.998   2.927   8.311  0.00  0.00    -0.023 C 
ATOM      8  C   UNL     1      -0.249   1.876   9.139  0.00  0.00    +0.064 C 
ATOM      9  C   UNL     1      -0.443   0.521   8.475  0.00  0.00    +0.070 C 
ATOM     10  N   UNL     1      -0.685  -0.558   9.153  0.00  0.00    -0.185 NA
ATOM     11  C   UNL     1      -0.919   4.279   9.023  0.00  0.00    +0.011 C 
ATOM     12  C   UNL     1      -2.465   2.513   8.178  0.00  0.00    +0.011 C 
ATOM     13  C   UNL     1      -0.248  -2.009   6.410  0.00  0.00    +0.048 C 
ENDROOT
BRANCH   1  15
ATOM     14  N   UNL     1       0.025  -0.015   2.416  0.00  0.00    -0.279 N 
ATOM     15  C   UNL     1      -0.056  -0.695   3.577  0.00  0.00    +0.284 C 
ATOM     16  O   UNL     1      -0.040  -1.912   3.572  0.00  0.00    -0.266 OA
ATOM     17  H   UNL     1       0.078   0.953   2.424  0.00  0.00    +0.155 HD
BRANCH  14  24
ATOM     18  C   UNL     1      -1.265   1.183   0.182  0.00  0.00    +0.045 C 
ATOM     19  C   UNL     1      -0.585  -0.158   0.085  0.00  0.00    -0.029 A 
ATOM     20  C   UNL     1      -0.570  -0.840  -1.116  0.00  0.00    +0.005 A 
ATOM     21  C   UNL     1       0.055  -2.071  -1.206  0.00  0.00    +0.000 A 
ATOM     22  C   UNL     1       0.667  -2.622  -0.095  0.00  0.00    +0.002 A 
ATOM     23  C   UNL     1       0.655  -1.945   1.108  0.00  0.00    +0.023 A 
ATOM     24  C   UNL     1       0.033  -0.706   1.201  0.00  0.00    +0.037 A 
ENDBRANCH  14  24
ENDBRANCH   1  15
BRANCH  10  25
ATOM     25  N   UNL     1      -0.777  -0.502  10.550  0.00  0.00    -0.218 N 
ATOM     26  H   UNL     1      -0.659   0.344  11.010  0.00  0.00    +0.176 HD
BRANCH  25  27
ATOM     27  C   UNL     1      -1.028  -1.623  11.255  0.00  0.00    +0.147 C 
ATOM     28  S   UNL     1      -1.140  -1.554  12.961  0.00  0.00    -0.017 S 
BRANCH  27  29
ATOM     29  N   UNL     1      -1.191  -2.798  10.616  0.00  0.00    -0.339 N 
ATOM     30  H   UNL     1      -1.127  -2.837   9.648  0.00  0.00    +0.144 HD
ATOM     31  H   UNL     1      -1.372  -3.605  11.123  0.00  0.00    +0.144 HD
ENDBRANCH  27  29
ENDBRANCH  25  27
ENDBRANCH  10  25
TORSDOF 5
