REMARK  Name = ZINC15931382
REMARK  3 active torsions:
REMARK  status: ('A' for Active; 'I' for Inactive)
REMARK    1  A    between atoms: C_10  and  N_11
REMARK    2  A    between atoms: C_13  and  C_23
REMARK    3  A    between atoms: C_18  and  O_22
REMARK                            x       y       z     vdW  Elec       q    Type
REMARK                         _______ _______ _______ _____ _____    ______ ____
ROOT
ATOM      1  N   UNL     1       4.877   0.116   0.138  0.00  0.00    -0.325 N 
ATOM      2  C   UNL     1       6.001  -0.570   0.153  0.00  0.00    +0.212 A 
ATOM      3  C   UNL     1       7.310   0.110   0.170  0.00  0.00    +0.097 A 
ATOM      4  C   UNL     1       8.383  -0.585   0.713  0.00  0.00    +0.030 A 
ATOM      5  C   UNL     1       8.159  -1.904   1.181  0.00  0.00    +0.018 A 
ATOM      6  C   UNL     1       9.149  -2.574   1.917  0.00  0.00    +0.015 A 
ATOM      7  C   UNL     1       8.907  -3.826   2.398  0.00  0.00    +0.046 A 
ATOM      8  C   UNL     1       7.684  -4.452   2.160  0.00  0.00    +0.120 A 
ATOM      9  C   UNL     1       6.701  -3.813   1.419  0.00  0.00    +0.092 A 
ATOM     10  C   UNL     1       6.933  -2.544   0.916  0.00  0.00    +0.141 A 
ATOM     11  O   UNL     1       5.995  -1.928   0.159  0.00  0.00    -0.438 OA
ATOM     12  H   UNL     1       4.897   1.082   0.226  0.00  0.00    +0.169 HD
ENDROOT
BRANCH   1  22
ATOM     13  C   UNL     1       0.451   0.188   2.634  0.00  0.00    +0.001 A 
ATOM     14  C   UNL     1       1.654   0.868   2.807  0.00  0.00    +0.001 A 
ATOM     15  C   UNL     1       2.708   0.652   1.971  0.00  0.00    +0.010 A 
ATOM     16  C   UNL     1       2.582  -0.267   0.922  0.00  0.00    +0.006 A 
ATOM     17  C   UNL     1       1.360  -0.961   0.743  0.00  0.00    -0.016 A 
ATOM     18  C   UNL     1       0.294  -0.713   1.624  0.00  0.00    +0.008 A 
ATOM     19  C   UNL     1       1.238  -1.882  -0.311  0.00  0.00    +0.008 A 
ATOM     20  C   UNL     1       2.279  -2.113  -1.157  0.00  0.00    +0.003 A 
ATOM     21  C   UNL     1       3.494  -1.457  -1.019  0.00  0.00    +0.026 A 
ATOM     22  C   UNL     1       3.686  -0.531   0.001  0.00  0.00    +0.050 A 
ENDBRANCH   1  22
BRANCH   3  23
ATOM     23  C   UNL     1       7.473   1.470  -0.367  0.00  0.00    +0.247 C 
ATOM     24  O   UNL     1       6.514   2.059  -0.831  0.00  0.00    -0.270 OA
ATOM     25  N   UNL     1       8.682   2.064  -0.345  0.00  0.00    -0.325 N 
ATOM     26  H   UNL     1       9.434   1.617   0.075  0.00  0.00    +0.145 HD
ATOM     27  H   UNL     1       8.802   2.937  -0.751  0.00  0.00    +0.145 HD
ENDBRANCH   3  23
BRANCH   8  28
ATOM     28  O   UNL     1       7.454  -5.694   2.655  0.00  0.00    -0.507 OA
ATOM     29  H   UNL     1       7.061  -5.698   3.539  0.00  0.00    +0.292 HD
ENDBRANCH   8  28
TORSDOF 3
