REMARK  Name = ZINC65827683
REMARK  12 active torsions:
REMARK  status: ('A' for Active; 'I' for Inactive)
REMARK    1  A    between atoms: C_1  and  C_2
REMARK    2  A    between atoms: C_4  and  C_28
REMARK    3  A    between atoms: N_6  and  C_8
REMARK    4  A    between atoms: C_8  and  C_9
REMARK    5  A    between atoms: C_8  and  C_10
REMARK    6  A    between atoms: C_8  and  C_11
REMARK    7  A    between atoms: C_11  and  N_12
REMARK    8  A    between atoms: C_13  and  C_15
REMARK    9  A    between atoms: C_16  and  C_17
REMARK   10  A    between atoms: C_20  and  O_23
REMARK   11  A    between atoms: O_23  and  C_24
REMARK   12  A    between atoms: C_24  and  C_25
REMARK                            x       y       z     vdW  Elec       q    Type
REMARK                         _______ _______ _______ _____ _____    ______ ____
ROOT
ATOM      1  N   UNL     1       3.477  -2.389   0.896  0.00  0.00    -0.313 N 
ATOM      2  C   UNL     1       4.769  -2.196   0.567  0.00  0.00    +0.237 C 
ATOM      3  O   UNL     1       5.539  -1.720   1.381  0.00  0.00    -0.271 OA
ATOM      4  H   UNL     1       2.863  -2.769   0.247  0.00  0.00    +0.149 HD
ENDROOT
BRANCH   2   5
ATOM      5  C   UNL     1       5.246  -2.557  -0.767  0.00  0.00    +0.068 C 
ATOM      6  C   UNL     1       6.541  -2.363  -1.097  0.00  0.00    +0.013 C 
BRANCH   6   7
ATOM      7  C   UNL     1       7.021  -2.725  -2.438  0.00  0.00    -0.025 A 
ATOM      8  C   UNL     1       6.136  -3.267  -3.377  0.00  0.00    +0.011 A 
ATOM      9  C   UNL     1       6.590  -3.606  -4.632  0.00  0.00    +0.046 A 
ATOM     10  C   UNL     1       7.925  -3.410  -4.967  0.00  0.00    +0.121 A 
ATOM     11  C   UNL     1       8.808  -2.873  -4.037  0.00  0.00    +0.046 A 
ATOM     12  C   UNL     1       8.363  -2.525  -2.782  0.00  0.00    +0.011 A 
BRANCH  10  13
ATOM     13  O   UNL     1       8.368  -3.745  -6.205  0.00  0.00    -0.483 OA
BRANCH  13  14
ATOM     14  C   UNL     1       9.752  -3.518  -6.483  0.00  0.00    +0.324 C 
BRANCH  14  15
ATOM     15  C   UNL     1      10.057  -3.947  -7.895  0.00  0.00    +0.248 C 
ATOM     16  O   UNL     1       9.178  -4.402  -8.594  0.00  0.00    -0.272 OA
ATOM     17  N   UNL     1      11.309  -3.825  -8.380  0.00  0.00    -0.327 N 
ATOM     18  H   UNL     1      12.012  -3.460  -7.821  0.00  0.00    +0.145 HD
ATOM     19  H   UNL     1      11.506  -4.101  -9.289  0.00  0.00    +0.145 HD
ENDBRANCH  14  15
ENDBRANCH  13  14
ENDBRANCH  10  13
ENDBRANCH   6   7
ENDBRANCH   2   5
BRANCH   1  20
ATOM     20  C   UNL     1       2.998  -2.028   2.232  0.00  0.00    +0.092 C 
BRANCH  20  21
ATOM     21  C   UNL     1       1.483  -2.227   2.303  0.00  0.00    -0.055 C 
ATOM     22  C   UNL     1       0.972  -1.768   3.670  0.00  0.00    -0.008 C 
ATOM     23  C   UNL     1       1.153  -3.707   2.106  0.00  0.00    -0.008 C 
BRANCH  21  29
ATOM     24  C   UNL     1       0.933   2.275   0.459  0.00  0.00    +0.005 C 
ATOM     25  C   UNL     1       0.575   0.799   0.276  0.00  0.00    -0.031 C 
ATOM     26  C   UNL     1      -0.948   0.636   0.290  0.00  0.00    +0.003 C 
ATOM     27  C   UNL     1      -1.294  -0.852   0.185  0.00  0.00    -0.031 C 
ATOM     28  C   UNL     1      -0.620  -1.609   1.332  0.00  0.00    -0.075 C 
ATOM     29  N   UNL     1       0.836  -1.436   1.248  0.00  0.00    +0.384 N 
ATOM     30  C   UNL     1       1.180  -0.019   1.419  0.00  0.00    -0.075 C 
ATOM     31  C   UNL     1      -0.793  -1.400  -1.153  0.00  0.00    +0.005 C 
ATOM     32  H   UNL     1       1.160  -1.753   0.346  0.00  0.00    -0.081 HD
ENDBRANCH  21  29
ENDBRANCH  20  21
ENDBRANCH   1  20
TORSDOF 8
