REMARK  Name = ZINC64539590
REMARK  7 active torsions:
REMARK  status: ('A' for Active; 'I' for Inactive)
REMARK    1  A    between atoms: C_1  and  C_2
REMARK    2  A    between atoms: C_8  and  C_11
REMARK    3  A    between atoms: C_11  and  C_12
REMARK    4  A    between atoms: C_12  and  N_13
REMARK    5  A    between atoms: C_14  and  C_16
REMARK    6  A    between atoms: C_16  and  N_17
REMARK    7  A    between atoms: C_23  and  C_26
REMARK                            x       y       z     vdW  Elec       q    Type
REMARK                         _______ _______ _______ _____ _____    ______ ____
ROOT
ATOM      1  N   UNL     1      -1.377  -2.600   5.613  0.00  0.00    -0.314 N 
ATOM      2  C   UNL     1      -2.537  -2.599   6.299  0.00  0.00    +0.230 C 
ATOM      3  O   UNL     1      -3.583  -2.808   5.722  0.00  0.00    -0.274 OA
ATOM      4  H   UNL     1      -0.540  -2.433   6.075  0.00  0.00    +0.149 HD
ENDROOT
BRANCH   1   5
ATOM      5  C   UNL     1      -1.379  -2.854   4.170  0.00  0.00    +0.108 C 
BRANCH   5   6
ATOM      6  C   UNL     1       0.055  -2.799   3.641  0.00  0.00    +0.052 C 
BRANCH   6  14
ATOM      7  C   UNL     1      -0.018   1.503   0.010  0.00  0.00    +0.044 C 
ATOM      8  C   UNL     1       0.002  -0.004   0.002  0.00  0.00    -0.050 A 
ATOM      9  C   UNL     1       0.005  -0.680  -1.226  0.00  0.00    +0.005 A 
ATOM     10  C   UNL     1       0.023  -2.026  -1.317  0.00  0.00    +0.026 A 
ATOM     11  C   UNL     1       0.039  -2.826  -0.141  0.00  0.00    +0.043 A 
ATOM     12  N   UNL     1       0.057  -4.126   0.030  0.00  0.00    -0.380 N 
ATOM     13  C   UNL     1       0.067  -4.408   1.470  0.00  0.00    +0.144 C 
ATOM     14  C   UNL     1       0.052  -3.060   2.156  0.00  0.00    -0.040 C 
ATOM     15  C   UNL     1       0.036  -2.137   1.168  0.00  0.00    -0.001 A 
ATOM     16  C   UNL     1       0.022  -0.669   1.180  0.00  0.00    +0.013 A 
ATOM     17  H   UNL     1       0.062  -4.790  -0.677  0.00  0.00    +0.160 HD
ENDBRANCH   6  14
ENDBRANCH   5   6
ENDBRANCH   1   5
BRANCH   2  18
ATOM     18  C   UNL     1      -2.534  -2.338   7.783  0.00  0.00    +0.205 C 
BRANCH  18  19
ATOM     19  N   UNL     1      -3.908  -2.390   8.291  0.00  0.00    -0.276 N 
ATOM     20  C   UNL     1      -4.699  -1.165   8.309  0.00  0.00    +0.195 C 
ATOM     21  N   UNL     1      -6.141  -1.426   8.203  0.00  0.00    -0.270 NA
ATOM     22  C   UNL     1      -6.569  -2.320   9.288  0.00  0.00    +0.255 C 
ATOM     23  C   UNL     1      -5.755  -3.598   9.125  0.00  0.00    +0.081 C 
ATOM     24  C   UNL     1      -6.591  -4.617   9.335  0.00  0.00    +0.048 C 
ATOM     25  N   UNL     1      -7.869  -4.154   9.493  0.00  0.00    -0.268 N 
ATOM     26  O   UNL     1      -7.923  -2.761   9.126  0.00  0.00    -0.250 OA
ATOM     27  C   UNL     1      -6.187  -6.068   9.388  0.00  0.00    +0.066 C 
ATOM     28  C   UNL     1      -4.401  -3.575   8.721  0.00  0.00    +0.250 C 
ATOM     29  O   UNL     1      -3.708  -4.575   8.761  0.00  0.00    -0.270 OA
ATOM     30  H   UNL     1      -6.666  -0.565   8.215  0.00  0.00    +0.126 HD
ATOM     31  H   UNL     1      -8.622  -4.676   9.812  0.00  0.00    +0.194 HD
ENDBRANCH  18  19
ENDBRANCH   2  18
TORSDOF 5
