REMARK  Name = ZINC36123867
REMARK  10 active torsions:
REMARK  status: ('A' for Active; 'I' for Inactive)
REMARK    1  A    between atoms: C_1  and  C_2
REMARK    2  A    between atoms: C_7  and  O_8
REMARK    3  A    between atoms: O_8  and  C_9
REMARK    4  A    between atoms: C_9  and  C_10
REMARK    5  A    between atoms: C_20  and  C_22
REMARK    6  A    between atoms: C_22  and  N_23
REMARK    7  A    between atoms: N_23  and  C_24
REMARK    8  A    between atoms: C_24  and  C_25
REMARK    9  A    between atoms: C_24  and  C_26
REMARK   10  A    between atoms: N_29  and  C_30
REMARK                            x       y       z     vdW  Elec       q    Type
REMARK                         _______ _______ _______ _____ _____    ______ ____
ROOT
ATOM      1  C   UNL     1       0.663   2.763   4.559  0.00  0.00    +0.144 C 
ATOM      2  C   UNL     1       0.142   4.190   4.398  0.00  0.00    -0.014 A 
ATOM      3  C   UNL     1      -1.193   4.543   4.595  0.00  0.00    +0.013 A 
ATOM      4  C   UNL     1      -1.584   5.827   4.431  0.00  0.00    +0.046 A 
ATOM      5  S   UNL     1      -0.051   6.624   3.979  0.00  0.00    -0.101 S 
ATOM      6  C   UNL     1       0.993   5.192   4.046  0.00  0.00    -0.004 A 
ATOM      7  C   UNL     1       2.461   5.100   3.784  0.00  0.00    +0.061 C 
ATOM      8  C   UNL     1       2.832   3.624   3.572  0.00  0.00    +0.114 C 
ATOM      9  N   UNL     1       2.130   2.820   4.586  0.00  0.00    -0.289 N 
ATOM     10  C   UNL     1       2.824   2.147   5.526  0.00  0.00    +0.234 C 
ATOM     11  O   UNL     1       2.236   1.489   6.357  0.00  0.00    -0.274 OA
ENDROOT
BRANCH   1  12
ATOM     12  C   UNL     1       0.199   1.906   3.380  0.00  0.00    +0.256 C 
BRANCH  12  13
ATOM     13  O   UNL     1       0.587   2.531   2.155  0.00  0.00    -0.490 OA
BRANCH  13  20
ATOM     14  C   UNL     1       1.346   3.750  -0.278  0.00  0.00    +0.047 C 
ATOM     15  C   UNL     1       0.595   2.445  -0.223  0.00  0.00    -0.009 A 
ATOM     16  C   UNL     1       0.256   1.792  -1.392  0.00  0.00    +0.007 A 
ATOM     17  C   UNL     1      -0.434   0.595  -1.342  0.00  0.00    +0.000 A 
ATOM     18  C   UNL     1      -0.785   0.047  -0.122  0.00  0.00    +0.004 A 
ATOM     19  C   UNL     1      -0.447   0.695   1.050  0.00  0.00    +0.046 A 
ATOM     20  C   UNL     1       0.249   1.894   1.003  0.00  0.00    +0.123 A 
ENDBRANCH  13  20
ENDBRANCH  12  13
ENDBRANCH   1  12
BRANCH  10  21
ATOM     21  C   UNL     1       4.329   2.213   5.543  0.00  0.00    +0.205 C 
BRANCH  21  22
ATOM     22  N   UNL     1       4.840   1.404   6.652  0.00  0.00    -0.274 N 
ATOM     23  C   UNL     1       5.027   1.962   7.864  0.00  0.00    +0.307 C 
ATOM     24  O   UNL     1       4.678   3.110   8.065  0.00  0.00    -0.252 OA
ATOM     25  N   UNL     1       5.600   1.249   8.854  0.00  0.00    -0.269 N 
ATOM     26  H   UNL     1       5.969   0.371   8.668  0.00  0.00    +0.156 HD
BRANCH  25  27
ATOM     27  C   UNL     1       5.664   1.776  10.149  0.00  0.00    +0.036 A 
ATOM     28  C   UNL     1       4.642   2.589  10.620  0.00  0.00    +0.023 A 
ATOM     29  C   UNL     1       4.707   3.107  11.899  0.00  0.00    +0.003 A 
ATOM     30  C   UNL     1       5.789   2.817  12.710  0.00  0.00    +0.020 A 
ATOM     31  C   UNL     1       6.809   2.007  12.244  0.00  0.00    +0.043 A 
ATOM     32  C   UNL     1       6.746   1.480  10.967  0.00  0.00    +0.043 A 
ATOM     33 CL   UNL     1       8.165   1.645  13.265  0.00  0.00    -0.083 Cl
ENDBRANCH  25  27
BRANCH  22  34
ATOM     34  C   UNL     1       5.149  -0.013   6.443  0.00  0.00    +0.072 C 
ATOM     35  C   UNL     1       3.925  -0.721   5.859  0.00  0.00    +0.028 C 
ATOM     36  C   UNL     1       6.324  -0.141   5.471  0.00  0.00    +0.028 C 
ENDBRANCH  22  34
ENDBRANCH  21  22
ENDBRANCH  10  21
TORSDOF 7
