REMARK  Name = ZINC15299651
REMARK  9 active torsions:
REMARK  status: ('A' for Active; 'I' for Inactive)
REMARK    1  A    between atoms: C_1  and  C_2
REMARK    2  A    between atoms: C_2  and  C_4
REMARK    3  A    between atoms: C_2  and  N_47
REMARK    4  A    between atoms: N_6  and  C_7
REMARK    5  A    between atoms: C_7  and  C_8
REMARK    6  A    between atoms: N_10  and  C_11
REMARK    7  A    between atoms: C_20  and  N_47
REMARK    8  A    between atoms: C_21  and  C_22
REMARK    9  A    between atoms: C_21  and  N_47
REMARK                            x       y       z     vdW  Elec       q    Type
REMARK                         _______ _______ _______ _____ _____    ______ ____
ROOT
ATOM      1  C   UNL     1       3.876   7.288   0.629  0.00  0.00    +0.200 C 
ATOM      2  O   UNL     1       2.929   7.870   1.115  0.00  0.00    -0.278 OA
ATOM      3  N   UNL     1       3.748   6.007   0.231  0.00  0.00    -0.308 N 
ATOM      4  H   UNL     1       4.506   5.542  -0.157  0.00  0.00    +0.149 HD
ENDROOT
BRANCH   1   6
ATOM      5  C   UNL     1       6.196   7.448   1.491  0.00  0.00    -0.004 C 
ATOM      6  C   UNL     1       5.196   7.998   0.472  0.00  0.00    +0.016 C 
BRANCH   6   8
ATOM      7  C   UNL     1       6.163  10.203   0.210  0.00  0.00    -0.095 C 
ATOM      8  N   UNL     1       4.985   9.446   0.684  0.00  0.00    +0.388 N 
ATOM      9  H   UNL     1       4.160   9.744   0.150  0.00  0.00    -0.081 HD
BRANCH   8  10
ATOM     10  C   UNL     1       4.753   9.718   2.118  0.00  0.00    -0.041 C 
BRANCH  10  11
ATOM     11  C   UNL     1       4.398  11.173   2.287  0.00  0.00    -0.044 A 
ATOM     12  C   UNL     1       5.309  12.046   2.853  0.00  0.00    +0.003 A 
ATOM     13  C   UNL     1       4.984  13.380   3.008  0.00  0.00    +0.002 A 
ATOM     14  C   UNL     1       3.747  13.843   2.598  0.00  0.00    +0.021 A 
ATOM     15  C   UNL     1       2.835  12.972   2.032  0.00  0.00    +0.059 A 
ATOM     16  C   UNL     1       3.163  11.636   1.870  0.00  0.00    +0.061 A 
ATOM     17 CL   UNL     1       2.022  10.542   1.153  0.00  0.00    -0.082 Cl
ATOM     18 CL   UNL     1       1.282  13.553   1.517  0.00  0.00    -0.082 Cl
ENDBRANCH  10  11
ENDBRANCH   8  10
ENDBRANCH   6   8
ENDBRANCH   1   6
BRANCH   3  19
ATOM     19  C   UNL     1       2.465   5.317   0.384  0.00  0.00    +0.200 C 
BRANCH  19  20
ATOM     20  C   UNL     1       2.588   3.907  -0.134  0.00  0.00    +0.234 C 
ATOM     21  O   UNL     1       3.644   3.518  -0.587  0.00  0.00    -0.274 OA
ATOM     22  N   UNL     1       1.525   3.080  -0.095  0.00  0.00    -0.282 N 
ATOM     23  H   UNL     1       0.661   3.413   0.195  0.00  0.00    +0.155 HD
BRANCH  22  24
ATOM     24  C   UNL     1       1.668   1.738  -0.472  0.00  0.00    +0.072 A 
ATOM     25  C   UNL     1       2.928   1.157  -0.512  0.00  0.00    +0.029 A 
ATOM     26  C   UNL     1       3.068  -0.166  -0.884  0.00  0.00    +0.043 A 
ATOM     27  C   UNL     1       1.952  -0.915  -1.219  0.00  0.00    +0.161 A 
ATOM     28  C   UNL     1       0.692  -0.339  -1.180  0.00  0.00    +0.195 A 
ATOM     29  C   UNL     1       0.547   0.987  -0.808  0.00  0.00    +0.182 A 
ATOM     30  F   UNL     1      -0.680   1.550  -0.775  0.00  0.00    -0.200 F 
ATOM     31  F   UNL     1      -0.396  -1.072  -1.507  0.00  0.00    -0.199 F 
ATOM     32  F   UNL     1       2.093  -2.208  -1.583  0.00  0.00    -0.202 F 
ENDBRANCH  22  24
ENDBRANCH  19  20
ENDBRANCH   3  19
TORSDOF 7
