REMARK  Name = ZINC39994169
REMARK  9 active torsions:
REMARK  status: ('A' for Active; 'I' for Inactive)
REMARK    1  A    between atoms: C_1  and  C_2
REMARK    2  A    between atoms: C_7  and  N_8
REMARK    3  A    between atoms: C_9  and  C_11
REMARK    4  A    between atoms: C_11  and  C_38
REMARK    5  A    between atoms: C_12  and  C_13
REMARK    6  A    between atoms: C_14  and  N_25
REMARK    7  A    between atoms: C_17  and  C_24
REMARK    8  A    between atoms: N_28  and  C_31
REMARK    9  A    between atoms: C_31  and  C_32
REMARK                            x       y       z     vdW  Elec       q    Type
REMARK                         _______ _______ _______ _____ _____    ______ ____
ROOT
ATOM      1  C   UNL     1      -0.292   0.414   7.021  0.00  0.00    +0.081 A 
ATOM      2  C   UNL     1      -0.318  -0.121   8.334  0.00  0.00    +0.136 A 
ATOM      3  N   UNL     1      -0.306   0.701   9.373  0.00  0.00    -0.213 NA
ATOM      4  C   UNL     1      -0.270   2.026   9.218  0.00  0.00    +0.145 A 
ATOM      5  C   UNL     1      -0.259   2.846  10.360  0.00  0.00    -0.007 A 
ATOM      6  C   UNL     1      -0.222   4.201  10.215  0.00  0.00    +0.008 A 
ATOM      7  C   UNL     1      -0.195   4.758   8.930  0.00  0.00    +0.019 A 
ATOM      8  C   UNL     1      -0.207   3.954   7.843  0.00  0.00    +0.096 A 
ATOM      9  N   UNL     1      -0.242   2.598   7.978  0.00  0.00    -0.267 N 
ATOM     10  C   UNL     1      -0.248   1.824   6.870  0.00  0.00    +0.267 A 
ATOM     11  O   UNL     1      -0.219   2.329   5.762  0.00  0.00    -0.267 OA
ATOM     12  C   UNL     1      -0.288   2.231  11.736  0.00  0.00    +0.047 C 
ENDROOT
BRANCH   2  13
ATOM     13  N   UNL     1      -0.357  -1.482   8.528  0.00  0.00    -0.312 N 
ATOM     14  C   UNL     1       0.446  -2.387   7.691  0.00  0.00    +0.122 C 
ATOM     15  C   UNL     1       1.242  -3.321   8.609  0.00  0.00    +0.103 C 
ATOM     16  N   UNL     1       0.322  -3.989   9.540  0.00  0.00    -0.295 NA
ATOM     17  C   UNL     1      -0.341  -3.018  10.421  0.00  0.00    +0.103 C 
ATOM     18  C   UNL     1      -1.197  -2.071   9.582  0.00  0.00    +0.122 C 
BRANCH  16  19
ATOM     19  C   UNL     1       1.020  -5.019  10.321  0.00  0.00    +0.119 C 
BRANCH  19  20
ATOM     20  C   UNL     1       0.011  -5.843  11.079  0.00  0.00    -0.033 A 
ATOM     21  C   UNL     1      -0.377  -5.463  12.350  0.00  0.00    +0.005 A 
ATOM     22  C   UNL     1      -1.302  -6.219  13.045  0.00  0.00    +0.000 A 
ATOM     23  C   UNL     1      -1.839  -7.355  12.469  0.00  0.00    +0.000 A 
ATOM     24  C   UNL     1      -1.452  -7.734  11.198  0.00  0.00    +0.000 A 
ATOM     25  C   UNL     1      -0.530  -6.976  10.501  0.00  0.00    +0.005 A 
ENDBRANCH  19  20
ENDBRANCH  16  19
ENDBRANCH   2  13
BRANCH   1  27
ATOM     26  C   UNL     1       0.751  -0.400   4.995  0.00  0.00    +0.114 C 
ATOM     27  C   UNL     1      -0.303  -0.431   5.898  0.00  0.00    +0.040 C 
BRANCH  26  29
ATOM     28  N   UNL     1       1.700  -1.145   2.876  0.00  0.00    -0.281 N 
ATOM     29  C   UNL     1       0.676  -1.175   3.752  0.00  0.00    +0.259 C 
ATOM     30  O   UNL     1      -0.312  -1.845   3.512  0.00  0.00    -0.269 OA
ATOM     31  H   UNL     1       2.516  -0.671   3.100  0.00  0.00    +0.155 HD
BRANCH  28  38
ATOM     32  C   UNL     1       3.003   0.003   0.622  0.00  0.00    +0.045 C 
ATOM     33  C   UNL     1       2.205  -1.272   0.518  0.00  0.00    -0.029 A 
ATOM     34  C   UNL     1       2.095  -1.921  -0.696  0.00  0.00    +0.005 A 
ATOM     35  C   UNL     1       1.363  -3.091  -0.791  0.00  0.00    +0.000 A 
ATOM     36  C   UNL     1       0.739  -3.613   0.327  0.00  0.00    +0.002 A 
ATOM     37  C   UNL     1       0.846  -2.969   1.543  0.00  0.00    +0.023 A 
ATOM     38  C   UNL     1       1.585  -1.797   1.644  0.00  0.00    +0.037 A 
ENDBRANCH  28  38
ENDBRANCH  26  29
BRANCH  26  39
ATOM     39  C   UNL     1       1.913   0.388   5.278  0.00  0.00    +0.104 C 
ATOM     40  N   UNL     1       2.835   1.013   5.502  0.00  0.00    -0.191 NA
ENDBRANCH  26  39
ENDBRANCH   1  27
TORSDOF 7
