REMARK  Name = ZINC46347311
REMARK  8 active torsions:
REMARK  status: ('A' for Active; 'I' for Inactive)
REMARK    1  A    between atoms: C_1  and  N_2
REMARK    2  A    between atoms: N_2  and  C_3
REMARK    3  A    between atoms: N_2  and  C_4
REMARK    4  A    between atoms: C_4  and  C_6
REMARK    5  A    between atoms: C_4  and  C_22
REMARK    6  A    between atoms: C_6  and  N_7
REMARK    7  A    between atoms: N_10  and  N_11
REMARK    8  A    between atoms: C_12  and  C_14
REMARK                            x       y       z     vdW  Elec       q    Type
REMARK                         _______ _______ _______ _____ _____    ______ ____
ROOT
ATOM      1  N   UNL     1       1.876   1.579  -0.913  0.00  0.00    -0.299 N 
ATOM      2  C   UNL     1       2.994   2.327  -0.816  0.00  0.00    +0.316 C 
ATOM      3  O   UNL     1       4.084   1.815  -0.983  0.00  0.00    -0.251 OA
ATOM      4  N   UNL     1       2.902   3.642  -0.535  0.00  0.00    -0.218 N 
ATOM      5  H   UNL     1       1.007   1.988  -0.779  0.00  0.00    +0.150 HD
ATOM      6  H   UNL     1       3.707   4.180  -0.466  0.00  0.00    +0.174 HD
ENDROOT
BRANCH   4   7
ATOM      7  N   UNL     1       1.646   4.231  -0.343  0.00  0.00    -0.233 N 
ATOM      8  C   UNL     1       1.555   5.546  -0.062  0.00  0.00    +0.234 C 
ATOM      9  O   UNL     1       2.561   6.219   0.024  0.00  0.00    -0.274 OA
ATOM     10  H   UNL     1       0.842   3.693  -0.412  0.00  0.00    +0.173 HD
BRANCH   8  11
ATOM     11  C   UNL     1       0.204   6.181   0.144  0.00  0.00    +0.099 C 
ATOM     12  C   UNL     1      -0.634   6.047  -1.138  0.00  0.00    +0.037 C 
ATOM     13  C   UNL     1      -1.880   6.961  -1.052  0.00  0.00    +0.166 C 
ATOM     14  S   UNL     1      -1.312   8.316   0.055  0.00  0.00    -0.030 S 
ATOM     15  O   UNL     1      -1.197   9.513  -0.702  0.00  0.00    -0.174 OA
ATOM     16  O   UNL     1      -2.100   8.309   1.237  0.00  0.00    -0.174 OA
ATOM     17  C   UNL     1       0.377   7.696   0.454  0.00  0.00    +0.178 C 
ENDBRANCH   8  11
ENDBRANCH   4   7
BRANCH   1  18
ATOM     18  C   UNL     1       1.975   0.150  -1.218  0.00  0.00    +0.095 C 
BRANCH  18  19
ATOM     19  C   UNL     1       0.583  -0.482  -1.159  0.00  0.00    -0.020 C 
BRANCH  19  20
ATOM     20  C   UNL     1      -0.284   0.111  -2.240  0.00  0.00    -0.052 A 
ATOM     21  C   UNL     1      -1.190   1.111  -1.942  0.00  0.00    +0.009 A 
ATOM     22  C   UNL     1      -1.955   1.623  -2.938  0.00  0.00    +0.045 A 
ATOM     23  S   UNL     1      -1.399   0.684  -4.350  0.00  0.00    -0.105 S 
ATOM     24  C   UNL     1      -0.181  -0.324  -3.520  0.00  0.00    +0.047 A 
ENDBRANCH  19  20
BRANCH  19  26
ATOM     25  C   UNL     1       1.548  -2.509  -0.315  0.00  0.00    -0.096 C 
ATOM     26  N   UNL     1       0.695  -1.933  -1.362  0.00  0.00    +0.382 N 
ATOM     27  C   UNL     1      -0.641  -2.541  -1.295  0.00  0.00    -0.096 C 
ATOM     28  H   UNL     1       1.102  -2.115  -2.267  0.00  0.00    -0.082 HD
ENDBRANCH  19  26
ENDBRANCH  18  19
ENDBRANCH   1  18
TORSDOF 6
