REMARK  Name = ZINC03566821
REMARK  10 active torsions:
REMARK  status: ('A' for Active; 'I' for Inactive)
REMARK    1  A    between atoms: C_1  and  C_2
REMARK    2  A    between atoms: C_2  and  C_4
REMARK    3  A    between atoms: C_2  and  N_47
REMARK    4  A    between atoms: C_10  and  C_11
REMARK    5  A    between atoms: C_10  and  N_47
REMARK    6  A    between atoms: N_13  and  C_14
REMARK    7  A    between atoms: C_14  and  C_15
REMARK    8  A    between atoms: C_15  and  C_16
REMARK    9  A    between atoms: C_19  and  S_22
REMARK   10  A    between atoms: S_22  and  N_25
REMARK                            x       y       z     vdW  Elec       q    Type
REMARK                         _______ _______ _______ _____ _____    ______ ____
ROOT
ATOM      1  C   UNL     1       3.000   5.911   2.299  0.00  0.00    +0.196 C 
ATOM      2  O   UNL     1       3.966   5.204   2.499  0.00  0.00    -0.278 OA
ATOM      3  N   UNL     1       2.920   7.123   2.882  0.00  0.00    -0.317 N 
ATOM      4  H   UNL     1       2.148   7.688   2.722  0.00  0.00    +0.149 HD
ENDROOT
BRANCH   1   5
ATOM      5  C   UNL     1       1.890   5.432   1.399  0.00  0.00    +0.016 C 
BRANCH   5   6
ATOM      6  N   UNL     1       2.222   4.087   0.895  0.00  0.00    +0.389 N 
ATOM      7  H   UNL     1       3.103   4.130   0.369  0.00  0.00    -0.084 HD
ATOM      8  H   UNL     1       2.328   3.444   1.689  0.00  0.00    -0.084 HD
BRANCH   6  10
ATOM      9  C   UNL     1       1.381   4.113  -1.410  0.00  0.00    -0.009 C 
ATOM     10  C   UNL     1       1.151   3.592   0.010  0.00  0.00    -0.043 C 
BRANCH  10  11
ATOM     11  C   UNL     1       1.171   2.086   0.002  0.00  0.00    -0.062 A 
ATOM     12  C   UNL     1      -0.017   1.378   0.010  0.00  0.00    +0.002 A 
ATOM     13  C   UNL     1       0.002  -0.004   0.002  0.00  0.00    +0.000 A 
ATOM     14  C   UNL     1       1.208  -0.679  -0.014  0.00  0.00    +0.000 A 
ATOM     15  C   UNL     1       2.396   0.029  -0.021  0.00  0.00    +0.000 A 
ATOM     16  C   UNL     1       2.377   1.411  -0.014  0.00  0.00    +0.002 A 
ENDBRANCH  10  11
ENDBRANCH   6  10
ENDBRANCH   5   6
ENDBRANCH   1   5
BRANCH   3  17
ATOM     17  C   UNL     1       3.999   7.588   3.757  0.00  0.00    +0.109 C 
BRANCH  17  18
ATOM     18  C   UNL     1       3.663   8.984   4.284  0.00  0.00    +0.054 C 
BRANCH  18  19
ATOM     19  C   UNL     1       4.773   9.462   5.184  0.00  0.00    -0.046 A 
ATOM     20  C   UNL     1       4.726   9.197   6.540  0.00  0.00    +0.005 A 
ATOM     21  C   UNL     1       5.747   9.632   7.365  0.00  0.00    +0.029 A 
ATOM     22  C   UNL     1       6.809  10.340   6.835  0.00  0.00    +0.105 A 
ATOM     23  C   UNL     1       6.853  10.610   5.480  0.00  0.00    +0.029 A 
ATOM     24  C   UNL     1       5.835  10.171   4.655  0.00  0.00    +0.005 A 
BRANCH  22  25
ATOM     25  S   UNL     1       8.108  10.898   7.887  0.00  0.00    +0.056 S 
ATOM     26  O   UNL     1       8.104  10.047   9.025  0.00  0.00    -0.153 OA
ATOM     27  O   UNL     1       9.255  11.063   7.064  0.00  0.00    -0.153 OA
BRANCH  25  28
ATOM     28  N   UNL     1       7.689  12.408   8.424  0.00  0.00    -0.204 NA
ATOM     29  H   UNL     1       7.990  12.714   9.293  0.00  0.00    +0.144 HD
ATOM     30  H   UNL     1       7.142  12.985   7.869  0.00  0.00    +0.144 HD
ENDBRANCH  25  28
ENDBRANCH  22  25
ENDBRANCH  18  19
ENDBRANCH  17  18
ENDBRANCH   3  17
TORSDOF 9
