REMARK  Name = ZINC02454690
REMARK  2 active torsions:
REMARK  status: ('A' for Active; 'I' for Inactive)
REMARK    1  A    between atoms: C_3  and  N_15
REMARK    2  A    between atoms: C_6  and  C_7
REMARK                            x       y       z     vdW  Elec       q    Type
REMARK                         _______ _______ _______ _____ _____    ______ ____
ROOT
ATOM      1  C   UNL     1      -0.857   2.922   1.484  0.00  0.00    +0.006 A 
ATOM      2  C   UNL     1      -1.498   3.365   2.624  0.00  0.00    +0.023 A 
ATOM      3  C   UNL     1      -1.982   2.448   3.548  0.00  0.00    +0.025 A 
ATOM      4  C   UNL     1      -1.825   1.087   3.319  0.00  0.00    +0.023 A 
ATOM      5  C   UNL     1      -1.188   0.650   2.174  0.00  0.00    +0.006 A 
ATOM      6  C   UNL     1      -0.707   1.566   1.256  0.00  0.00    -0.039 A 
ENDROOT
BRANCH   6   7
ATOM      7  C   UNL     1      -0.013   1.086   0.008  0.00  0.00    +0.064 C 
ATOM      8  C   UNL     1       1.445   1.617  -0.003  0.00  0.00    +0.183 C 
ATOM      9  S   UNL     1       1.619   1.921  -1.812  0.00  0.00    -0.009 S 
ATOM     10  O   UNL     1       2.164   3.209  -2.065  0.00  0.00    -0.170 OA
ATOM     11  O   UNL     1       2.107   0.765  -2.480  0.00  0.00    -0.170 OA
ATOM     12  C   UNL     1      -0.112   2.033  -2.228  0.00  0.00    +0.130 C 
ATOM     13  C   UNL     1      -0.761   1.575  -1.190  0.00  0.00    +0.002 C 
ENDBRANCH   6   7
BRANCH   3  14
ATOM     14  N   UNL     1      -2.625   2.893   4.705  0.00  0.00    -0.358 N 
ATOM     15  H   UNL     1      -2.962   2.252   5.350  0.00  0.00    +0.142 HD
ATOM     16  H   UNL     1      -2.735   3.844   4.864  0.00  0.00    +0.142 HD
ENDBRANCH   3  14
TORSDOF 2
