REMARK  Name = ZINC20877188
REMARK  17 active torsions:
REMARK  status: ('A' for Active; 'I' for Inactive)
REMARK    1  A    between atoms: C_1  and  C_2
REMARK    2  A    between atoms: C_2  and  C_3
REMARK    3  A    between atoms: C_2  and  C_4
REMARK    4  A    between atoms: C_2  and  C_5
REMARK    5  A    between atoms: C_5  and  C_6
REMARK    6  A    between atoms: C_6  and  C_7
REMARK    7  A    between atoms: C_6  and  C_8
REMARK    8  A    between atoms: C_6  and  N_9
REMARK    9  A    between atoms: N_9  and  C_10
REMARK   10  A    between atoms: C_10  and  C_11
REMARK   11  A    between atoms: C_13  and  O_33
REMARK   12  A    between atoms: C_14  and  O_18
REMARK   13  A    between atoms: O_18  and  C_19
REMARK   14  A    between atoms: C_19  and  C_20
REMARK   15  A    between atoms: C_20  and  C_22
REMARK   16  A    between atoms: C_20  and  O_32
REMARK   17  A    between atoms: O_33  and  C_34
REMARK                            x       y       z     vdW  Elec       q    Type
REMARK                         _______ _______ _______ _____ _____    ______ ____
ROOT
ATOM      1  C   UNL     1      -7.623  -4.054  -5.184  0.00  0.00    -0.060 A 
ATOM      2  C   UNL     1      -7.884  -3.394  -3.997  0.00  0.00    +0.051 A 
ATOM      3  C   UNL     1      -7.238  -3.779  -2.833  0.00  0.00    +0.163 A 
ATOM      4  C   UNL     1      -6.318  -4.823  -2.864  0.00  0.00    +0.176 A 
ATOM      5  C   UNL     1      -6.061  -5.480  -4.057  0.00  0.00    +0.063 A 
ATOM      6  C   UNL     1      -6.713  -5.094  -5.215  0.00  0.00    +0.021 A 
ATOM      7 BR   UNL     1      -4.817  -6.904  -4.104  0.00  0.00    -0.046 Br
ENDROOT
BRANCH   3   8
ATOM      8  O   UNL     1      -7.498  -3.135  -1.664  0.00  0.00    -0.491 OA
ATOM      9  C   UNL     1      -8.453  -2.073  -1.707  0.00  0.00    +0.277 C 
ENDBRANCH   3   8
BRANCH   1  10
ATOM     10  C   UNL     1      -8.331  -3.637  -6.447  0.00  0.00    -0.046 C 
BRANCH  10  11
ATOM     11  N   UNL     1      -9.579  -4.399  -6.583  0.00  0.00    +0.385 N 
ATOM     12  H   UNL     1     -10.213  -4.197  -5.707  0.00  0.00    -0.085 HD
ATOM     13  H   UNL     1      -9.335  -5.471  -6.620  0.00  0.00    -0.085 HD
BRANCH  11  14
ATOM     14  C   UNL     1     -10.298  -4.018  -7.806  0.00  0.00    -0.073 C 
ATOM     15  C   UNL     1     -10.638  -2.527  -7.755  0.00  0.00    -0.010 C 
ATOM     16  C   UNL     1      -9.416  -4.299  -9.024  0.00  0.00    -0.010 C 
BRANCH  14  17
ATOM     17  C   UNL     1     -11.590  -4.832  -7.913  0.00  0.00    -0.007 C 
BRANCH  17  19
ATOM     18  C   UNL     1     -10.989  -6.425  -6.084  0.00  0.00    +0.010 C 
ATOM     19  C   UNL     1     -11.299  -6.296  -7.577  0.00  0.00    -0.039 C 
ATOM     20  C   UNL     1     -12.522  -7.150  -7.919  0.00  0.00    +0.010 C 
ATOM     21  C   UNL     1     -10.097  -6.777  -8.391  0.00  0.00    +0.010 C 
ENDBRANCH  17  19
ENDBRANCH  14  17
ENDBRANCH  11  14
ENDBRANCH  10  11
ENDBRANCH   1  10
BRANCH   4  22
ATOM     22  O   UNL     1      -5.678  -5.202  -1.726  0.00  0.00    -0.484 OA
BRANCH  22  23
ATOM     23  C   UNL     1      -4.436  -4.558  -1.435  0.00  0.00    +0.265 C 
BRANCH  23  24
ATOM     24  C   UNL     1      -3.870  -5.110  -0.125  0.00  0.00    +0.182 C 
BRANCH  24  25
ATOM     25  C   UNL     1      -2.504  -4.521   0.119  0.00  0.00    -0.012 A 
ATOM     26  C   UNL     1      -2.383  -3.291   0.739  0.00  0.00    +0.010 A 
ATOM     27  C   UNL     1      -1.133  -2.746   0.961  0.00  0.00    +0.050 A 
ATOM     28  C   UNL     1       0.005  -3.435   0.567  0.00  0.00    +0.162 A 
ATOM     29  C   UNL     1      -0.116  -4.672  -0.054  0.00  0.00    +0.162 A 
ATOM     30  C   UNL     1      -1.374  -5.212  -0.277  0.00  0.00    +0.055 A 
ATOM     31  O   UNL     1       0.987  -5.365  -0.448  0.00  0.00    -0.485 OA
ATOM     32  C   UNL     1       2.210  -4.626  -0.546  0.00  0.00    +0.270 C 
ATOM     33  C   UNL     1       2.355  -3.767   0.717  0.00  0.00    +0.270 C 
ATOM     34  O   UNL     1       1.230  -2.885   0.791  0.00  0.00    -0.485 OA
ENDBRANCH  24  25
BRANCH  24  35
ATOM     35  O   UNL     1      -4.739  -4.761   0.954  0.00  0.00    -0.384 OA
ATOM     36  H   UNL     1      -4.494  -5.074   1.980  0.00  0.00    +0.210 HD
ENDBRANCH  24  35
ENDBRANCH  23  24
ENDBRANCH  22  23
ENDBRANCH   4  22
TORSDOF 11
