REMARK  Name = ZINC22801585
REMARK  4 active torsions:
REMARK  status: ('A' for Active; 'I' for Inactive)
REMARK    1  A    between atoms: C_1  and  C_2
REMARK    2  A    between atoms: C_2  and  C_17
REMARK    3  A    between atoms: N_9  and  C_13
REMARK    4  A    between atoms: C_13  and  C_14
REMARK                            x       y       z     vdW  Elec       q    Type
REMARK                         _______ _______ _______ _____ _____    ______ ____
ROOT
ATOM      1  C   UNL     1       2.296   1.423  -1.234  0.00  0.00    +0.041 C 
ATOM      2  C   UNL     1       1.682   2.107  -0.010  0.00  0.00    +0.063 C 
ATOM      3  C   UNL     1       2.501   1.755   1.235  0.00  0.00    +0.023 C 
ATOM      4  C   UNL     1       2.436   0.243   1.468  0.00  0.00    -0.051 C 
ATOM      5  C   UNL     1       0.972  -0.184   1.596  0.00  0.00    +0.017 C 
ATOM      6  C   UNL     1       0.212   0.243   0.336  0.00  0.00    +0.159 C 
ATOM      7  O   UNL     1       0.338   1.656   0.163  0.00  0.00    -0.374 OA
ATOM      8  C   UNL     1       3.186  -0.108   2.754  0.00  0.00    +0.072 C 
ATOM      9  N   UNL     1       4.599   0.270   2.613  0.00  0.00    -0.297 NA
ATOM     10  C   UNL     1       5.218  -0.430   1.479  0.00  0.00    +0.066 C 
ATOM     11  C   UNL     1       4.468  -0.076   0.193  0.00  0.00    -0.066 C 
ATOM     12  N   UNL     1       3.054  -0.455   0.333  0.00  0.00    +0.385 N 
ATOM     13  C   UNL     1       1.690   3.623  -0.215  0.00  0.00    +0.041 C 
ATOM     14  H   UNL     1       2.994  -1.541   0.494  0.00  0.00    -0.085 HD
ATOM     15  H   UNL     1       2.523  -0.191  -0.593  0.00  0.00    -0.085 HD
ENDROOT
BRANCH   9  16
ATOM     16  C   UNL     1       5.339   0.015   3.856  0.00  0.00    +0.180 C 
BRANCH  16  17
ATOM     17  C   UNL     1       6.705   0.646   3.767  0.00  0.00    +0.225 C 
ATOM     18  O   UNL     1       6.986   1.352   2.821  0.00  0.00    -0.275 OA
ATOM     19  N   UNL     1       7.614   0.427   4.737  0.00  0.00    -0.328 N 
ATOM     20  H   UNL     1       8.610   0.888   4.672  0.00  0.00    +0.145 HD
ATOM     21  H   UNL     1       7.359  -0.213   5.595  0.00  0.00    +0.145 HD
ENDBRANCH  16  17
ENDBRANCH   9  16
TORSDOF 2
