REMARK  Name = ZINC54615393
REMARK  11 active torsions:
REMARK  status: ('A' for Active; 'I' for Inactive)
REMARK    1  A    between atoms: C_1  and  C_2
REMARK    2  A    between atoms: C_2  and  O_3
REMARK    3  A    between atoms: O_3  and  C_4
REMARK    4  A    between atoms: C_9  and  N_10
REMARK    5  A    between atoms: C_11  and  C_13
REMARK    6  A    between atoms: C_14  and  C_38
REMARK    7  A    between atoms: C_21  and  C_23
REMARK    8  A    between atoms: C_26  and  O_29
REMARK    9  A    between atoms: O_29  and  C_30
REMARK   10  A    between atoms: C_30  and  C_31
REMARK   11  A    between atoms: C_34  and  C_37
REMARK                            x       y       z     vdW  Elec       q    Type
REMARK                         _______ _______ _______ _____ _____    ______ ____
ROOT
ATOM      1  C   UNL     1      -6.153  -1.102   0.124  0.00  0.00    +0.060 C 
ATOM      2  C   UNL     1      -7.403  -1.580   0.202  0.00  0.00    +0.018 C 
ATOM      3  N   UNL     1      -8.502  -0.757   0.238  0.00  0.00    -0.286 N 
ATOM      4  C   UNL     1      -8.307   0.582  -0.065  0.00  0.00    +0.240 A 
ATOM      5  N   UNL     1      -9.159   1.534  -0.317  0.00  0.00    -0.092 NA
ATOM      6  N   UNL     1      -8.539   2.638  -0.557  0.00  0.00    -0.021 NA
ATOM      7  N   UNL     1      -7.259   2.464  -0.472  0.00  0.00    -0.042 NA
ATOM      8  N   UNL     1      -7.063   1.123  -0.147  0.00  0.00    -0.201 N 
ATOM      9  C   UNL     1      -5.835   0.370   0.088  0.00  0.00    +0.179 C 
ATOM     10  C   UNL     1      -7.609  -3.072   0.251  0.00  0.00    +0.061 C 
ATOM     11  H   UNL     1      -9.381  -1.099   0.467  0.00  0.00    +0.155 HD
ENDROOT
BRANCH   9  12
ATOM     12  C   UNL     1      -5.229   0.786   1.404  0.00  0.00    -0.018 A 
ATOM     13  C   UNL     1      -5.944   0.622   2.576  0.00  0.00    +0.009 A 
ATOM     14  C   UNL     1      -5.391   1.003   3.783  0.00  0.00    +0.046 A 
ATOM     15  C   UNL     1      -4.117   1.550   3.818  0.00  0.00    +0.121 A 
ATOM     16  C   UNL     1      -3.401   1.713   2.641  0.00  0.00    +0.046 A 
ATOM     17  C   UNL     1      -3.957   1.326   1.437  0.00  0.00    +0.009 A 
BRANCH  15  18
ATOM     18  O   UNL     1      -3.570   1.926   5.005  0.00  0.00    -0.487 OA
BRANCH  18  19
ATOM     19  C   UNL     1      -2.254   2.482   4.965  0.00  0.00    +0.264 C 
BRANCH  19  20
ATOM     20  C   UNL     1      -1.817   2.837   6.363  0.00  0.00    -0.010 A 
ATOM     21  C   UNL     1      -2.088   4.093   6.874  0.00  0.00    +0.007 A 
ATOM     22  C   UNL     1      -1.688   4.418   8.157  0.00  0.00    +0.004 A 
ATOM     23  C   UNL     1      -1.016   3.488   8.928  0.00  0.00    -0.050 A 
ATOM     24  C   UNL     1      -0.746   2.232   8.417  0.00  0.00    +0.004 A 
ATOM     25  C   UNL     1      -1.151   1.905   7.137  0.00  0.00    +0.007 A 
ATOM     26  C   UNL     1      -0.578   3.844  10.325  0.00  0.00    +0.044 C 
ENDBRANCH  19  20
ENDBRANCH  18  19
ENDBRANCH  15  18
ENDBRANCH   9  12
BRANCH   1  28
ATOM     27  N   UNL     1      -4.747  -2.723   1.184  0.00  0.00    -0.279 N 
ATOM     28  C   UNL     1      -5.080  -2.024   0.081  0.00  0.00    +0.248 C 
ATOM     29  O   UNL     1      -4.458  -2.185  -0.954  0.00  0.00    -0.270 OA
ATOM     30  H   UNL     1      -5.277  -2.636   1.991  0.00  0.00    +0.155 HD
BRANCH  27  36
ATOM     31  C   UNL     1      -2.854  -3.731   2.306  0.00  0.00    +0.142 A 
ATOM     32  C   UNL     1      -1.759  -4.580   2.282  0.00  0.00    +0.047 A 
ATOM     33  C   UNL     1      -1.441  -5.265   1.124  0.00  0.00    +0.004 A 
ATOM     34  C   UNL     1      -2.213  -5.107  -0.012  0.00  0.00    +0.002 A 
ATOM     35  C   UNL     1      -3.307  -4.262   0.004  0.00  0.00    +0.027 A 
ATOM     36  C   UNL     1      -3.636  -3.575   1.163  0.00  0.00    +0.076 A 
BRANCH  31  37
ATOM     37  O   UNL     1      -3.168  -3.056   3.444  0.00  0.00    -0.490 OA
BRANCH  37  39
ATOM     38  C   UNL     1      -2.829  -2.427   5.753  0.00  0.00    +0.048 C 
ATOM     39  C   UNL     1      -2.322  -3.264   4.576  0.00  0.00    +0.226 C 
ENDBRANCH  37  39
ENDBRANCH  31  37
ENDBRANCH  27  36
ENDBRANCH   1  28
TORSDOF 8
