REMARK  Name = ZINC65385731
REMARK  4 active torsions:
REMARK  status: ('A' for Active; 'I' for Inactive)
REMARK    1  A    between atoms: C_1  and  C_2
REMARK    2  A    between atoms: C_2  and  C_3
REMARK    3  A    between atoms: C_5  and  N_14
REMARK    4  A    between atoms: N_17  and  C_20
REMARK                            x       y       z     vdW  Elec       q    Type
REMARK                         _______ _______ _______ _____ _____    ______ ____
ROOT
ATOM      1  N   UNL     1      -4.183  -1.348   2.301  0.00  0.00    -0.312 N 
ATOM      2  C   UNL     1      -5.527  -1.941   2.275  0.00  0.00    +0.125 C 
ATOM      3  C   UNL     1      -5.552  -3.140   3.232  0.00  0.00    +0.125 C 
ATOM      4  N   UNL     1      -4.987  -2.722   4.523  0.00  0.00    -0.312 N 
ATOM      5  C   UNL     1      -3.642  -2.129   4.548  0.00  0.00    +0.125 C 
ATOM      6  C   UNL     1      -3.615  -0.936   3.592  0.00  0.00    +0.125 C 
ENDROOT
BRANCH   1   9
ATOM      7  C   UNL     1      -1.599  -0.298  -0.071  0.00  0.00    +0.022 A 
ATOM      8  C   UNL     1      -2.286  -0.432   1.120  0.00  0.00    +0.065 A 
ATOM      9  C   UNL     1      -3.461  -1.186   1.129  0.00  0.00    +0.127 A 
ATOM     10  N   UNL     1      -3.878  -1.746  -0.002  0.00  0.00    -0.201 NA
ATOM     11  C   UNL     1      -3.190  -1.593  -1.123  0.00  0.00    +0.197 A 
ATOM     12  N   UNL     1      -2.074  -0.879  -1.163  0.00  0.00    -0.331 N 
ATOM     13  N   UNL     1      -3.651  -2.189  -2.284  0.00  0.00    -0.301 N 
ATOM     14  C   UNL     1      -2.999  -2.118  -3.601  0.00  0.00    +0.108 C 
ATOM     15  C   UNL     1      -3.882  -2.906  -4.591  0.00  0.00    +0.020 C 
ATOM     16  C   UNL     1      -5.271  -2.901  -3.900  0.00  0.00    +0.020 C 
ATOM     17  C   UNL     1      -4.872  -3.006  -2.405  0.00  0.00    +0.108 C 
ATOM     18  H   UNL     1      -1.597  -0.784  -2.002  0.00  0.00    +0.168 HD
BRANCH   7  20
ATOM     19  C   UNL     1      -0.666   1.986  -0.324  0.00  0.00    +0.010 C 
ATOM     20  C   UNL     1      -0.326   0.507  -0.129  0.00  0.00    +0.050 C 
ENDBRANCH   7  20
ENDBRANCH   1   9
BRANCH   4  21
ATOM     21  C   UNL     1      -5.705  -2.884   5.690  0.00  0.00    +0.130 A 
ATOM     22  C   UNL     1      -6.594  -3.941   5.820  0.00  0.00    +0.113 A 
ATOM     23  C   UNL     1      -7.307  -4.077   7.015  0.00  0.00    +0.254 A 
ATOM     24  O   UNL     1      -8.097  -4.996   7.166  0.00  0.00    -0.268 OA
ATOM     25  N   UNL     1      -7.106  -3.177   8.000  0.00  0.00    -0.295 N 
ATOM     26  H   UNL     1      -7.591  -3.257   8.836  0.00  0.00    +0.172 HD
ATOM     27  C   UNL     1      -6.222  -2.157   7.823  0.00  0.00    +0.195 A 
ATOM     28  N   UNL     1      -5.544  -2.024   6.703  0.00  0.00    -0.201 NA
ATOM     29  N   UNL     1      -6.032  -1.252   8.833  0.00  0.00    -0.329 N 
ATOM     30  H   UNL     1      -6.524  -1.342   9.664  0.00  0.00    +0.145 HD
ATOM     31  H   UNL     1      -5.404  -0.521   8.718  0.00  0.00    +0.145 HD
ENDBRANCH   4  21
TORSDOF 3
