REMARK  Name = ZINC00542040
REMARK  3 active torsions:
REMARK  status: ('A' for Active; 'I' for Inactive)
REMARK    1  A    between atoms: C_3  and  N_9
REMARK    2  A    between atoms: C_10  and  C_12
REMARK    3  A    between atoms: C_12  and  C_13
REMARK                            x       y       z     vdW  Elec       q    Type
REMARK                         _______ _______ _______ _____ _____    ______ ____
ROOT
ATOM      1  N   UNL     1      -1.473   4.148   2.227  0.00  0.00    -0.284 N 
ATOM      2  C   UNL     1      -0.874   3.490   1.215  0.00  0.00    +0.216 C 
ATOM      3  O   UNL     1      -0.431   4.107   0.269  0.00  0.00    -0.276 OA
ATOM      4  H   UNL     1      -1.885   3.651   2.952  0.00  0.00    +0.155 HD
ENDROOT
BRANCH   1   7
ATOM      5  C   UNL     1      -1.645   7.627   1.047  0.00  0.00    +0.003 A 
ATOM      6  C   UNL     1      -1.611   6.245   1.038  0.00  0.00    +0.025 A 
ATOM      7  C   UNL     1      -1.502   5.547   2.233  0.00  0.00    +0.053 A 
ATOM      8  C   UNL     1      -1.415   6.240   3.434  0.00  0.00    +0.080 A 
ATOM      9  C   UNL     1      -1.443   7.623   3.436  0.00  0.00    +0.061 A 
ATOM     10  C   UNL     1      -1.558   8.315   2.242  0.00  0.00    +0.021 A 
ATOM     11 CL   UNL     1      -1.335   8.492   4.935  0.00  0.00    -0.082 Cl
ATOM     12 CL   UNL     1      -1.270   5.372   4.931  0.00  0.00    -0.080 Cl
ENDBRANCH   1   7
BRANCH   2  13
ATOM     13  C   UNL     1      -0.754   1.988   1.258  0.00  0.00    +0.089 C 
BRANCH  13  14
ATOM     14  C   UNL     1      -0.039   1.497  -0.002  0.00  0.00    +0.025 C 
ATOM     15  C   UNL     1      -0.028  -0.005  -0.016  0.00  0.00    +0.199 C 
ATOM     16  O   UNL     1      -1.038  -0.596   0.304  0.00  0.00    -0.278 OA
ATOM     17  N   UNL     1       1.047  -0.718  -0.366  0.00  0.00    -0.318 N 
ATOM     18  C   UNL     1       2.321  -0.105  -0.733  0.00  0.00    +0.085 C 
ATOM     19  C   UNL     1       2.110   1.368  -1.089  0.00  0.00    -0.063 C 
ATOM     20  H   UNL     1       0.978  -1.685  -0.378  0.00  0.00    +0.149 HD
ATOM     21  N   UNL     1       1.340   2.012  -0.008  0.00  0.00    +0.388 N 
ATOM     22  H   UNL     1       1.784   1.808   0.895  0.00  0.00    -0.085 HD
ATOM     23  H   UNL     1       1.324   3.027  -0.160  0.00  0.00    -0.085 HD
ENDBRANCH  13  14
ENDBRANCH   2  13
TORSDOF 3
