REMARK  Name = ZINC35653151
REMARK  15 active torsions:
REMARK  status: ('A' for Active; 'I' for Inactive)
REMARK    1  A    between atoms: C_1  and  C_2
REMARK    2  A    between atoms: C_2  and  O_4
REMARK    3  A    between atoms: O_4  and  C_5
REMARK    4  A    between atoms: C_5  and  C_6
REMARK    5  A    between atoms: C_8  and  O_34
REMARK    6  A    between atoms: C_10  and  O_33
REMARK    7  A    between atoms: C_12  and  O_32
REMARK    8  A    between atoms: C_14  and  O_17
REMARK    9  A    between atoms: O_17  and  C_18
REMARK   10  A    between atoms: C_18  and  C_30
REMARK   11  A    between atoms: C_19  and  O_29
REMARK   12  A    between atoms: C_21  and  O_28
REMARK   13  A    between atoms: C_23  and  C_26
REMARK   14  A    between atoms: C_26  and  O_27
REMARK   15  A    between atoms: C_30  and  O_31
REMARK                            x       y       z     vdW  Elec       q    Type
REMARK                         _______ _______ _______ _____ _____    ______ ____
ROOT
ATOM      1  C   UNL     1       0.283  -2.625  -2.329  0.00  0.00    +0.190 C 
ATOM      2  C   UNL     1       0.333  -4.151  -2.221  0.00  0.00    +0.178 C 
ATOM      3  C   UNL     1       0.289  -4.756  -3.628  0.00  0.00    +0.179 C 
ATOM      4  C   UNL     1       1.452  -4.193  -4.450  0.00  0.00    +0.201 C 
ATOM      5  C   UNL     1       1.359  -2.666  -4.472  0.00  0.00    +0.285 C 
ATOM      6  O   UNL     1       1.374  -2.169  -3.132  0.00  0.00    -0.339 OA
ENDROOT
BRANCH   4   7
ATOM      7  O   UNL     1       2.692  -4.589  -3.859  0.00  0.00    -0.384 OA
ATOM      8  H   UNL     1       3.473  -4.267  -4.329  0.00  0.00    +0.210 HD
ENDBRANCH   4   7
BRANCH   3   9
ATOM      9  O   UNL     1       0.408  -6.178  -3.540  0.00  0.00    -0.386 OA
ATOM     10  H   UNL     1       0.387  -6.628  -4.396  0.00  0.00    +0.210 HD
ENDBRANCH   3   9
BRANCH   2  11
ATOM     11  O   UNL     1      -0.788  -4.613  -1.466  0.00  0.00    -0.386 OA
ATOM     12  H   UNL     1      -0.820  -5.574  -1.357  0.00  0.00    +0.210 HD
ENDBRANCH   2  11
BRANCH   1  13
ATOM     13  C   UNL     1       0.387  -2.011  -0.932  0.00  0.00    +0.266 C 
BRANCH  13  14
ATOM     14  O   UNL     1       0.236  -0.593  -1.022  0.00  0.00    -0.462 OA
BRANCH  14  16
ATOM     15  C   UNL     1       0.152   1.601   0.107  0.00  0.00    +0.136 C 
ATOM     16  C   UNL     1       0.302   0.102   0.124  0.00  0.00    +0.304 C 
ATOM     17  O   UNL     1       0.483  -0.475   1.171  0.00  0.00    -0.251 OA
ENDBRANCH  14  16
ENDBRANCH  13  14
ENDBRANCH   1  13
BRANCH   5  18
ATOM     18  O   UNL     1       2.472  -2.130  -5.191  0.00  0.00    -0.313 OA
BRANCH  18  19
ATOM     19  C   UNL     1       2.239  -0.832  -5.741  0.00  0.00    +0.225 C 
ATOM     20  C   UNL     1       3.427  -0.422  -6.638  0.00  0.00    +0.207 C 
ATOM     21  C   UNL     1       2.904  -0.771  -8.058  0.00  0.00    +0.179 C 
ATOM     22  C   UNL     1       1.395  -0.455  -7.901  0.00  0.00    +0.178 C 
ATOM     23  O   UNL     1       1.065  -0.855  -6.561  0.00  0.00    -0.336 OA
BRANCH  21  24
ATOM     24  O   UNL     1       3.113  -2.152  -8.359  0.00  0.00    -0.386 OA
ATOM     25  H   UNL     1       2.802  -2.415  -9.236  0.00  0.00    +0.210 HD
ENDBRANCH  21  24
BRANCH  20  26
ATOM     26  O   UNL     1       3.695   0.977  -6.519  0.00  0.00    -0.384 OA
ATOM     27  H   UNL     1       4.433   1.284  -7.063  0.00  0.00    +0.210 HD
ENDBRANCH  20  26
BRANCH  22  28
ATOM     28  C   UNL     1       0.577  -1.258  -8.914  0.00  0.00    +0.190 C 
BRANCH  28  29
ATOM     29  O   UNL     1      -0.796  -0.868  -8.833  0.00  0.00    -0.392 OA
ATOM     30  H   UNL     1      -1.375  -1.338  -9.449  0.00  0.00    +0.210 HD
ENDBRANCH  28  29
ENDBRANCH  22  28
BRANCH  19  31
ATOM     31  C   UNL     1       2.063   0.185  -4.612  0.00  0.00    +0.223 C 
BRANCH  31  32
ATOM     32  O   UNL     1       0.861  -0.102  -3.894  0.00  0.00    -0.390 OA
ATOM     33  H   UNL     1       0.645   0.548  -3.212  0.00  0.00    +0.210 HD
ENDBRANCH  31  32
ENDBRANCH  19  31
ENDBRANCH  18  19
ENDBRANCH   5  18
TORSDOF 14
