REMARK  Name = ZINC08770339
REMARK  9 active torsions:
REMARK  status: ('A' for Active; 'I' for Inactive)
REMARK    1  A    between atoms: C_1  and  C_2
REMARK    2  A    between atoms: C_2  and  C_38
REMARK    3  A    between atoms: C_7  and  C_37
REMARK    4  A    between atoms: C_10  and  N_11
REMARK    5  A    between atoms: C_10  and  N_72
REMARK    6  A    between atoms: N_19  and  N_20
REMARK    7  A    between atoms: C_21  and  C_23
REMARK    8  A    between atoms: C_23  and  O_24
REMARK    9  A    between atoms: O_24  and  C_25
REMARK                            x       y       z     vdW  Elec       q    Type
REMARK                         _______ _______ _______ _____ _____    ______ ____
ROOT
ATOM      1  N   UNL     1       0.002  -0.004   0.002  0.00  0.00    -0.282 N 
ATOM      2  C   UNL     1       1.303  -0.495  -0.013  0.00  0.00    +0.044 A 
ATOM      3  C   UNL     1       1.800  -1.794  -0.025  0.00  0.00    +0.024 A 
ATOM      4  C   UNL     1       3.163  -2.014  -0.038  0.00  0.00    +0.002 A 
ATOM      5  C   UNL     1       4.049  -0.950  -0.041  0.00  0.00    +0.001 A 
ATOM      6  C   UNL     1       3.574   0.346  -0.030  0.00  0.00    +0.012 A 
ATOM      7  C   UNL     1       2.203   0.578  -0.016  0.00  0.00    +0.028 A 
ATOM      8  C   UNL     1       1.383   1.812  -0.001  0.00  0.00    +0.153 C 
ATOM      9  N   UNL     1       1.807   3.052   0.001  0.00  0.00    -0.174 NA
ATOM     10  C   UNL     1      -0.016   1.340   0.009  0.00  0.00    +0.270 C 
ATOM     11  O   UNL     1      -1.009   2.043   0.018  0.00  0.00    -0.268 OA
ENDROOT
BRANCH   9  12
ATOM     12  N   UNL     1       0.886   4.108   0.016  0.00  0.00    -0.203 N 
ATOM     13  C   UNL     1       1.322   5.383   0.019  0.00  0.00    +0.270 C 
ATOM     14  O   UNL     1       2.512   5.617   0.008  0.00  0.00    -0.270 OA
ATOM     15  H   UNL     1      -0.066   3.920   0.025  0.00  0.00    +0.177 HD
BRANCH  13  16
ATOM     16  C   UNL     1       0.331   6.518   0.035  0.00  0.00    +0.326 C 
BRANCH  16  17
ATOM     17  O   UNL     1       1.032   7.763   0.035  0.00  0.00    -0.482 OA
BRANCH  17  18
ATOM     18  C   UNL     1       0.281   8.894   0.049  0.00  0.00    +0.129 A 
ATOM     19  C   UNL     1      -1.083   8.814   0.062  0.00  0.00    +0.046 A 
ATOM     20  C   UNL     1      -1.867   9.964   0.076  0.00  0.00    +0.004 A 
ATOM     21  C   UNL     1      -1.300  11.201   0.077  0.00  0.00    +0.009 A 
ATOM     22  C   UNL     1       0.100  11.327   0.064  0.00  0.00    -0.014 A 
ATOM     23  C   UNL     1       0.903  10.159   0.055  0.00  0.00    +0.024 A 
ATOM     24  C   UNL     1       2.301  10.285   0.035  0.00  0.00    +0.012 A 
ATOM     25  C   UNL     1       2.867  11.523   0.037  0.00  0.00    +0.001 A 
ATOM     26  C   UNL     1       2.078  12.672   0.051  0.00  0.00    +0.001 A 
ATOM     27  C   UNL     1       0.719  12.588   0.064  0.00  0.00    +0.008 A 
ENDBRANCH  17  18
ENDBRANCH  16  17
ENDBRANCH  13  16
ENDBRANCH   9  12
BRANCH   1  28
ATOM     28  C   UNL     1      -1.197  -0.846   0.009  0.00  0.00    +0.039 C 
BRANCH  28  39
ATOM     29  C   UNL     1      -2.373  -4.115   0.502  0.00  0.00    +0.011 C 
ATOM     30  C   UNL     1      -3.243  -3.723  -0.709  0.00  0.00    -0.036 C 
ATOM     31  C   UNL     1      -3.654  -2.273  -0.573  0.00  0.00    -0.009 C 
ATOM     32  C   UNL     1      -3.052  -1.296  -1.568  0.00  0.00    -0.065 C 
ATOM     33  C   UNL     1      -3.123  -1.962  -2.971  0.00  0.00    -0.011 C 
ATOM     34  C   UNL     1      -1.979  -3.002  -2.818  0.00  0.00    -0.048 C 
ATOM     35  C   UNL     1      -2.535  -4.150  -1.978  0.00  0.00    +0.011 C 
ATOM     36  C   UNL     1      -0.916  -2.256  -1.977  0.00  0.00    -0.070 C 
ATOM     37  C   UNL     1      -1.428  -3.469  -4.173  0.00  0.00    +0.009 C 
ATOM     38  C   UNL     1      -4.534  -4.576  -0.599  0.00  0.00    +0.011 C 
ATOM     39  N   UNL     1      -1.595  -1.086  -1.421  0.00  0.00    +0.393 N 
ATOM     40  H   UNL     1      -1.326  -0.259  -1.967  0.00  0.00    -0.079 HD
ENDBRANCH  28  39
ENDBRANCH   1  28
TORSDOF 6
