REMARK  Name = ZINC20922670
REMARK  9 active torsions:
REMARK  status: ('A' for Active; 'I' for Inactive)
REMARK    1  A    between atoms: C_6  and  N_7
REMARK    2  A    between atoms: N_7  and  S_8
REMARK    3  A    between atoms: S_8  and  C_11
REMARK    4  A    between atoms: C_14  and  N_17
REMARK    5  A    between atoms: C_18  and  C_20
REMARK    6  A    between atoms: C_20  and  S_21
REMARK    7  A    between atoms: S_21  and  C_22
REMARK    8  A    between atoms: N_26  and  N_27
REMARK    9  A    between atoms: N_28  and  N_29
REMARK                            x       y       z     vdW  Elec       q    Type
REMARK                         _______ _______ _______ _____ _____    ______ ____
ROOT
ATOM      1  N   UNL     1       7.730  -1.457   1.043  0.00  0.00    -0.285 N 
ATOM      2  C   UNL     1       8.570  -2.440   1.422  0.00  0.00    +0.227 C 
ATOM      3  O   UNL     1       8.260  -3.601   1.256  0.00  0.00    -0.275 OA
ATOM      4  H   UNL     1       8.045  -0.406   1.115  0.00  0.00    +0.155 HD
ENDROOT
BRANCH   1   8
ATOM      5  C   UNL     1       3.937  -2.398  -0.401  0.00  0.00    +0.109 A 
ATOM      6  C   UNL     1       4.613  -1.301  -0.902  0.00  0.00    +0.030 A 
ATOM      7  C   UNL     1       5.869  -0.984  -0.422  0.00  0.00    +0.025 A 
ATOM      8  C   UNL     1       6.456  -1.773   0.558  0.00  0.00    +0.034 A 
ATOM      9  C   UNL     1       5.777  -2.877   1.055  0.00  0.00    +0.025 A 
ATOM     10  C   UNL     1       4.519  -3.187   0.575  0.00  0.00    +0.030 A 
BRANCH   5  11
ATOM     11  S   UNL     1       2.333  -2.797  -1.011  0.00  0.00    +0.072 S 
ATOM     12  O   UNL     1       2.092  -4.154  -0.665  0.00  0.00    -0.150 OA
ATOM     13  O   UNL     1       2.282  -2.332  -2.353  0.00  0.00    -0.150 OA
BRANCH  11  14
ATOM     14  N   UNL     1       1.244  -1.889  -0.155  0.00  0.00    -0.216 N 
ATOM     15  H   UNL     1       0.608  -1.158  -0.676  0.00  0.00    +0.174 HD
BRANCH  14  21
ATOM     16  C   UNL     1       1.088  -0.940   2.059  0.00  0.00    +0.027 A 
ATOM     17  C   UNL     1       0.979  -1.104   3.426  0.00  0.00    +0.040 A 
ATOM     18  C   UNL     1       0.914  -2.376   3.969  0.00  0.00    +0.124 A 
ATOM     19  C   UNL     1       0.958  -3.486   3.143  0.00  0.00    +0.040 A 
ATOM     20  C   UNL     1       1.067  -3.327   1.776  0.00  0.00    +0.027 A 
ATOM     21  C   UNL     1       1.133  -2.052   1.229  0.00  0.00    +0.048 A 
ATOM     22  F   UNL     1       0.807  -2.534   5.307  0.00  0.00    -0.205 F 
ENDBRANCH  14  21
ENDBRANCH  11  14
ENDBRANCH   5  11
ENDBRANCH   1   8
BRANCH   2  23
ATOM     23  C   UNL     1       9.895  -2.097   2.053  0.00  0.00    +0.173 C 
BRANCH  23  24
ATOM     24  S   UNL     1      10.790  -3.625   2.449  0.00  0.00    -0.075 S 
BRANCH  24  25
ATOM     25  C   UNL     1      12.296  -3.063   3.169  0.00  0.00    +0.210 A 
ATOM     26  N   UNL     1      12.645  -1.812   3.349  0.00  0.00    -0.119 NA
ATOM     27  N   UNL     1      13.909  -1.797   3.951  0.00  0.00    -0.110 NA
ATOM     28  C   UNL     1      14.296  -3.039   4.112  0.00  0.00    +0.248 A 
ATOM     29  N   UNL     1      13.309  -3.854   3.633  0.00  0.00    -0.211 N 
ATOM     30  N   UNL     1      15.497  -3.454   4.672  0.00  0.00    -0.251 N 
ATOM     31  H   UNL     1      15.722  -4.527   4.759  0.00  0.00    +0.169 HD
BRANCH  29  32
ATOM     32  N   UNL     1      13.332  -5.220   3.621  0.00  0.00    -0.294 N 
ATOM     33  H   UNL     1      14.202  -5.759   4.022  0.00  0.00    +0.163 HD
ATOM     34  H   UNL     1      12.479  -5.780   3.209  0.00  0.00    +0.163 HD
ENDBRANCH  29  32
BRANCH  30  35
ATOM     35  N   UNL     1      16.401  -2.529   5.113  0.00  0.00    -0.254 NA
ATOM     36  H   UNL     1      17.283  -3.044   5.521  0.00  0.00    +0.140 HD
ATOM     37  H   UNL     1      16.706  -1.886   4.275  0.00  0.00    +0.140 HD
ENDBRANCH  30  35
ENDBRANCH  24  25
ENDBRANCH  23  24
ENDBRANCH   2  23
TORSDOF 9
