REMARK  Name = ZINC15015506
REMARK  10 active torsions:
REMARK  status: ('A' for Active; 'I' for Inactive)
REMARK    1  A    between atoms: C_1  and  C_2
REMARK    2  A    between atoms: N_12  and  N_13
REMARK    3  A    between atoms: C_14  and  C_16
REMARK    4  A    between atoms: C_16  and  N_28
REMARK    5  A    between atoms: C_17  and  C_18
REMARK    6  A    between atoms: C_20  and  O_26
REMARK    7  A    between atoms: C_23  and  O_24
REMARK    8  A    between atoms: O_24  and  C_25
REMARK    9  A    between atoms: O_26  and  C_27
REMARK   10  A    between atoms: C_29  and  C_31
REMARK                            x       y       z     vdW  Elec       q    Type
REMARK                         _______ _______ _______ _____ _____    ______ ____
ROOT
ATOM      1  C   UNL     1       0.029  -5.651   6.505  0.00  0.00    +0.098 C 
ATOM      2  C   UNL     1       0.090  -6.994   6.681  0.00  0.00    +0.040 C 
ENDROOT
BRANCH   2   3
ATOM      3  C   UNL     1       0.277  -7.550   8.027  0.00  0.00    +0.022 A 
ATOM      4  C   UNL     1      -0.267  -6.899   9.140  0.00  0.00    +0.057 A 
ATOM      5  C   UNL     1      -0.086  -7.429  10.403  0.00  0.00    +0.121 A 
ATOM      6  C   UNL     1       0.632  -8.606  10.571  0.00  0.00    +0.049 A 
ATOM      7  C   UNL     1       1.173  -9.257   9.479  0.00  0.00    +0.050 A 
ATOM      8  C   UNL     1       0.997  -8.742   8.205  0.00  0.00    +0.127 A 
BRANCH   8   9
ATOM      9  O   UNL     1       1.524  -9.386   7.131  0.00  0.00    -0.495 OA
ATOM     10  C   UNL     1       2.245 -10.593   7.388  0.00  0.00    +0.277 C 
ENDBRANCH   8   9
BRANCH   5  11
ATOM     11  O   UNL     1      -0.614  -6.797  11.485  0.00  0.00    -0.495 OA
ATOM     12  C   UNL     1      -0.488  -7.456  12.747  0.00  0.00    +0.277 C 
ENDBRANCH   5  11
ENDBRANCH   2   3
BRANCH   1  14
ATOM     13  N   UNL     1      -0.137  -3.757   4.978  0.00  0.00    -0.201 N 
ATOM     14  C   UNL     1      -0.075  -5.092   5.153  0.00  0.00    +0.277 C 
ATOM     15  O   UNL     1      -0.107  -5.834   4.189  0.00  0.00    -0.267 OA
ATOM     16  H   UNL     1      -0.112  -3.166   5.747  0.00  0.00    +0.178 HD
BRANCH  13  28
ATOM     17  C   UNL     1      -0.569   2.584   1.881  0.00  0.00    +0.045 C 
ATOM     18  C   UNL     1      -0.533   1.115   1.547  0.00  0.00    -0.029 A 
ATOM     19  C   UNL     1      -0.599   0.706   0.230  0.00  0.00    +0.006 A 
ATOM     20  C   UNL     1      -0.568  -0.640  -0.092  0.00  0.00    +0.021 A 
ATOM     21  C   UNL     1      -0.469  -1.589   0.907  0.00  0.00    +0.052 A 
ATOM     22  C   UNL     1      -0.402  -1.186   2.237  0.00  0.00    +0.047 A 
ATOM     23  C   UNL     1      -0.428   0.175   2.567  0.00  0.00    +0.047 A 
ATOM     24  N   UNL     1      -0.343   0.315   3.947  0.00  0.00    -0.279 N 
ATOM     25  C   UNL     1      -0.256  -0.879   4.558  0.00  0.00    +0.269 C 
ATOM     26  O   UNL     1      -0.170  -1.065   5.757  0.00  0.00    -0.268 OA
ATOM     27  C   UNL     1      -0.296  -1.925   3.517  0.00  0.00    +0.154 C 
ATOM     28  N   UNL     1      -0.236  -3.224   3.687  0.00  0.00    -0.174 NA
ATOM     29 CL   UNL     1      -0.430  -3.278   0.505  0.00  0.00    -0.083 Cl
ATOM     30  H   UNL     1      -0.345   1.167   4.411  0.00  0.00    +0.155 HD
ENDBRANCH  13  28
ENDBRANCH   1  14
BRANCH   1  31
ATOM     31  N   UNL     1       0.065  -4.798   7.613  0.00  0.00    -0.277 N 
ATOM     32  C   UNL     1      -0.954  -3.946   7.842  0.00  0.00    +0.248 C 
ATOM     33  O   UNL     1      -1.951  -3.991   7.147  0.00  0.00    -0.270 OA
ATOM     34  H   UNL     1       0.824  -4.819   8.217  0.00  0.00    +0.155 HD
BRANCH  32  35
ATOM     35  C   UNL     1      -0.861  -2.958   8.937  0.00  0.00    +0.037 A 
ATOM     36  C   UNL     1       0.325  -2.825   9.662  0.00  0.00    +0.013 A 
ATOM     37  C   UNL     1       0.406  -1.901  10.683  0.00  0.00    +0.001 A 
ATOM     38  C   UNL     1      -0.685  -1.107  10.989  0.00  0.00    +0.000 A 
ATOM     39  C   UNL     1      -1.863  -1.234  10.275  0.00  0.00    +0.001 A 
ATOM     40  C   UNL     1      -1.955  -2.150   9.247  0.00  0.00    +0.013 A 
ENDBRANCH  32  35
ENDBRANCH   1  31
TORSDOF 7
