REMARK  Name = ZINC66449991
REMARK  6 active torsions:
REMARK  status: ('A' for Active; 'I' for Inactive)
REMARK    1  A    between atoms: C_4  and  N_7
REMARK    2  A    between atoms: N_7  and  C_8
REMARK    3  A    between atoms: C_13  and  C_14
REMARK    4  A    between atoms: N_16  and  C_17
REMARK    5  A    between atoms: N_22  and  C_24
REMARK    6  A    between atoms: C_24  and  C_25
REMARK                            x       y       z     vdW  Elec       q    Type
REMARK                         _______ _______ _______ _____ _____    ______ ____
ROOT
ATOM      1  C   UNL     1       6.032  -2.157   0.004  0.00  0.00    +0.246 C 
ATOM      2  O   UNL     1       6.108  -0.950   0.132  0.00  0.00    -0.270 OA
ATOM      3  N   UNL     1       7.155  -2.897  -0.080  0.00  0.00    -0.310 N 
ATOM      4  H   UNL     1       7.095  -3.860  -0.181  0.00  0.00    +0.149 HD
ENDROOT
BRANCH   3   5
ATOM      5  C   UNL     1       8.467  -2.248  -0.017  0.00  0.00    +0.057 C 
ATOM      6  C   UNL     1       8.877  -2.063   1.447  0.00  0.00    +0.018 C 
ATOM      7  C   UNL     1      10.282  -1.457   1.501  0.00  0.00    -0.017 C 
ATOM      8  C   UNL     1      11.252  -2.361   0.737  0.00  0.00    -0.078 C 
ATOM      9  N   UNL     1      10.820  -2.476  -0.661  0.00  0.00    +0.387 N 
ATOM     10  C   UNL     1       9.504  -3.123  -0.726  0.00  0.00    -0.056 C 
ATOM     11  H   UNL     1      10.762  -1.556  -1.071  0.00  0.00    -0.081 HD
BRANCH   9  12
ATOM     12  C   UNL     1      11.796  -3.281  -1.408  0.00  0.00    +0.018 C 
BRANCH  12  13
ATOM     13  C   UNL     1      13.115  -2.554  -1.456  0.00  0.00    +0.194 C 
ATOM     14  O   UNL     1      13.231  -1.472  -0.921  0.00  0.00    -0.278 OA
ATOM     15  N   UNL     1      14.166  -3.106  -2.094  0.00  0.00    -0.331 N 
ATOM     16  H   UNL     1      14.074  -3.971  -2.522  0.00  0.00    +0.145 HD
ATOM     17  H   UNL     1      15.015  -2.638  -2.125  0.00  0.00    +0.145 HD
ENDBRANCH  12  13
ENDBRANCH   9  12
ENDBRANCH   3   5
BRANCH   1  23
ATOM     18  C   UNL     1       3.542  -2.035  -0.103  0.00  0.00    +0.044 A 
ATOM     19  C   UNL     1       2.304  -2.663  -0.168  0.00  0.00    +0.024 A 
ATOM     20  C   UNL     1       2.228  -4.040  -0.183  0.00  0.00    +0.002 A 
ATOM     21  C   UNL     1       3.381  -4.808  -0.133  0.00  0.00    +0.001 A 
ATOM     22  C   UNL     1       4.617  -4.204  -0.068  0.00  0.00    +0.015 A 
ATOM     23  C   UNL     1       4.712  -2.810  -0.059  0.00  0.00    +0.058 A 
BRANCH  18  24
ATOM     24  N   UNL     1       3.622  -0.648  -0.088  0.00  0.00    -0.314 N 
ATOM     25  H   UNL     1       3.429  -0.160   0.728  0.00  0.00    +0.152 HD
BRANCH  24  29
ATOM     26  C   UNL     1       4.693   1.414  -3.544  0.00  0.00    +0.000 A 
ATOM     27  C   UNL     1       4.333   2.113  -2.406  0.00  0.00    +0.002 A 
ATOM     28  C   UNL     1       3.977   1.433  -1.259  0.00  0.00    +0.023 A 
ATOM     29  C   UNL     1       3.981   0.043  -1.248  0.00  0.00    +0.031 A 
ATOM     30  C   UNL     1       4.343  -0.656  -2.392  0.00  0.00    +0.023 A 
ATOM     31  C   UNL     1       4.698   0.031  -3.536  0.00  0.00    +0.002 A 
ENDBRANCH  24  29
ENDBRANCH  18  24
ENDBRANCH   1  23
TORSDOF 6
