REMARK  Name = ZINC09683253
REMARK  10 active torsions:
REMARK  status: ('A' for Active; 'I' for Inactive)
REMARK    1  A    between atoms: C_1  and  C_2
REMARK    2  A    between atoms: C_3  and  C_16
REMARK    3  A    between atoms: C_4  and  C_15
REMARK    4  A    between atoms: N_5  and  C_7
REMARK    5  A    between atoms: C_16  and  N_64
REMARK    6  A    between atoms: C_17  and  N_64
REMARK    7  A    between atoms: C_18  and  C_19
REMARK    8  A    between atoms: C_18  and  N_64
REMARK    9  A    between atoms: N_21  and  C_22
REMARK   10  A    between atoms: C_23  and  C_31
REMARK                            x       y       z     vdW  Elec       q    Type
REMARK                         _______ _______ _______ _____ _____    ______ ____
ROOT
ATOM      1  C   UNL     1       4.867   8.367  -0.413  0.00  0.00    +0.019 C 
ENDROOT
BRANCH   1   2
ATOM      2  C   UNL     1       6.225   8.443  -1.062  0.00  0.00    +0.201 C 
ATOM      3  O   UNL     1       6.702   7.459  -1.587  0.00  0.00    -0.278 OA
ATOM      4  N   UNL     1       6.910   9.604  -1.058  0.00  0.00    -0.281 N 
ATOM      5  H   UNL     1       6.528  10.390  -0.637  0.00  0.00    +0.155 HD
BRANCH   4   6
ATOM      6  C   UNL     1       8.159   9.674  -1.655  0.00  0.00    +0.084 A 
ATOM      7  C   UNL     1       9.008  10.767  -1.752  0.00  0.00    +0.068 A 
ATOM      8  C   UNL     1      10.276  10.574  -2.436  0.00  0.00    -0.023 A 
ATOM      9  C   UNL     1      10.490   9.328  -2.909  0.00  0.00    -0.004 A 
ATOM     10  S   UNL     1       9.043   8.416  -2.454  0.00  0.00    -0.077 S 
ATOM     11  C   UNL     1      11.696   8.838  -3.651  0.00  0.00    +0.043 C 
ATOM     12  C   UNL     1      12.500  10.057  -4.125  0.00  0.00    +0.005 C 
ATOM     13  C   UNL     1      12.661  11.029  -2.953  0.00  0.00    +0.005 C 
ATOM     14  C   UNL     1      11.314  11.674  -2.623  0.00  0.00    +0.037 C 
BRANCH   7  15
ATOM     15  C   UNL     1       8.640  12.069  -1.186  0.00  0.00    +0.244 C 
ATOM     16  O   UNL     1       8.939  12.339  -0.037  0.00  0.00    -0.270 OA
ATOM     17  N   UNL     1       7.971  12.965  -1.937  0.00  0.00    -0.325 N 
ATOM     18  H   UNL     1       7.733  12.750  -2.853  0.00  0.00    +0.145 HD
ATOM     19  H   UNL     1       7.727  13.826  -1.563  0.00  0.00    +0.145 HD
ENDBRANCH   7  15
ENDBRANCH   4   6
ENDBRANCH   1   2
BRANCH   1  21
ATOM     20  C   UNL     1       5.141   6.044   0.213  0.00  0.00    -0.095 C 
ATOM     21  N   UNL     1       4.336   6.997  -0.579  0.00  0.00    +0.386 N 
ATOM     22  H   UNL     1       4.390   6.737  -1.570  0.00  0.00    -0.081 HD
BRANCH  21  23
ATOM     23  C   UNL     1       2.924   6.948  -0.145  0.00  0.00    -0.039 C 
BRANCH  23  26
ATOM     24  C   UNL     1       1.514   6.245  -2.895  0.00  0.00    +0.068 C 
ATOM     25  C   UNL     1       1.722   5.299  -1.740  0.00  0.00    +0.062 A 
ATOM     26  C   UNL     1       2.345   5.610  -0.527  0.00  0.00    -0.021 A 
ATOM     27  C   UNL     1       2.335   4.497   0.243  0.00  0.00    +0.038 A 
ATOM     28  N   UNL     1       1.728   3.517  -0.458  0.00  0.00    -0.263 N 
ATOM     29  N   UNL     1       1.357   4.043  -1.702  0.00  0.00    -0.176 NA
ATOM     30  C   UNL     1       2.901   4.375   1.635  0.00  0.00    +0.065 C 
BRANCH  28  31
ATOM     31  C   UNL     1       1.502   2.144  -0.001  0.00  0.00    +0.130 C 
ATOM     32  C   UNL     1       2.180   1.157  -0.966  0.00  0.00    +0.051 C 
ATOM     33  C   UNL     1       1.686  -0.282  -0.682  0.00  0.00    +0.168 C 
ATOM     34  S   UNL     1       0.002  -0.004   0.002  0.00  0.00    -0.029 S 
ATOM     35  O   UNL     1      -0.036  -0.474   1.342  0.00  0.00    -0.174 OA
ATOM     36  O   UNL     1      -0.961  -0.474  -0.931  0.00  0.00    -0.174 OA
ATOM     37  C   UNL     1      -0.023   1.838   0.012  0.00  0.00    +0.192 C 
ENDBRANCH  28  31
ENDBRANCH  23  26
ENDBRANCH  21  23
ENDBRANCH   1  21
TORSDOF 7
