REMARK  Name = ZINC67456794
REMARK  6 active torsions:
REMARK  status: ('A' for Active; 'I' for Inactive)
REMARK    1  A    between atoms: C_6  and  C_11
REMARK    2  A    between atoms: C_11  and  C_13
REMARK    3  A    between atoms: C_11  and  O_27
REMARK    4  A    between atoms: C_13  and  N_14
REMARK    5  A    between atoms: N_17  and  C_18
REMARK    6  A    between atoms: N_21  and  C_24
REMARK                            x       y       z     vdW  Elec       q    Type
REMARK                         _______ _______ _______ _____ _____    ______ ____
ROOT
ATOM      1  N   UNL     1       6.686  -3.771   1.361  0.00  0.00    -0.297 N 
ATOM      2  C   UNL     1       7.200  -4.259   2.507  0.00  0.00    +0.300 C 
ATOM      3  O   UNL     1       6.555  -4.203   3.536  0.00  0.00    -0.253 OA
ATOM      4  N   UNL     1       8.431  -4.809   2.513  0.00  0.00    -0.297 N 
ATOM      5  H   UNL     1       7.201  -3.815   0.540  0.00  0.00    +0.150 HD
ATOM      6  H   UNL     1       8.946  -4.854   1.692  0.00  0.00    +0.151 HD
ENDROOT
BRANCH   4   7
ATOM      7  C   UNL     1       8.990  -5.340   3.758  0.00  0.00    +0.071 C 
ATOM      8  C   UNL     1       9.663  -4.209   4.541  0.00  0.00    +0.004 C 
ATOM      9  C   UNL     1      10.313  -4.784   5.801  0.00  0.00    -0.077 C 
ATOM     10  N   UNL     1      11.318  -5.785   5.424  0.00  0.00    +0.382 N 
ATOM     11  C   UNL     1      10.669  -6.908   4.736  0.00  0.00    -0.077 C 
ATOM     12  C   UNL     1      10.032  -6.414   3.435  0.00  0.00    +0.004 C 
ATOM     13  H   UNL     1      11.998  -5.363   4.809  0.00  0.00    -0.081 HD
BRANCH  10  14
ATOM     14  C   UNL     1      11.993  -6.278   6.632  0.00  0.00    -0.069 C 
ATOM     15  C   UNL     1      13.464  -5.902   6.822  0.00  0.00    -0.017 C 
ATOM     16  C   UNL     1      13.084  -7.336   6.450  0.00  0.00    -0.017 C 
ENDBRANCH  10  14
ENDBRANCH   4   7
BRANCH   1  17
ATOM     17  C   UNL     1       5.349  -3.172   1.355  0.00  0.00    +0.141 C 
BRANCH  17  18
ATOM     18  C   UNL     1       5.008  -2.700  -0.060  0.00  0.00    +0.162 C 
BRANCH  18  24
ATOM     19  C   UNL     1      -0.016   1.357   0.009  0.00  0.00    +0.001 A 
ATOM     20  C   UNL     1       1.169   2.091   0.002  0.00  0.00    +0.001 A 
ATOM     21  C   UNL     1       2.378   1.468  -0.013  0.00  0.00    +0.008 A 
ATOM     22  C   UNL     1       2.438   0.063  -0.021  0.00  0.00    -0.018 A 
ATOM     23  C   UNL     1       3.668  -0.615  -0.036  0.00  0.00    +0.014 A 
ATOM     24  C   UNL     1       3.687  -1.976  -0.043  0.00  0.00    -0.017 A 
ATOM     25  C   UNL     1       2.502  -2.710  -0.036  0.00  0.00    +0.007 A 
ATOM     26  C   UNL     1       1.292  -2.087  -0.021  0.00  0.00    +0.009 A 
ATOM     27  C   UNL     1       1.233  -0.683  -0.013  0.00  0.00    -0.018 A 
ATOM     28  C   UNL     1       0.002  -0.004   0.002  0.00  0.00    +0.008 A 
ENDBRANCH  18  24
BRANCH  18  29
ATOM     29  O   UNL     1       4.921  -3.830  -0.931  0.00  0.00    -0.386 OA
ATOM     30  H   UNL     1       4.246  -4.473  -0.674  0.00  0.00    +0.210 HD
ENDBRANCH  18  29
ENDBRANCH  17  18
ENDBRANCH   1  17
TORSDOF 6
