REMARK  Name = ZINC57657025
REMARK  9 active torsions:
REMARK  status: ('A' for Active; 'I' for Inactive)
REMARK    1  A    between atoms: C_1  and  C_2
REMARK    2  A    between atoms: C_2  and  C_3
REMARK    3  A    between atoms: C_2  and  C_4
REMARK    4  A    between atoms: C_2  and  C_5
REMARK    5  A    between atoms: C_8  and  N_11
REMARK    6  A    between atoms: N_11  and  C_12
REMARK    7  A    between atoms: C_12  and  C_14
REMARK    8  A    between atoms: C_12  and  C_16
REMARK    9  A    between atoms: C_14  and  N_15
REMARK                            x       y       z     vdW  Elec       q    Type
REMARK                         _______ _______ _______ _____ _____    ______ ____
ROOT
ATOM      1  C   UNL     1       4.031  -1.375  -4.951  0.00  0.00    +0.083 C 
ENDROOT
BRANCH   1   2
ATOM      2  C   UNL     1       4.118   0.027  -5.497  0.00  0.00    -0.025 A 
ATOM      3  C   UNL     1       3.213   0.454  -6.451  0.00  0.00    +0.009 A 
ATOM      4  C   UNL     1       3.289   1.739  -6.954  0.00  0.00    +0.050 A 
ATOM      5  C   UNL     1       4.273   2.603  -6.503  0.00  0.00    +0.166 A 
ATOM      6  C   UNL     1       5.185   2.174  -5.542  0.00  0.00    +0.167 A 
ATOM      7  C   UNL     1       5.099   0.886  -5.038  0.00  0.00    +0.055 A 
ATOM      8  O   UNL     1       6.044   3.198  -5.268  0.00  0.00    -0.453 OA
ATOM      9  C   UNL     1       5.904   4.122  -6.364  0.00  0.00    +0.466 C 
ATOM     10  O   UNL     1       4.561   3.897  -6.831  0.00  0.00    -0.453 OA
ENDBRANCH   1   2
BRANCH   1  11
ATOM     11  N   UNL     1       2.625  -1.738  -4.760  0.00  0.00    -0.339 N 
ATOM     12  H   UNL     1       2.161  -2.255  -5.437  0.00  0.00    +0.147 HD
BRANCH  11  16
ATOM     13  C   UNL     1       0.618  -0.552  -1.310  0.00  0.00    -0.042 A 
ATOM     14  C   UNL     1      -0.070  -1.196  -2.321  0.00  0.00    +0.006 A 
ATOM     15  C   UNL     1       0.592  -1.591  -3.467  0.00  0.00    +0.023 A 
ATOM     16  C   UNL     1       1.952  -1.340  -3.603  0.00  0.00    +0.028 A 
ATOM     17  C   UNL     1       2.640  -0.692  -2.585  0.00  0.00    +0.023 A 
ATOM     18  C   UNL     1       1.970  -0.295  -1.444  0.00  0.00    +0.006 A 
BRANCH  13  20
ATOM     19  C   UNL     1      -0.002   1.396   0.095  0.00  0.00    +0.015 C 
ATOM     20  C   UNL     1      -0.108  -0.123  -0.061  0.00  0.00    -0.013 C 
ATOM     21  C   UNL     1       0.521  -0.805   1.155  0.00  0.00    +0.015 C 
ATOM     22  C   UNL     1      -1.581  -0.522  -0.165  0.00  0.00    +0.015 C 
ENDBRANCH  13  20
ENDBRANCH  11  16
ENDBRANCH   1  11
BRANCH   1  23
ATOM     23  C   UNL     1       4.680  -2.347  -5.938  0.00  0.00    -0.059 C 
BRANCH  23  24
ATOM     24  N   UNL     1       4.521  -3.722  -5.446  0.00  0.00    +0.380 N 
ATOM     25  H   UNL     1       5.026  -3.830  -4.579  0.00  0.00    -0.090 HD
ATOM     26  H   UNL     1       3.542  -3.913  -5.291  0.00  0.00    -0.090 HD
ATOM     27  H   UNL     1       4.885  -4.369  -6.130  0.00  0.00    -0.090 HD
ENDBRANCH  23  24
ENDBRANCH   1  23
TORSDOF 6
