REMARK  Name = ZINC31773411
REMARK  5 active torsions:
REMARK  status: ('A' for Active; 'I' for Inactive)
REMARK    1  A    between atoms: C_1  and  C_2
REMARK    2  A    between atoms: C_2  and  C_3
REMARK    3  A    between atoms: C_2  and  S_4
REMARK    4  A    between atoms: S_4  and  C_5
REMARK    5  A    between atoms: C_5  and  C_6
REMARK                            x       y       z     vdW  Elec       q    Type
REMARK                         _______ _______ _______ _____ _____    ______ ____
ROOT
ATOM      1  C   UNL     1      -0.018   1.503   0.010  0.00  0.00    +0.033 A 
ATOM      2  C   UNL     1      -1.195   2.165   0.019  0.00  0.00    +0.092 A 
ATOM      3  C   UNL     1      -1.188   3.581   0.033  0.00  0.00    +0.252 A 
ATOM      4  O   UNL     1      -2.237   4.201   0.047  0.00  0.00    -0.268 OA
ATOM      5  N   UNL     1      -0.010   4.237   0.025  0.00  0.00    -0.303 N 
ATOM      6  H   UNL     1       0.007   5.337   0.031  0.00  0.00    +0.171 HD
ATOM      7  C   UNL     1       1.148   3.551   0.011  0.00  0.00    +0.158 A 
ATOM      8  S   UNL     1       2.633   4.403   0.002  0.00  0.00    -0.013 S 
ATOM      9  N   UNL     1       1.155   2.206   0.003  0.00  0.00    -0.338 N 
ATOM     10  H   UNL     1       2.116   1.672  -0.009  0.00  0.00    +0.168 HD
ENDROOT
BRANCH   1  11
ATOM     11  C   UNL     1       0.002  -0.004   0.002  0.00  0.00    +0.122 C 
BRANCH  11  12
ATOM     12  S   UNL     1       0.437  -0.594  -1.657  0.00  0.00    -0.152 S 
BRANCH  12  14
ATOM     13  C   UNL     1      -1.005  -2.871  -1.194  0.00  0.00    +0.018 C 
ATOM     14  C   UNL     1       0.418  -2.401  -1.500  0.00  0.00    +0.041 C 
ATOM     15  C   UNL     1       0.894  -3.032  -2.810  0.00  0.00    +0.018 C 
ENDBRANCH  12  14
ENDBRANCH  11  12
ENDBRANCH   1  11
TORSDOF 3
