REMARK  Name = ZINC26533044
REMARK  9 active torsions:
REMARK  status: ('A' for Active; 'I' for Inactive)
REMARK    1  A    between atoms: C_1  and  C_2
REMARK    2  A    between atoms: C_2  and  N_3
REMARK    3  A    between atoms: C_11  and  N_12
REMARK    4  A    between atoms: N_12  and  C_13
REMARK    5  A    between atoms: N_20  and  C_21
REMARK    6  A    between atoms: C_21  and  C_22
REMARK    7  A    between atoms: C_22  and  C_23
REMARK    8  A    between atoms: C_23  and  C_24
REMARK    9  A    between atoms: C_24  and  N_25
REMARK                            x       y       z     vdW  Elec       q    Type
REMARK                         _______ _______ _______ _____ _____    ______ ____
ROOT
ATOM      1  N   UNL     1      -0.049   1.459   0.287  0.00  0.00    -0.315 N 
ATOM      2  C   UNL     1       1.036   2.262   0.089  0.00  0.00    +0.201 A 
ATOM      3  N   UNL     1       0.663   3.506   0.027  0.00  0.00    -0.231 NA
ATOM      4  C   UNL     1      -0.682   3.582   0.183  0.00  0.00    +0.148 A 
ATOM      5  C   UNL     1      -1.155   2.269   0.346  0.00  0.00    +0.167 A 
ATOM      6  N   UNL     1      -2.456   2.067   0.525  0.00  0.00    -0.195 NA
ATOM      7  C   UNL     1      -3.300   3.087   0.540  0.00  0.00    +0.219 A 
ATOM      8  N   UNL     1      -2.898   4.341   0.384  0.00  0.00    -0.197 NA
ATOM      9  C   UNL     1      -1.614   4.634   0.205  0.00  0.00    +0.156 A 
ATOM     10  N   UNL     1      -4.649   2.835   0.724  0.00  0.00    -0.313 N 
ATOM     11  H   UNL     1      -5.003   1.802   0.855  0.00  0.00    +0.149 HD
ENDROOT
BRANCH   1  13
ATOM     12  C   UNL     1      -0.328  -0.629  -0.954  0.00  0.00    +0.027 C 
ATOM     13  C   UNL     1      -0.037  -0.001   0.410  0.00  0.00    +0.121 C 
ENDBRANCH   1  13
BRANCH   9  14
ATOM     14  N   UNL     1      -1.204   5.946   0.043  0.00  0.00    -0.298 N 
ATOM     15  H   UNL     1      -0.132   6.184  -0.013  0.00  0.00    +0.154 HD
BRANCH  14  16
ATOM     16  C   UNL     1      -2.154   6.970  -0.048  0.00  0.00    +0.033 A 
ATOM     17  C   UNL     1      -3.382   6.727  -0.649  0.00  0.00    +0.026 A 
ATOM     18  C   UNL     1      -4.320   7.737  -0.733  0.00  0.00    +0.040 A 
ATOM     19  C   UNL     1      -4.032   8.995  -0.230  0.00  0.00    +0.124 A 
ATOM     20  C   UNL     1      -2.805   9.240   0.364  0.00  0.00    +0.040 A 
ATOM     21  C   UNL     1      -1.867   8.231   0.456  0.00  0.00    +0.026 A 
ATOM     22  F   UNL     1      -4.949   9.983  -0.318  0.00  0.00    -0.205 F 
ENDBRANCH  14  16
ENDBRANCH   9  14
BRANCH  10  23
ATOM     23  C   UNL     1      -5.606   3.945   0.745  0.00  0.00    +0.104 C 
BRANCH  23  24
ATOM     24  C   UNL     1      -7.018   3.397   0.962  0.00  0.00    +0.017 C 
BRANCH  24  25
ATOM     25  C   UNL     1      -8.016   4.556   0.984  0.00  0.00    -0.018 C 
BRANCH  25  26
ATOM     26  C   UNL     1      -9.428   4.009   1.200  0.00  0.00    -0.086 C 
BRANCH  26  27
ATOM     27  N   UNL     1     -10.387   5.122   1.221  0.00  0.00    +0.378 N 
ATOM     28  H   UNL     1     -11.402   4.728   1.377  0.00  0.00    -0.090 HD
ATOM     29  H   UNL     1     -10.345   5.660   0.263  0.00  0.00    -0.090 HD
ATOM     30  H   UNL     1     -10.131   5.811   2.040  0.00  0.00    -0.090 HD
ENDBRANCH  26  27
ENDBRANCH  25  26
ENDBRANCH  24  25
ENDBRANCH  23  24
ENDBRANCH  10  23
TORSDOF 8
