REMARK  Name = ZINC55271268
REMARK  9 active torsions:
REMARK  status: ('A' for Active; 'I' for Inactive)
REMARK    1  A    between atoms: C_1  and  C_2
REMARK    2  A    between atoms: C_2  and  C_4
REMARK    3  A    between atoms: C_2  and  N_10
REMARK    4  A    between atoms: N_8  and  C_9
REMARK    5  A    between atoms: N_10  and  C_11
REMARK    6  A    between atoms: C_11  and  C_12
REMARK    7  A    between atoms: N_14  and  C_21
REMARK    8  A    between atoms: C_21  and  C_22
REMARK    9  A    between atoms: C_22  and  C_23
REMARK                            x       y       z     vdW  Elec       q    Type
REMARK                         _______ _______ _______ _____ _____    ______ ____
ROOT
ATOM      1  C   UNL     1       0.689  -0.618   3.619  0.00  0.00    -0.039 A 
ATOM      2  C   UNL     1       0.407  -1.728   4.318  0.00  0.00    +0.088 A 
ATOM      3  N   UNL     1       1.283  -1.857   5.362  0.00  0.00    -0.346 N 
ATOM      4  C   UNL     1       2.172  -0.806   5.359  0.00  0.00    +0.049 A 
ATOM      5  C   UNL     1       1.843   0.013   4.263  0.00  0.00    +0.001 A 
ATOM      6  C   UNL     1       2.589   1.165   4.006  0.00  0.00    +0.010 A 
ATOM      7  C   UNL     1       3.638   1.489   4.819  0.00  0.00    +0.001 A 
ATOM      8  C   UNL     1       3.970   0.683   5.898  0.00  0.00    +0.002 A 
ATOM      9  C   UNL     1       3.241  -0.454   6.176  0.00  0.00    +0.026 A 
ENDROOT
BRANCH   1  10
ATOM     10  C   UNL     1      -0.040  -0.119   2.398  0.00  0.00    -0.044 C 
BRANCH  10  11
ATOM     11  N   UNL     1       0.713  -0.491   1.192  0.00  0.00    +0.388 N 
ATOM     12  H   UNL     1       0.798  -1.495   1.145  0.00  0.00    -0.084 HD
ATOM     13  H   UNL     1       1.632  -0.076   1.228  0.00  0.00    -0.084 HD
BRANCH  11  15
ATOM     14  C   UNL     1      -0.019   1.526   0.010  0.00  0.00    -0.006 C 
ATOM     15  C   UNL     1       0.002  -0.004   0.002  0.00  0.00    -0.005 C 
BRANCH  15  16
ATOM     16  C   UNL     1       0.707  -0.490  -1.238  0.00  0.00    +0.119 A 
ATOM     17  N   UNL     1       1.995  -0.478  -1.450  0.00  0.00    -0.136 NA
ATOM     18  N   UNL     1       2.247  -0.968  -2.612  0.00  0.00    -0.138 NA
ATOM     19  C   UNL     1       1.131  -1.315  -3.194  0.00  0.00    +0.224 A 
ATOM     20  N   UNL     1       0.123  -1.026  -2.336  0.00  0.00    -0.322 N 
ATOM     21  C   UNL     1      -1.309  -1.246  -2.554  0.00  0.00    +0.151 C 
ENDBRANCH  15  16
ENDBRANCH  11  15
ENDBRANCH  10  11
ENDBRANCH   1  10
BRANCH   3  22
ATOM     22  C   UNL     1       1.276  -2.951   6.337  0.00  0.00    +0.131 C 
BRANCH  22  23
ATOM     23  C   UNL     1       0.482  -2.526   7.574  0.00  0.00    +0.117 C 
BRANCH  23  24
ATOM     24  C   UNL     1       0.474  -3.651   8.577  0.00  0.00    +0.212 C 
ATOM     25  O   UNL     1       1.047  -4.690   8.327  0.00  0.00    -0.276 OA
ATOM     26  N   UNL     1      -0.169  -3.502   9.751  0.00  0.00    -0.329 N 
ATOM     27  H   UNL     1      -0.627  -2.671   9.951  0.00  0.00    +0.145 HD
ATOM     28  H   UNL     1      -0.174  -4.226  10.397  0.00  0.00    +0.145 HD
ENDBRANCH  23  24
ENDBRANCH  22  23
ENDBRANCH   3  22
TORSDOF 7
