REMARK  Name = ZINC04261914
REMARK  7 active torsions:
REMARK  status: ('A' for Active; 'I' for Inactive)
REMARK    1  A    between atoms: C_3  and  O_12
REMARK    2  A    between atoms: O_12  and  C_13
REMARK    3  A    between atoms: C_15  and  O_28
REMARK    4  A    between atoms: C_17  and  O_27
REMARK    5  A    between atoms: C_19  and  O_26
REMARK    6  A    between atoms: C_21  and  C_24
REMARK    7  A    between atoms: C_24  and  O_25
REMARK                            x       y       z     vdW  Elec       q    Type
REMARK                         _______ _______ _______ _____ _____    ______ ____
ROOT
ATOM      1  C   UNL     1      -6.006   1.902   0.071  0.00  0.00    +0.339 C 
ATOM      2  C   UNL     1      -7.228   0.986  -0.047  0.00  0.00    +0.214 C 
ATOM      3  C   UNL     1      -8.501   1.834   0.031  0.00  0.00    +0.180 C 
ATOM      4  C   UNL     1      -8.493   2.627   1.342  0.00  0.00    +0.177 C 
ATOM      5  C   UNL     1      -7.223   3.479   1.406  0.00  0.00    +0.179 C 
ATOM      6  O   UNL     1      -6.077   2.632   1.297  0.00  0.00    -0.331 OA
ENDROOT
BRANCH   4   7
ATOM      7  O   UNL     1      -9.641   3.477   1.393  0.00  0.00    -0.386 OA
ATOM      8  H   UNL     1     -10.483   3.003   1.351  0.00  0.00    +0.210 HD
ENDBRANCH   4   7
BRANCH   3   9
ATOM      9  O   UNL     1      -9.646   0.981  -0.004  0.00  0.00    -0.386 OA
ATOM     10  H   UNL     1      -9.711   0.443  -0.805  0.00  0.00    +0.210 HD
ENDBRANCH   3   9
BRANCH   2  11
ATOM     11  O   UNL     1      -7.189   0.297  -1.299  0.00  0.00    -0.383 OA
ATOM     12  H   UNL     1      -6.405  -0.256  -1.419  0.00  0.00    +0.210 HD
ENDBRANCH   2  11
BRANCH   1  13
ATOM     13  O   UNL     1      -4.815   1.112   0.055  0.00  0.00    -0.461 OA
BRANCH  13  16
ATOM     14  C   UNL     1      -2.461   3.875   0.045  0.00  0.00    +0.012 A 
ATOM     15  C   UNL     1      -3.629   3.178   0.053  0.00  0.00    +0.046 A 
ATOM     16  C   UNL     1      -3.632   1.780   0.046  0.00  0.00    +0.125 A 
ATOM     17  C   UNL     1      -2.461   1.077   0.031  0.00  0.00    +0.054 A 
ATOM     18  C   UNL     1      -1.238   1.766   0.018  0.00  0.00    -0.014 A 
ATOM     19  C   UNL     1      -1.237   3.183   0.030  0.00  0.00    -0.017 A 
ATOM     20  C   UNL     1      -0.012   3.872   0.022  0.00  0.00    +0.023 A 
ATOM     21  C   UNL     1       1.155   3.170   0.008  0.00  0.00    +0.018 A 
ATOM     22  C   UNL     1       1.154   1.776   0.001  0.00  0.00    +0.016 A 
ATOM     23  C   UNL     1      -0.013   1.076   0.008  0.00  0.00    +0.010 A 
ATOM     24 BR   UNL     1       2.801   4.101  -0.004  0.00  0.00    -0.050 Br
ENDBRANCH  13  16
ENDBRANCH   1  13
BRANCH   5  25
ATOM     25  C   UNL     1      -7.178   4.228   2.740  0.00  0.00    +0.190 C 
BRANCH  25  26
ATOM     26  O   UNL     1      -6.055   5.111   2.752  0.00  0.00    -0.392 OA
ATOM     27  H   UNL     1      -5.964   5.620   3.569  0.00  0.00    +0.210 HD
ENDBRANCH  25  26
ENDBRANCH   5  25
TORSDOF 7
