REMARK  Name = ZINC03845803
REMARK  8 active torsions:
REMARK  status: ('A' for Active; 'I' for Inactive)
REMARK    1  A    between atoms: C_4  and  N_7
REMARK    2  A    between atoms: N_7  and  C_8
REMARK    3  A    between atoms: C_8  and  N_10
REMARK    4  A    between atoms: N_10  and  C_11
REMARK    5  A    between atoms: N_10  and  C_22
REMARK    6  A    between atoms: C_11  and  C_12
REMARK    7  A    between atoms: C_22  and  N_24
REMARK    8  A    between atoms: N_24  and  C_25
REMARK                            x       y       z     vdW  Elec       q    Type
REMARK                         _______ _______ _______ _____ _____    ______ ____
ROOT
ATOM      1  N   UNL     1       0.071   1.341   0.339  0.00  0.00    -0.266 N 
ENDROOT
BRANCH   1   2
ATOM      2  C   UNL     1       1.190   2.093   0.307  0.00  0.00    +0.143 C 
ATOM      3  S   UNL     1       1.092   3.784   0.550  0.00  0.00    -0.018 S 
BRANCH   2   4
ATOM      4  N   UNL     1       2.385   1.512   0.083  0.00  0.00    -0.296 N 
ATOM      5  H   UNL     1       2.432   0.568  -0.137  0.00  0.00    +0.154 HD
BRANCH   4   9
ATOM      6  C   UNL     1       5.877   3.769   0.334  0.00  0.00    +0.000 A 
ATOM      7  C   UNL     1       4.867   3.956   1.259  0.00  0.00    +0.002 A 
ATOM      8  C   UNL     1       3.708   3.210   1.179  0.00  0.00    +0.023 A 
ATOM      9  C   UNL     1       3.558   2.270   0.167  0.00  0.00    +0.033 A 
ATOM     10  C   UNL     1       4.576   2.082  -0.758  0.00  0.00    +0.023 A 
ATOM     11  C   UNL     1       5.730   2.835  -0.676  0.00  0.00    +0.002 A 
ENDBRANCH   4   9
ENDBRANCH   2   4
ENDBRANCH   1   2
BRANCH   1  12
ATOM     12  C   UNL     1      -1.118   1.915   0.610  0.00  0.00    +0.143 C 
ATOM     13  S   UNL     1      -2.514   0.942   0.799  0.00  0.00    -0.018 S 
BRANCH  12  14
ATOM     14  N   UNL     1      -1.208   3.254   0.734  0.00  0.00    -0.296 N 
ATOM     15  H   UNL     1      -1.215   3.661   1.614  0.00  0.00    +0.154 HD
BRANCH  14  16
ATOM     16  C   UNL     1      -1.292   4.057  -0.408  0.00  0.00    +0.033 A 
ATOM     17  C   UNL     1      -1.350   3.473  -1.667  0.00  0.00    +0.023 A 
ATOM     18  C   UNL     1      -1.438   4.269  -2.792  0.00  0.00    +0.002 A 
ATOM     19  C   UNL     1      -1.457   5.646  -2.667  0.00  0.00    +0.000 A 
ATOM     20  C   UNL     1      -1.394   6.231  -1.416  0.00  0.00    +0.002 A 
ATOM     21  C   UNL     1      -1.312   5.441  -0.286  0.00  0.00    +0.023 A 
ENDBRANCH  14  16
ENDBRANCH  12  14
ENDBRANCH   1  12
BRANCH   1  22
ATOM     22  C   UNL     1       0.147  -0.097   0.073  0.00  0.00    +0.103 C 
BRANCH  22  23
ATOM     23  C   UNL     1       0.381  -0.847   1.387  0.00  0.00    -0.023 C 
ATOM     24  C   UNL     1       0.336  -2.330   1.127  0.00  0.00    -0.057 A 
ATOM     25  C   UNL     1       0.970  -2.822  -0.004  0.00  0.00    +0.002 A 
ATOM     26  C   UNL     1       0.958  -4.175  -0.278  0.00  0.00    +0.000 A 
ATOM     27  C   UNL     1       0.309  -5.045   0.578  0.00  0.00    +0.000 A 
ATOM     28  C   UNL     1      -0.324  -4.557   1.703  0.00  0.00    +0.004 A 
ATOM     29  C   UNL     1      -0.313  -3.198   1.979  0.00  0.00    -0.047 A 
ATOM     30  C   UNL     1      -1.021  -2.710   3.217  0.00  0.00    +0.016 C 
ATOM     31  C   UNL     1      -0.553  -1.296   3.563  0.00  0.00    -0.077 C 
ATOM     32  N   UNL     1      -0.656  -0.459   2.353  0.00  0.00    +0.385 N 
ATOM     33  H   UNL     1      -1.582  -0.586   1.928  0.00  0.00    -0.085 HD
ATOM     34  H   UNL     1      -0.530   0.527   2.610  0.00  0.00    -0.085 HD
ENDBRANCH  22  23
ENDBRANCH   1  22
TORSDOF 8
