REMARK  Name = ZINC13109251
REMARK  15 active torsions:
REMARK  status: ('A' for Active; 'I' for Inactive)
REMARK    1  A    between atoms: C_1  and  C_2
REMARK    2  A    between atoms: C_2  and  C_3
REMARK    3  A    between atoms: C_3  and  C_4
REMARK    4  A    between atoms: C_8  and  S_10
REMARK    5  A    between atoms: S_10  and  C_11
REMARK    6  A    between atoms: C_11  and  C_12
REMARK    7  A    between atoms: N_14  and  C_15
REMARK    8  A    between atoms: C_16  and  C_28
REMARK    9  A    between atoms: C_20  and  C_26
REMARK   10  A    between atoms: C_20  and  C_27
REMARK   11  A    between atoms: C_22  and  C_24
REMARK   12  A    between atoms: C_22  and  C_25
REMARK   13  A    between atoms: C_28  and  O_30
REMARK   14  A    between atoms: O_30  and  C_31
REMARK   15  A    between atoms: C_31  and  C_32
REMARK                            x       y       z     vdW  Elec       q    Type
REMARK                         _______ _______ _______ _____ _____    ______ ____
ROOT
ATOM      1  C   UNL     1       7.108  -3.696   3.081  0.00  0.00    +0.086 A 
ATOM      2  C   UNL     1       8.095  -3.000   3.768  0.00  0.00    +0.091 A 
ATOM      3  C   UNL     1       9.103  -3.787   4.442  0.00  0.00    -0.024 A 
ATOM      4  C   UNL     1       8.953  -5.126   4.312  0.00  0.00    -0.016 A 
ATOM      5  S   UNL     1       7.498  -5.311   3.326  0.00  0.00    -0.079 S 
ATOM      6  C   UNL     1       9.848  -6.176   4.881  0.00  0.00    -0.041 C 
ATOM      7  N   UNL     1      10.830  -5.624   5.813  0.00  0.00    +0.389 N 
ATOM      8  C   UNL     1      10.541  -4.306   6.363  0.00  0.00    -0.069 C 
ATOM      9  C   UNL     1      10.272  -3.269   5.265  0.00  0.00    +0.024 C 
ATOM     10  C   UNL     1       9.345  -4.358   7.317  0.00  0.00    -0.010 C 
ATOM     11  C   UNL     1      11.768  -3.835   7.166  0.00  0.00    -0.010 C 
ATOM     12  C   UNL     1       8.999  -7.247   5.580  0.00  0.00    -0.005 C 
ATOM     13  C   UNL     1      10.599  -6.853   3.718  0.00  0.00    -0.005 C 
ATOM     14  H   UNL     1      10.947  -6.280   6.588  0.00  0.00    -0.084 HD
ATOM     15  H   UNL     1      11.738  -5.588   5.345  0.00  0.00    -0.084 HD
ENDROOT
BRANCH   1  18
ATOM     16  C   UNL     1       5.175  -4.003   1.750  0.00  0.00    +0.228 C 
ATOM     17  O   UNL     1       5.320  -5.204   1.832  0.00  0.00    -0.275 OA
ATOM     18  N   UNL     1       6.046  -3.175   2.360  0.00  0.00    -0.279 N 
ATOM     19  H   UNL     1       5.929  -2.214   2.293  0.00  0.00    +0.155 HD
BRANCH  16  20
ATOM     20  C   UNL     1       4.019  -3.436   0.965  0.00  0.00    +0.173 C 
BRANCH  20  21
ATOM     21  S   UNL     1       3.036  -4.793   0.271  0.00  0.00    -0.078 S 
BRANCH  21  26
ATOM     22  C   UNL     1       0.739  -2.004  -1.265  0.00  0.00    +0.049 A 
ATOM     23  C   UNL     1      -0.228  -2.695  -1.938  0.00  0.00    +0.093 A 
ATOM     24  C   UNL     1      -0.188  -4.100  -1.932  0.00  0.00    +0.252 A 
ATOM     25  N   UNL     1       0.806  -4.719  -1.259  0.00  0.00    -0.302 N 
ATOM     26  C   UNL     1       1.743  -3.977  -0.605  0.00  0.00    +0.170 A 
ATOM     27  N   UNL     1       1.701  -2.659  -0.621  0.00  0.00    -0.228 NA
ATOM     28  O   UNL     1      -1.036  -4.749  -2.523  0.00  0.00    -0.268 OA
ATOM     29  H   UNL     1       0.853  -5.687  -1.241  0.00  0.00    +0.171 HD
BRANCH  22  30
ATOM     30  C   UNL     1       0.718  -0.497  -1.257  0.00  0.00    +0.055 C 
BRANCH  30  32
ATOM     31  C   UNL     1      -0.019   1.526   0.010  0.00  0.00    +0.004 C 
ATOM     32  C   UNL     1       0.002  -0.004   0.002  0.00  0.00    +0.003 C 
ENDBRANCH  30  32
ENDBRANCH  22  30
ENDBRANCH  21  26
ENDBRANCH  20  21
ENDBRANCH  16  20
ENDBRANCH   1  18
BRANCH   2  33
ATOM     33  C   UNL     1       8.105  -1.535   3.798  0.00  0.00    +0.342 C 
ATOM     34  O   UNL     1       7.514  -0.941   4.680  0.00  0.00    -0.245 OA
BRANCH  33  35
ATOM     35  O   UNL     1       8.769  -0.846   2.848  0.00  0.00    -0.461 OA
BRANCH  35  36
ATOM     36  C   UNL     1       8.736   0.580   2.938  0.00  0.00    +0.229 C 
ATOM     37  C   UNL     1       9.538   1.183   1.783  0.00  0.00    +0.048 C 
ENDBRANCH  35  36
ENDBRANCH  33  35
ENDBRANCH   2  33
TORSDOF 9
