REMARK  Name = ZINC43509297
REMARK  20 active torsions:
REMARK  status: ('A' for Active; 'I' for Inactive)
REMARK    1  A    between atoms: C_1  and  C_2
REMARK    2  A    between atoms: C_2  and  O_33
REMARK    3  A    between atoms: C_3  and  C_31
REMARK    4  A    between atoms: C_6  and  C_13
REMARK    5  A    between atoms: C_6  and  O_14
REMARK    6  A    between atoms: C_7  and  C_11
REMARK    7  A    between atoms: C_7  and  O_12
REMARK    8  A    between atoms: C_8  and  C_9
REMARK    9  A    between atoms: C_8  and  O_10
REMARK   10  A    between atoms: O_14  and  C_15
REMARK   11  A    between atoms: C_15  and  C_30
REMARK   12  A    between atoms: C_16  and  C_28
REMARK   13  A    between atoms: C_19  and  C_26
REMARK   14  A    between atoms: C_19  and  O_27
REMARK   15  A    between atoms: C_20  and  C_24
REMARK   16  A    between atoms: C_20  and  O_25
REMARK   17  A    between atoms: C_21  and  C_22
REMARK   18  A    between atoms: C_21  and  O_23
REMARK   19  A    between atoms: C_28  and  O_29
REMARK   20  A    between atoms: C_31  and  O_32
REMARK                            x       y       z     vdW  Elec       q    Type
REMARK                         _______ _______ _______ _____ _____    ______ ____
ROOT
ATOM      1  O   UNL     1      -1.829  -1.974   2.063  0.00  0.00    -0.334 OA
ENDROOT
BRANCH   1   6
ATOM      2  C   UNL     1      -1.276   2.502   1.967  0.00  0.00    +0.047 C 
ATOM      3  C   UNL     1      -1.421   1.298   1.034  0.00  0.00    +0.123 C 
ATOM      4  C   UNL     1      -2.741   0.579   1.327  0.00  0.00    +0.181 C 
ATOM      5  O   UNL     1      -2.847  -0.578   0.495  0.00  0.00    -0.338 OA
ATOM      6  C   UNL     1      -1.812  -1.542   0.701  0.00  0.00    +0.200 C 
ATOM      7  C   UNL     1      -0.455  -0.909   0.383  0.00  0.00    +0.147 C 
ATOM      8  C   UNL     1      -0.258   0.328   1.265  0.00  0.00    +0.127 C 
ATOM      9  C   UNL     1      -0.228  -0.093   2.736  0.00  0.00    +0.047 C 
ATOM     10  C   UNL     1      -0.416  -0.497  -1.090  0.00  0.00    +0.050 C 
ATOM     11  C   UNL     1      -2.043  -2.743  -0.218  0.00  0.00    +0.077 C 
BRANCH   8  12
ATOM     12  O   UNL     1       0.973   0.968   0.924  0.00  0.00    -0.383 OA
ATOM     13  H   UNL     1       1.159   1.764   1.440  0.00  0.00    +0.210 HD
ENDBRANCH   8  12
BRANCH   7  14
ATOM     14  O   UNL     1       0.585  -1.853   0.644  0.00  0.00    -0.381 OA
ATOM     15  H   UNL     1       0.520  -2.664   0.122  0.00  0.00    +0.211 HD
ENDBRANCH   7  14
BRANCH   3  16
ATOM     16  O   UNL     1      -1.409   1.742  -0.324  0.00  0.00    -0.383 OA
ATOM     17  H   UNL     1      -2.121   2.358  -0.543  0.00  0.00    +0.210 HD
ENDBRANCH   3  16
BRANCH   4  18
ATOM     18  C   UNL     1      -3.910   1.523   1.040  0.00  0.00    +0.190 C 
BRANCH  18  19
ATOM     19  O   UNL     1      -5.139   0.871   1.367  0.00  0.00    -0.392 OA
ATOM     20  H   UNL     1      -5.928   1.382   1.139  0.00  0.00    +0.210 HD
ENDBRANCH  18  19
ENDBRANCH   4  18
ENDBRANCH   1   6
BRANCH   1  21
ATOM     21  C   UNL     1      -3.078  -2.526   2.483  0.00  0.00    +0.129 C 
ATOM     22  C   UNL     1      -3.486  -1.909   3.823  0.00  0.00    +0.181 C 
ATOM     23  O   UNL     1      -2.512  -2.241   4.815  0.00  0.00    -0.338 OA
ATOM     24  C   UNL     1      -2.372  -3.644   5.048  0.00  0.00    +0.197 C 
ATOM     25  C   UNL     1      -1.919  -4.331   3.757  0.00  0.00    +0.147 C 
ATOM     26  C   UNL     1      -2.938  -4.042   2.650  0.00  0.00    +0.128 C 
ATOM     27  C   UNL     1      -2.455  -4.659   1.336  0.00  0.00    +0.047 C 
ATOM     28  C   UNL     1      -0.548  -3.791   3.344  0.00  0.00    +0.050 C 
ATOM     29  C   UNL     1      -3.716  -4.225   5.491  0.00  0.00    +0.077 C 
ATOM     30  C   UNL     1      -4.149  -2.224   1.433  0.00  0.00    +0.047 C 
BRANCH  26  31
ATOM     31  O   UNL     1      -4.203  -4.603   3.007  0.00  0.00    -0.383 OA
ATOM     32  H   UNL     1      -4.188  -5.562   3.129  0.00  0.00    +0.210 HD
ENDBRANCH  26  31
BRANCH  25  33
ATOM     33  O   UNL     1      -1.834  -5.741   3.971  0.00  0.00    -0.381 OA
ATOM     34  H   UNL     1      -1.209  -5.997   4.664  0.00  0.00    +0.211 HD
ENDBRANCH  25  33
BRANCH  24  35
ATOM     35  O   UNL     1      -1.397  -3.862   6.071  0.00  0.00    -0.362 OA
ATOM     36  H   UNL     1      -1.619  -3.453   6.918  0.00  0.00    +0.213 HD
ENDBRANCH  24  35
BRANCH  22  37
ATOM     37  C   UNL     1      -3.570  -0.388   3.680  0.00  0.00    +0.190 C 
BRANCH  37  38
ATOM     38  O   UNL     1      -4.317   0.153   4.771  0.00  0.00    -0.392 OA
ATOM     39  H   UNL     1      -4.347   1.120   4.787  0.00  0.00    +0.210 HD
ENDBRANCH  37  38
ENDBRANCH  22  37
ENDBRANCH   1  21
TORSDOF 12
