REMARK  Name = ZINC05258043
REMARK  9 active torsions:
REMARK  status: ('A' for Active; 'I' for Inactive)
REMARK    1  A    between atoms: C_4  and  C_7
REMARK    2  A    between atoms: C_7  and  N_42
REMARK    3  A    between atoms: CA_8  and  C_10
REMARK    4  A    between atoms: CA_8  and  C_24
REMARK    5  A    between atoms: CA_8  and  N_42
REMARK    6  A    between atoms: C_10  and  C_11
REMARK    7  A    between atoms: N_13  and  C_14
REMARK    8  A    between atoms: C_17  and  S_20
REMARK    9  A    between atoms: S_20  and  N_23
REMARK                            x       y       z     vdW  Elec       q    Type
REMARK                         _______ _______ _______ _____ _____    ______ ____
ROOT
ATOM      1  C   UNL     1      -2.199   1.097  -1.202  0.00  0.00    +0.216 C 
ATOM      2  O   UNL     1      -2.620   0.448  -0.268  0.00  0.00    -0.276 OA
ATOM      3  N   UNL     1      -2.962   1.276  -2.297  0.00  0.00    -0.286 N 
ATOM      4  H   UNL     1      -2.657   1.857  -3.012  0.00  0.00    +0.155 HD
ENDROOT
BRANCH   3   5
ATOM      5  C   UNL     1      -4.195   0.623  -2.405  0.00  0.00    +0.033 A 
ATOM      6  C   UNL     1      -4.364  -0.640  -1.854  0.00  0.00    +0.025 A 
ATOM      7  C   UNL     1      -5.584  -1.280  -1.957  0.00  0.00    +0.030 A 
ATOM      8  C   UNL     1      -6.633  -0.668  -2.619  0.00  0.00    +0.105 A 
ATOM      9  C   UNL     1      -6.466   0.587  -3.174  0.00  0.00    +0.030 A 
ATOM     10  C   UNL     1      -5.251   1.234  -3.069  0.00  0.00    +0.025 A 
BRANCH   8  11
ATOM     11  S   UNL     1      -8.185  -1.490  -2.754  0.00  0.00    +0.056 S 
ATOM     12  O   UNL     1      -8.248  -2.419  -1.680  0.00  0.00    -0.153 OA
ATOM     13  O   UNL     1      -9.165  -0.479  -2.945  0.00  0.00    -0.153 OA
BRANCH  11  14
ATOM     14  N   UNL     1      -8.148  -2.381  -4.149  0.00  0.00    -0.204 NA
ATOM     15  H   UNL     1      -8.658  -3.204  -4.213  0.00  0.00    +0.144 HD
ATOM     16  H   UNL     1      -7.615  -2.081  -4.902  0.00  0.00    +0.144 HD
ENDBRANCH  11  14
ENDBRANCH   8  11
ENDBRANCH   3   5
BRANCH   1  17
ATOM     17  C   UNL     1      -0.821   1.704  -1.136  0.00  0.00    +0.091 C 
BRANCH  17  18
ATOM     18  CA  UNL     1      -0.172   1.353   0.204  0.00  0.00    +0.053 C 
BRANCH  18  19
ATOM     19  C   UNL     1       1.249   1.854   0.221  0.00  0.00    +0.343 C 
ATOM     20  O   UNL     1       1.597   2.656   1.055  0.00  0.00    -0.248 OA
ATOM     21  OXT UNL     1       2.128   1.410  -0.691  0.00  0.00    -0.248 OA
ENDBRANCH  18  19
BRANCH  18  22
ATOM     22  N   UNL     1      -0.933   1.994   1.293  0.00  0.00    +0.391 N 
ATOM     23  H1  UNL     1      -0.601   2.958   1.417  0.00  0.00    -0.084 HD
ATOM     24  H2  UNL     1      -1.930   2.005   1.048  0.00  0.00    -0.084 HD
BRANCH  22  25
ATOM     25  C   UNL     1      -0.749   1.250   2.554  0.00  0.00    -0.046 C 
BRANCH  25  29
ATOM     26  C   UNL     1      -2.982   3.168   5.650  0.00  0.00    +0.000 A 
ATOM     27  C   UNL     1      -3.570   2.178   4.886  0.00  0.00    +0.000 A 
ATOM     28  C   UNL     1      -2.847   1.557   3.884  0.00  0.00    +0.002 A 
ATOM     29  C   UNL     1      -1.537   1.927   3.646  0.00  0.00    -0.064 A 
ATOM     30  C   UNL     1      -0.947   2.914   4.413  0.00  0.00    +0.002 A 
ATOM     31  C   UNL     1      -1.671   3.538   5.412  0.00  0.00    +0.000 A 
ENDBRANCH  25  29
ENDBRANCH  22  25
ENDBRANCH  18  22
ENDBRANCH  17  18
ENDBRANCH   1  17
TORSDOF 9
