REMARK  Name = ZINC63221869
REMARK  8 active torsions:
REMARK  status: ('A' for Active; 'I' for Inactive)
REMARK    1  A    between atoms: C_1  and  N_2
REMARK    2  A    between atoms: N_2  and  C_3
REMARK    3  A    between atoms: N_2  and  C_4
REMARK    4  A    between atoms: C_7  and  C_10
REMARK    5  A    between atoms: C_10  and  C_12
REMARK    6  A    between atoms: C_10  and  C_30
REMARK    7  A    between atoms: C_12  and  N_13
REMARK    8  A    between atoms: C_22  and  C_24
REMARK                            x       y       z     vdW  Elec       q    Type
REMARK                         _______ _______ _______ _____ _____    ______ ____
ROOT
ATOM      1  C   UNL     1      -4.870  -2.906   0.033  0.00  0.00    +0.064 C 
ENDROOT
BRANCH   1   2
ATOM      2  C   UNL     1      -5.673  -2.551  -1.191  0.00  0.00    -0.033 C 
ATOM      3  C   UNL     1      -6.091  -3.394  -2.163  0.00  0.00    -0.000 A 
ATOM      4  C   UNL     1      -5.926  -4.839  -2.364  0.00  0.00    +0.010 A 
ATOM      5  C   UNL     1      -6.470  -5.415  -3.460  0.00  0.00    +0.001 A 
ATOM      6  C   UNL     1      -7.184  -4.668  -4.407  0.00  0.00    +0.002 A 
ATOM      7  C   UNL     1      -7.377  -3.337  -4.292  0.00  0.00    +0.026 A 
ATOM      8  C   UNL     1      -6.849  -2.628  -3.178  0.00  0.00    +0.043 A 
ATOM      9  N   UNL     1      -6.899  -1.361  -2.846  0.00  0.00    -0.380 N 
ATOM     10  C   UNL     1      -6.182  -1.180  -1.579  0.00  0.00    +0.145 C 
ATOM     11  H   UNL     1      -7.340  -0.661  -3.352  0.00  0.00    +0.160 HD
ENDBRANCH   1   2
BRANCH   1  15
ATOM     12  C   UNL     1      -1.198  -0.719   0.010  0.00  0.00    +0.029 A 
ATOM     13  C   UNL     1      -1.181  -2.108   0.008  0.00  0.00    +0.023 A 
ATOM     14  C   UNL     1      -2.369  -2.812   0.016  0.00  0.00    +0.006 A 
ATOM     15  C   UNL     1      -3.575  -2.135   0.025  0.00  0.00    -0.039 A 
ATOM     16  C   UNL     1      -3.596  -0.752   0.027  0.00  0.00    +0.006 A 
ATOM     17  C   UNL     1      -2.411  -0.042   0.025  0.00  0.00    +0.023 A 
BRANCH  12  19
ATOM     18  C   UNL     1      -0.018   1.461   0.010  0.00  0.00    +0.129 C 
ATOM     19  N   UNL     1       0.002  -0.004   0.002  0.00  0.00    -0.336 N 
ATOM     20  C   UNL     1       1.281  -0.719  -0.014  0.00  0.00    +0.129 C 
ENDBRANCH  12  19
ENDBRANCH   1  15
BRANCH   1  21
ATOM     21  C   UNL     1      -5.668  -2.549   1.288  0.00  0.00    +0.115 C 
BRANCH  21  22
ATOM     22  N   UNL     1      -6.869  -3.385   1.357  0.00  0.00    -0.328 N 
ATOM     23  C   UNL     1      -7.750  -3.243   2.409  0.00  0.00    +0.130 A 
ATOM     24  C   UNL     1      -8.914  -4.046   2.496  0.00  0.00    +0.040 A 
ATOM     25  C   UNL     1      -9.223  -5.011   1.532  0.00  0.00    +0.013 A 
ATOM     26  C   UNL     1     -10.358  -5.757   1.667  0.00  0.00    +0.001 A 
ATOM     27  C   UNL     1     -11.212  -5.570   2.750  0.00  0.00    +0.002 A 
ATOM     28  C   UNL     1     -10.940  -4.638   3.706  0.00  0.00    +0.028 A 
ATOM     29  C   UNL     1      -9.782  -3.854   3.599  0.00  0.00    +0.077 A 
ATOM     30  N   UNL     1      -9.469  -2.925   4.513  0.00  0.00    -0.227 NA
ATOM     31  C   UNL     1      -8.371  -2.204   4.384  0.00  0.00    +0.164 A 
ATOM     32  N   UNL     1      -7.526  -2.355   3.366  0.00  0.00    -0.212 NA
ATOM     33  H   UNL     1      -7.045  -4.039   0.663  0.00  0.00    +0.147 HD
BRANCH  31  34
ATOM     34  C   UNL     1      -8.064  -1.187   5.418  0.00  0.00    +0.037 A 
ATOM     35  C   UNL     1      -8.918  -1.002   6.509  0.00  0.00    +0.014 A 
ATOM     36  C   UNL     1      -8.586  -0.039   7.447  0.00  0.00    +0.020 A 
ATOM     37  C   UNL     1      -7.431   0.702   7.276  0.00  0.00    +0.111 A 
ATOM     38  N   UNL     1      -6.645   0.506   6.235  0.00  0.00    -0.263 NA
ATOM     39  C   UNL     1      -6.916  -0.403   5.320  0.00  0.00    +0.122 A 
ENDBRANCH  31  34
ENDBRANCH  21  22
ENDBRANCH   1  21
TORSDOF 6
