REMARK  Name = ZINC45849373
REMARK  12 active torsions:
REMARK  status: ('A' for Active; 'I' for Inactive)
REMARK    1  A    between atoms: C_1  and  C_2
REMARK    2  A    between atoms: C_2  and  C_3
REMARK    3  A    between atoms: C_2  and  C_4
REMARK    4  A    between atoms: C_2  and  N_5
REMARK    5  A    between atoms: C_6  and  C_8
REMARK    6  A    between atoms: C_8  and  N_9
REMARK    7  A    between atoms: N_13  and  C_16
REMARK    8  A    between atoms: C_16  and  C_17
REMARK    9  A    between atoms: N_19  and  C_20
REMARK   10  A    between atoms: C_21  and  C_28
REMARK   11  A    between atoms: C_28  and  O_30
REMARK   12  A    between atoms: O_30  and  C_31
REMARK                            x       y       z     vdW  Elec       q    Type
REMARK                         _______ _______ _______ _____ _____    ______ ____
ROOT
ATOM      1  N   UNL     1       6.370   0.282  -0.948  0.00  0.00    -0.296 NA
ATOM      2  C   UNL     1       6.998   1.625  -0.938  0.00  0.00    +0.083 C 
ATOM      3  C   UNL     1       8.455   1.475  -1.294  0.00  0.00    -0.003 C 
ATOM      4  C   UNL     1       8.715   1.635  -2.801  0.00  0.00    -0.077 C 
ATOM      5  N   UNL     1       7.697   0.954  -3.631  0.00  0.00    +0.386 N 
ATOM      6  C   UNL     1       7.340  -0.344  -3.104  0.00  0.00    -0.063 C 
ATOM      7  C   UNL     1       6.079  -0.188  -2.233  0.00  0.00    +0.066 C 
ATOM      8  H   UNL     1       6.869   1.530  -3.672  0.00  0.00    -0.081 HD
ENDROOT
BRANCH   1   9
ATOM      9  C   UNL     1       5.176   0.252  -0.093  0.00  0.00    +0.180 C 
BRANCH   9  11
ATOM     10  N   UNL     1       4.635   0.549   2.302  0.00  0.00    -0.310 N 
ATOM     11  C   UNL     1       5.573   0.526   1.334  0.00  0.00    +0.227 C 
ATOM     12  O   UNL     1       6.736   0.727   1.613  0.00  0.00    -0.274 OA
ATOM     13  H   UNL     1       3.705   0.388   2.080  0.00  0.00    +0.149 HD
BRANCH  10  15
ATOM     14  C   UNL     1       5.679   2.193   3.781  0.00  0.00    +0.031 C 
ATOM     15  C   UNL     1       5.021   0.815   3.690  0.00  0.00    +0.026 C 
ATOM     16  C   UNL     1       6.010  -0.254   4.159  0.00  0.00    +0.031 C 
ATOM     17  C   UNL     1       3.777   0.784   4.580  0.00  0.00    +0.031 C 
ENDBRANCH  10  15
ENDBRANCH   9  11
ENDBRANCH   1   9
BRANCH   5  18
ATOM     18  C   UNL     1       8.225   0.786  -4.992  0.00  0.00    +0.019 C 
BRANCH  18  19
ATOM     19  C   UNL     1       8.424   2.139  -5.624  0.00  0.00    +0.201 C 
ATOM     20  O   UNL     1       8.152   3.145  -5.002  0.00  0.00    -0.278 OA
ATOM     21  N   UNL     1       8.904   2.233  -6.880  0.00  0.00    -0.285 N 
ATOM     22  H   UNL     1       9.174   1.432  -7.356  0.00  0.00    +0.155 HD
BRANCH  21  23
ATOM     23  C   UNL     1       9.012   3.479  -7.493  0.00  0.00    +0.066 A 
ATOM     24  C   UNL     1      10.268   3.960  -7.896  0.00  0.00    +0.083 A 
ATOM     25  C   UNL     1      10.363   5.211  -8.510  0.00  0.00    +0.037 A 
ATOM     26  C   UNL     1       9.226   5.965  -8.717  0.00  0.00    +0.043 A 
ATOM     27  C   UNL     1       7.988   5.487  -8.318  0.00  0.00    +0.042 A 
ATOM     28  C   UNL     1       7.878   4.249  -7.715  0.00  0.00    +0.064 A 
ATOM     29 CL   UNL     1       6.320   3.658  -7.227  0.00  0.00    -0.082 Cl
ATOM     30 CL   UNL     1       9.348   7.519  -9.480  0.00  0.00    -0.083 Cl
BRANCH  24  31
ATOM     31  C   UNL     1      11.479   3.150  -7.671  0.00  0.00    +0.341 C 
ATOM     32  O   UNL     1      11.410   2.118  -7.034  0.00  0.00    -0.245 OA
BRANCH  31  33
ATOM     33  O   UNL     1      12.662   3.554  -8.173  0.00  0.00    -0.464 OA
ATOM     34  C   UNL     1      13.794   2.721  -7.917  0.00  0.00    +0.280 C 
ENDBRANCH  31  33
ENDBRANCH  24  31
ENDBRANCH  21  23
ENDBRANCH  18  19
ENDBRANCH   5  18
TORSDOF 8
