REMARK  Name = ZINC45066694
REMARK  8 active torsions:
REMARK  status: ('A' for Active; 'I' for Inactive)
REMARK    1  A    between atoms: C_1  and  C_2
REMARK    2  A    between atoms: C_2  and  C_4
REMARK    3  A    between atoms: C_2  and  N_11
REMARK    4  A    between atoms: N_11  and  C_12
REMARK    5  A    between atoms: C_12  and  C_13
REMARK    6  A    between atoms: C_13  and  C_14
REMARK    7  A    between atoms: C_14  and  S_15
REMARK    8  A    between atoms: S_15  and  N_18
REMARK                            x       y       z     vdW  Elec       q    Type
REMARK                         _______ _______ _______ _____ _____    ______ ____
ROOT
ATOM      1  N   UNL     1       0.713  -0.491   1.192  0.00  0.00    +0.383 N 
ATOM      2  H   UNL     1       0.290  -0.099   2.020  0.00  0.00    -0.085 HD
ATOM      3  H   UNL     1       0.655  -1.497   1.230  0.00  0.00    -0.085 HD
ENDROOT
BRANCH   1   5
ATOM      4  C   UNL     1      -0.019   1.526   0.010  0.00  0.00    -0.009 C 
ATOM      5  C   UNL     1       0.002  -0.004   0.002  0.00  0.00    -0.044 C 
BRANCH   5   6
ATOM      6  C   UNL     1      -1.412  -0.526   0.013  0.00  0.00    -0.061 A 
ATOM      7  C   UNL     1      -2.123  -0.571   1.198  0.00  0.00    +0.002 A 
ATOM      8  C   UNL     1      -3.420  -1.049   1.208  0.00  0.00    +0.001 A 
ATOM      9  C   UNL     1      -4.006  -1.483   0.034  0.00  0.00    +0.015 A 
ATOM     10  C   UNL     1      -3.295  -1.437  -1.152  0.00  0.00    +0.018 A 
ATOM     11  C   UNL     1      -1.999  -0.954  -1.163  0.00  0.00    +0.017 A 
ATOM     12 BR   UNL     1      -4.097  -2.031  -2.759  0.00  0.00    -0.050 Br
ENDBRANCH   5   6
ENDBRANCH   1   5
BRANCH   1  13
ATOM     13  C   UNL     1       2.122  -0.083   1.122  0.00  0.00    -0.080 C 
BRANCH  13  14
ATOM     14  C   UNL     1       2.862  -0.589   2.361  0.00  0.00    +0.005 C 
BRANCH  14  15
ATOM     15  C   UNL     1       4.330  -0.164   2.288  0.00  0.00    +0.183 C 
BRANCH  15  16
ATOM     16  S   UNL     1       5.207  -0.765   3.758  0.00  0.00    +0.027 S 
ATOM     17  O   UNL     1       4.742  -0.087   4.917  0.00  0.00    -0.158 OA
ATOM     18  O   UNL     1       5.290  -2.183   3.733  0.00  0.00    -0.158 OA
BRANCH  16  19
ATOM     19  N   UNL     1       6.768  -0.247   3.563  0.00  0.00    -0.208 NA
ATOM     20  H   UNL     1       7.015   0.263   2.776  0.00  0.00    +0.144 HD
ATOM     21  H   UNL     1       7.435  -0.453   4.237  0.00  0.00    +0.144 HD
ENDBRANCH  16  19
ENDBRANCH  15  16
ENDBRANCH  14  15
ENDBRANCH  13  14
ENDBRANCH   1  13
TORSDOF 7
