REMARK  Name = ZINC36122159
REMARK  15 active torsions:
REMARK  status: ('A' for Active; 'I' for Inactive)
REMARK    1  A    between atoms: C_1  and  C_2
REMARK    2  A    between atoms: C_2  and  C_3
REMARK    3  A    between atoms: C_2  and  C_4
REMARK    4  A    between atoms: C_7  and  O_10
REMARK    5  A    between atoms: O_10  and  C_11
REMARK    6  A    between atoms: C_11  and  C_12
REMARK    7  A    between atoms: C_22  and  C_24
REMARK    8  A    between atoms: C_24  and  N_25
REMARK    9  A    between atoms: N_25  and  C_26
REMARK   10  A    between atoms: C_26  and  C_27
REMARK   11  A    between atoms: C_27  and  N_28
REMARK   12  A    between atoms: N_35  and  C_36
REMARK   13  A    between atoms: C_36  and  C_37
REMARK   14  A    between atoms: C_36  and  C_38
REMARK   15  A    between atoms: C_36  and  C_39
REMARK                            x       y       z     vdW  Elec       q    Type
REMARK                         _______ _______ _______ _____ _____    ______ ____
ROOT
ATOM      1  C   UNL     1      -7.135  -3.208  -0.872  0.00  0.00    +0.144 C 
ATOM      2  C   UNL     1      -7.307  -3.873   0.492  0.00  0.00    -0.014 A 
ATOM      3  C   UNL     1      -6.832  -5.151   0.784  0.00  0.00    +0.013 A 
ATOM      4  C   UNL     1      -7.018  -5.676   2.016  0.00  0.00    +0.046 A 
ATOM      5  S   UNL     1      -7.895  -4.361   2.849  0.00  0.00    -0.101 S 
ATOM      6  C   UNL     1      -7.950  -3.216   1.495  0.00  0.00    -0.004 A 
ATOM      7  C   UNL     1      -8.561  -1.853   1.457  0.00  0.00    +0.061 C 
ATOM      8  C   UNL     1      -8.017  -1.104   0.231  0.00  0.00    +0.114 C 
ATOM      9  N   UNL     1      -8.012  -2.030  -0.913  0.00  0.00    -0.289 N 
ATOM     10  C   UNL     1      -8.801  -1.802  -1.982  0.00  0.00    +0.234 C 
ATOM     11  O   UNL     1      -8.790  -2.572  -2.919  0.00  0.00    -0.274 OA
ENDROOT
BRANCH   1  12
ATOM     12  C   UNL     1      -5.679  -2.776  -1.058  0.00  0.00    +0.256 C 
BRANCH  12  13
ATOM     13  O   UNL     1      -5.282  -1.955   0.043  0.00  0.00    -0.490 OA
BRANCH  13  17
ATOM     14  C   UNL     1      -1.412  -0.526   0.013  0.00  0.00    -0.045 A 
ATOM     15  C   UNL     1      -2.258  -0.203   1.057  0.00  0.00    +0.007 A 
ATOM     16  C   UNL     1      -3.555  -0.681   1.070  0.00  0.00    +0.046 A 
ATOM     17  C   UNL     1      -4.007  -1.484   0.033  0.00  0.00    +0.121 A 
ATOM     18  C   UNL     1      -3.156  -1.805  -1.015  0.00  0.00    +0.046 A 
ATOM     19  C   UNL     1      -1.862  -1.321  -1.025  0.00  0.00    +0.007 A 
BRANCH  14  21
ATOM     20  C   UNL     1      -0.019   1.526   0.010  0.00  0.00    +0.012 C 
ATOM     21  C   UNL     1       0.002  -0.004   0.002  0.00  0.00    +0.013 C 
ATOM     22  C   UNL     1       0.742  -0.511   1.242  0.00  0.00    +0.012 C 
ENDBRANCH  14  21
ENDBRANCH  13  17
ENDBRANCH  12  13
ENDBRANCH   1  12
BRANCH  10  23
ATOM     23  C   UNL     1      -9.697  -0.591  -2.012  0.00  0.00    +0.205 C 
BRANCH  23  24
ATOM     24  N   UNL     1     -10.447  -0.570  -3.270  0.00  0.00    -0.279 N 
ATOM     25  C   UNL     1      -9.938   0.059  -4.348  0.00  0.00    +0.303 C 
ATOM     26  O   UNL     1     -10.560   0.077  -5.392  0.00  0.00    -0.253 OA
ATOM     27  N   UNL     1      -8.739   0.669  -4.268  0.00  0.00    -0.294 N 
ATOM     28  H   UNL     1      -8.242   0.655  -3.435  0.00  0.00    +0.151 HD
BRANCH  27  29
ATOM     29  C   UNL     1      -8.185   1.353  -5.440  0.00  0.00    +0.028 C 
ATOM     30  C   UNL     1      -9.138   2.467  -5.877  0.00  0.00    +0.031 C 
ATOM     31  C   UNL     1      -6.825   1.955  -5.083  0.00  0.00    +0.031 C 
ATOM     32  C   UNL     1      -8.014   0.350  -6.582  0.00  0.00    +0.031 C 
ENDBRANCH  27  29
BRANCH  24  33
ATOM     33  C   UNL     1     -11.751  -1.232  -3.357  0.00  0.00    +0.091 C 
BRANCH  33  34
ATOM     34  C   UNL     1     -12.853  -0.240  -2.980  0.00  0.00    -0.060 C 
BRANCH  34  35
ATOM     35  N   UNL     1     -14.161  -0.905  -3.067  0.00  0.00    +0.381 N 
ATOM     36  C   UNL     1     -14.287  -1.928  -1.998  0.00  0.00    -0.079 C 
ATOM     37  C   UNL     1     -15.820  -2.109  -1.860  0.00  0.00    -0.020 C 
ATOM     38  C   UNL     1     -16.357  -0.673  -2.058  0.00  0.00    -0.020 C 
ATOM     39  C   UNL     1     -15.245   0.070  -2.823  0.00  0.00    -0.079 C 
ATOM     40  H   UNL     1     -14.274  -1.332  -3.974  0.00  0.00    -0.082 HD
ENDBRANCH  34  35
ENDBRANCH  33  34
ENDBRANCH  24  33
ENDBRANCH  23  24
ENDBRANCH  10  23
TORSDOF 10
