REMARK  Name = ZINC05004095
REMARK  10 active torsions:
REMARK  status: ('A' for Active; 'I' for Inactive)
REMARK    1  A    between atoms: C_1  and  C_2
REMARK    2  A    between atoms: C_2  and  C_3
REMARK    3  A    between atoms: C_3  and  O_33
REMARK    4  A    between atoms: C_5  and  O_32
REMARK    5  A    between atoms: C_12  and  O_13
REMARK    6  A    between atoms: C_17  and  O_25
REMARK    7  A    between atoms: C_20  and  O_24
REMARK    8  A    between atoms: C_26  and  C_28
REMARK    9  A    between atoms: C_28  and  O_30
REMARK   10  A    between atoms: O_30  and  C_31
REMARK                            x       y       z     vdW  Elec       q    Type
REMARK                         _______ _______ _______ _____ _____    ______ ____
ROOT
ATOM      1  C   UNL     1       1.576   2.067   0.121  0.00  0.00    +0.085 C 
ATOM      2  C   UNL     1       2.418   1.747   1.361  0.00  0.00    +0.072 C 
ATOM      3  C   UNL     1       3.848   2.221   1.107  0.00  0.00    +0.151 C 
ATOM      4  C   UNL     1       3.857   3.653   0.638  0.00  0.00    +0.027 A 
ATOM      5  C   UNL     1       2.736   4.276   0.140  0.00  0.00    -0.021 A 
ATOM      6  C   UNL     1       2.804   5.600  -0.286  0.00  0.00    +0.017 A 
ATOM      7  C   UNL     1       3.995   6.309  -0.211  0.00  0.00    +0.037 A 
ATOM      8  C   UNL     1       5.144   5.679   0.301  0.00  0.00    +0.075 A 
ATOM      9  C   UNL     1       5.066   4.351   0.722  0.00  0.00    +0.134 A 
ATOM     10  C   UNL     1       6.416   6.419   0.388  0.00  0.00    +0.202 C 
ATOM     11  O   UNL     1       7.409   5.874   0.831  0.00  0.00    -0.286 OA
ATOM     12  C   UNL     1       6.483   7.820  -0.064  0.00  0.00    +0.078 A 
ATOM     13  C   UNL     1       7.685   8.528   0.012  0.00  0.00    +0.129 A 
ATOM     14  C   UNL     1       7.739   9.852  -0.418  0.00  0.00    +0.050 A 
ATOM     15  C   UNL     1       6.615  10.471  -0.918  0.00  0.00    +0.050 A 
ATOM     16  C   UNL     1       5.407   9.782  -1.002  0.00  0.00    +0.129 A 
ATOM     17  C   UNL     1       5.333   8.453  -0.576  0.00  0.00    +0.078 A 
ATOM     18  C   UNL     1       4.061   7.715  -0.662  0.00  0.00    +0.198 C 
ATOM     19  O   UNL     1       3.069   8.260  -1.105  0.00  0.00    -0.286 OA
ATOM     20  C   UNL     1       1.402   3.582   0.036  0.00  0.00    +0.160 C 
ENDROOT
BRANCH   1  22
ATOM     21  C   UNL     1       0.385  -0.121   0.308  0.00  0.00    +0.007 C 
ATOM     22  C   UNL     1       0.206   1.397   0.241  0.00  0.00    +0.032 C 
ENDBRANCH   1  22
BRANCH   9  23
ATOM     23  O   UNL     1       6.167   3.735   1.217  0.00  0.00    -0.506 OA
ATOM     24  H   UNL     1       6.700   3.285   0.547  0.00  0.00    +0.292 HD
ENDBRANCH   9  23
BRANCH  16  25
ATOM     25  O   UNL     1       4.305  10.399  -1.496  0.00  0.00    -0.506 OA
ATOM     26  H   UNL     1       3.773  10.850  -0.826  0.00  0.00    +0.292 HD
ENDBRANCH  16  25
BRANCH  13  27
ATOM     27  O   UNL     1       8.797   7.927   0.503  0.00  0.00    -0.506 OA
ATOM     28  H   UNL     1       9.332   7.480  -0.167  0.00  0.00    +0.292 HD
ENDBRANCH  13  27
BRANCH  20  29
ATOM     29  C   UNL     1       0.513   4.043   1.162  0.00  0.00    +0.317 C 
ATOM     30  O   UNL     1       0.992   4.307   2.240  0.00  0.00    -0.250 OA
BRANCH  29  31
ATOM     31  O   UNL     1      -0.810   4.161   0.968  0.00  0.00    -0.467 OA
ATOM     32  C   UNL     1      -1.604   4.611   2.097  0.00  0.00    +0.280 C 
ENDBRANCH  29  31
ENDBRANCH  20  29
BRANCH   3  33
ATOM     33  O   UNL     1       4.447   1.395   0.107  0.00  0.00    -0.387 OA
ATOM     34  H   UNL     1       5.359   1.637  -0.108  0.00  0.00    +0.210 HD
ENDBRANCH   3  33
BRANCH   1  35
ATOM     35  O   UNL     1       2.243   1.592  -1.050  0.00  0.00    -0.387 OA
ATOM     36  H   UNL     1       2.394   0.637  -1.057  0.00  0.00    +0.210 HD
ENDBRANCH   1  35
TORSDOF 8
