REMARK  Name = ZINC34748208
REMARK  5 active torsions:
REMARK  status: ('A' for Active; 'I' for Inactive)
REMARK    1  A    between atoms: C_1  and  C_2
REMARK    2  A    between atoms: C_2  and  N_3
REMARK    3  A    between atoms: N_16  and  C_19
REMARK    4  A    between atoms: C_19  and  C_20
REMARK    5  A    between atoms: N_22  and  C_23
REMARK                            x       y       z     vdW  Elec       q    Type
REMARK                         _______ _______ _______ _____ _____    ______ ____
ROOT
ATOM      1  N   UNL     1      -2.775   0.136  -0.554  0.00  0.00    -0.281 N 
ATOM      2  C   UNL     1      -3.337  -0.068   0.652  0.00  0.00    +0.264 A 
ATOM      3  O   UNL     1      -3.928   0.835   1.220  0.00  0.00    -0.267 OA
ATOM      4  C   UNL     1      -3.230  -1.359   1.256  0.00  0.00    +0.076 A 
ATOM      5  C   UNL     1      -3.764  -1.799   2.556  0.00  0.00    -0.023 A 
ATOM      6  C   UNL     1      -3.530  -3.074   2.908  0.00  0.00    -0.004 A 
ATOM      7  S   UNL     1      -2.603  -3.763   1.556  0.00  0.00    -0.073 S 
ATOM      8  C   UNL     1      -2.531  -2.326   0.520  0.00  0.00    +0.117 A 
ATOM      9  N   UNL     1      -1.997  -2.060  -0.668  0.00  0.00    -0.208 NA
ATOM     10  C   UNL     1      -2.115  -0.864  -1.205  0.00  0.00    +0.202 A 
ATOM     11  N   UNL     1      -1.560  -0.618  -2.437  0.00  0.00    -0.304 N 
ATOM     12  C   UNL     1      -0.148  -0.225  -2.565  0.00  0.00    +0.089 C 
ATOM     13  C   UNL     1       0.514  -1.129  -3.610  0.00  0.00    -0.059 C 
ATOM     14  N   UNL     1      -0.248  -1.066  -4.864  0.00  0.00    +0.387 N 
ATOM     15  C   UNL     1      -1.593  -1.619  -4.659  0.00  0.00    -0.059 C 
ATOM     16  C   UNL     1      -2.358  -0.745  -3.665  0.00  0.00    +0.089 C 
ATOM     17  C   UNL     1      -4.116  -3.408   4.254  0.00  0.00    +0.043 C 
ATOM     18  C   UNL     1      -4.392  -2.036   4.908  0.00  0.00    +0.010 C 
ATOM     19  C   UNL     1      -4.569  -1.131   3.674  0.00  0.00    +0.037 C 
ATOM     20  H   UNL     1      -0.323  -0.105  -5.163  0.00  0.00    -0.081 HD
ENDROOT
BRANCH   1  22
ATOM     21  C   UNL     1      -4.095   1.483  -2.112  0.00  0.00    +0.027 C 
ATOM     22  C   UNL     1      -2.880   1.456  -1.182  0.00  0.00    +0.125 C 
ENDBRANCH   1  22
BRANCH  14  23
ATOM     23  C   UNL     1       0.447  -1.844  -5.897  0.00  0.00    +0.019 C 
BRANCH  23  24
ATOM     24  C   UNL     1      -0.268  -1.681  -7.214  0.00  0.00    +0.201 C 
ATOM     25  O   UNL     1      -1.258  -0.985  -7.285  0.00  0.00    -0.278 OA
ATOM     26  N   UNL     1       0.194  -2.309  -8.314  0.00  0.00    -0.287 N 
ATOM     27  H   UNL     1       0.933  -2.934  -8.241  0.00  0.00    +0.155 HD
BRANCH  26  28
ATOM     28  C   UNL     1      -0.391  -2.059  -9.560  0.00  0.00    +0.033 A 
ATOM     29  C   UNL     1      -1.020  -0.845  -9.802  0.00  0.00    +0.024 A 
ATOM     30  C   UNL     1      -1.597  -0.601 -11.034  0.00  0.00    +0.017 A 
ATOM     31  C   UNL     1      -1.548  -1.565 -12.025  0.00  0.00    +0.018 A 
ATOM     32  C   UNL     1      -0.921  -2.776 -11.786  0.00  0.00    +0.017 A 
ATOM     33  C   UNL     1      -0.339  -3.023 -10.559  0.00  0.00    +0.024 A 
ATOM     34 BR   UNL     1      -2.339  -1.228 -13.709  0.00  0.00    -0.050 Br
ENDBRANCH  26  28
ENDBRANCH  23  24
ENDBRANCH  14  23
TORSDOF 4
