REMARK  Name = ZINC59040259
REMARK  4 active torsions:
REMARK  status: ('A' for Active; 'I' for Inactive)
REMARK    1  A    between atoms: C_1  and  C_2
REMARK    2  A    between atoms: C_2  and  C_4
REMARK    3  A    between atoms: C_2  and  N_11
REMARK    4  A    between atoms: N_14  and  C_15
REMARK                            x       y       z     vdW  Elec       q    Type
REMARK                         _______ _______ _______ _____ _____    ______ ____
ROOT
ATOM      1  N   UNL     1       0.684  -1.069  -1.134  0.00  0.00    -0.293 N 
ATOM      2  C   UNL     1       0.004  -1.207  -2.289  0.00  0.00    +0.304 C 
ATOM      3  O   UNL     1      -1.181  -1.480  -2.268  0.00  0.00    -0.252 OA
ATOM      4  N   UNL     1       0.637  -1.043  -3.467  0.00  0.00    -0.268 N 
ATOM      5  H   UNL     1       1.629  -0.852  -1.150  0.00  0.00    +0.151 HD
ATOM      6  H   UNL     1       1.564  -0.759  -3.484  0.00  0.00    +0.156 HD
ENDROOT
BRANCH   4   7
ATOM      7  C   UNL     1      -0.045  -1.282  -4.669  0.00  0.00    +0.051 A 
ATOM      8  C   UNL     1      -1.400  -0.975  -4.785  0.00  0.00    +0.028 A 
ATOM      9  C   UNL     1      -2.032  -1.227  -5.988  0.00  0.00    +0.043 A 
ATOM     10  C   UNL     1      -1.300  -1.775  -7.037  0.00  0.00    +0.099 A 
ATOM     11  N   UNL     1      -0.015  -2.055  -6.891  0.00  0.00    -0.348 N 
ATOM     12  C   UNL     1       0.621  -1.822  -5.758  0.00  0.00    +0.107 A 
ATOM     13  N   UNL     1      -1.927  -2.033  -8.253  0.00  0.00    -0.317 N 
ATOM     14  C   UNL     1      -3.340  -1.770  -8.561  0.00  0.00    +0.106 C 
ATOM     15  C   UNL     1      -3.588  -2.237 -10.011  0.00  0.00    +0.020 C 
ATOM     16  C   UNL     1      -2.442  -3.256 -10.248  0.00  0.00    +0.020 C 
ATOM     17  C   UNL     1      -1.282  -2.609  -9.447  0.00  0.00    +0.106 C 
ATOM     18  H   UNL     1       0.473  -2.437  -7.637  0.00  0.00    +0.167 HD
ENDBRANCH   4   7
BRANCH   1  20
ATOM     19  C   UNL     1      -0.673   0.067   0.554  0.00  0.00    +0.033 C 
ATOM     20  C   UNL     1      -0.004  -1.248   0.147  0.00  0.00    +0.102 C 
BRANCH  20  21
ATOM     21  C   UNL     1       0.994  -1.651   1.202  0.00  0.00    -0.026 A 
ATOM     22  C   UNL     1       2.243  -1.059   1.234  0.00  0.00    +0.005 A 
ATOM     23  C   UNL     1       3.159  -1.429   2.201  0.00  0.00    +0.001 A 
ATOM     24  C   UNL     1       2.826  -2.391   3.136  0.00  0.00    +0.015 A 
ATOM     25  C   UNL     1       1.577  -2.983   3.105  0.00  0.00    +0.018 A 
ATOM     26  C   UNL     1       0.658  -2.609   2.140  0.00  0.00    +0.020 A 
ATOM     27 BR   UNL     1       1.122  -4.299   4.384  0.00  0.00    -0.050 Br
ENDBRANCH  20  21
ENDBRANCH   1  20
TORSDOF 3
