REMARK  Name = ZINC49238081
REMARK  8 active torsions:
REMARK  status: ('A' for Active; 'I' for Inactive)
REMARK    1  A    between atoms: C_1  and  C_2
REMARK    2  A    between atoms: C_2  and  C_4
REMARK    3  A    between atoms: C_2  and  N_22
REMARK    4  A    between atoms: C_8  and  S_10
REMARK    5  A    between atoms: S_10  and  N_13
REMARK    6  A    between atoms: C_16  and  C_19
REMARK    7  A    between atoms: C_19  and  C_20
REMARK    8  A    between atoms: C_19  and  C_21
REMARK                            x       y       z     vdW  Elec       q    Type
REMARK                         _______ _______ _______ _____ _____    ______ ____
ROOT
ATOM      1  S   UNL     1       4.399  -1.879   2.118  0.00  0.00    +0.101 S 
ATOM      2  O   UNL     1       4.941  -1.217   0.984  0.00  0.00    -0.146 OA
ATOM      3  O   UNL     1       4.961  -1.749   3.417  0.00  0.00    -0.146 OA
ENDROOT
BRANCH   1   4
ATOM      4  N   UNL     1       4.391  -3.496   1.764  0.00  0.00    -0.103 NA
ATOM      5  C   UNL     1       5.523  -4.139   1.615  0.00  0.00    +0.192 A 
ATOM      6  N   UNL     1       5.741  -5.467   1.317  0.00  0.00    -0.336 N 
ATOM      7  C   UNL     1       7.027  -5.908   1.211  0.00  0.00    +0.027 A 
ATOM      8  C   UNL     1       8.043  -5.064   1.395  0.00  0.00    +0.070 A 
ATOM      9  S   UNL     1       7.197  -3.528   1.734  0.00  0.00    -0.057 S 
ATOM     10  H   UNL     1       4.996  -6.074   1.185  0.00  0.00    +0.168 HD
BRANCH   7  11
ATOM     11  C   UNL     1       7.302  -7.354   0.887  0.00  0.00    +0.030 C 
ATOM     12  C   UNL     1       6.692  -8.244   1.971  0.00  0.00    +0.013 C 
ATOM     13  C   UNL     1       6.679  -7.700  -0.467  0.00  0.00    +0.013 C 
ENDBRANCH   7  11
ENDBRANCH   1   4
BRANCH   1  18
ATOM     14  C   UNL     1       0.731  -0.503   1.223  0.00  0.00    -0.060 A 
ATOM     15  C   UNL     1       0.081  -0.558   2.442  0.00  0.00    +0.002 A 
ATOM     16  C   UNL     1       0.749  -1.016   3.562  0.00  0.00    +0.002 A 
ATOM     17  C   UNL     1       2.068  -1.420   3.463  0.00  0.00    +0.029 A 
ATOM     18  C   UNL     1       2.718  -1.365   2.244  0.00  0.00    +0.113 A 
ATOM     19  C   UNL     1       2.048  -0.911   1.123  0.00  0.00    +0.031 A 
BRANCH  14  21
ATOM     20  C   UNL     1      -0.019   1.526   0.010  0.00  0.00    -0.009 C 
ATOM     21  C   UNL     1       0.002  -0.004   0.002  0.00  0.00    -0.047 C 
BRANCH  21  22
ATOM     22  N   UNL     1      -1.376  -0.512   0.012  0.00  0.00    +0.382 N 
ATOM     23  H   UNL     1      -1.864  -0.178  -0.805  0.00  0.00    -0.089 HD
ATOM     24  H   UNL     1      -1.362  -1.521   0.007  0.00  0.00    -0.089 HD
ATOM     25  H   UNL     1      -1.848  -0.187   0.843  0.00  0.00    -0.089 HD
ENDBRANCH  21  22
ENDBRANCH  14  21
ENDBRANCH   1  18
TORSDOF 5
