REMARK  Name = ZINC09461547
REMARK  8 active torsions:
REMARK  status: ('A' for Active; 'I' for Inactive)
REMARK    1  A    between atoms: C_1  and  O_2
REMARK    2  A    between atoms: O_2  and  C_3
REMARK    3  A    between atoms: C_6  and  C_9
REMARK    4  A    between atoms: C_20  and  C_22
REMARK    5  A    between atoms: C_25  and  O_28
REMARK    6  A    between atoms: O_28  and  C_29
REMARK    7  A    between atoms: C_35  and  S_37
REMARK    8  A    between atoms: S_37  and  C_38
REMARK                            x       y       z     vdW  Elec       q    Type
REMARK                         _______ _______ _______ _____ _____    ______ ____
ROOT
ATOM      1  C   UNL     1      -4.981  -2.629   0.035  0.00  0.00    +0.159 C 
ATOM      2  C   UNL     1      -5.329  -3.000  -1.390  0.00  0.00    +0.025 C 
ATOM      3  C   UNL     1      -5.537  -4.302  -1.674  0.00  0.00    +0.058 C 
ATOM      4  C   UNL     1      -5.868  -4.651  -3.079  0.00  0.00    +0.042 A 
ATOM      5  C   UNL     1      -6.406  -5.887  -3.411  0.00  0.00    +0.033 A 
ATOM      6  C   UNL     1      -6.702  -6.170  -4.732  0.00  0.00    +0.042 A 
ATOM      7  C   UNL     1      -6.461  -5.227  -5.717  0.00  0.00    +0.023 A 
ATOM      8  C   UNL     1      -5.924  -3.994  -5.394  0.00  0.00    +0.048 A 
ATOM      9  C   UNL     1      -5.623  -3.698  -4.076  0.00  0.00    +0.131 A 
ATOM     10  O   UNL     1      -5.089  -2.499  -3.731  0.00  0.00    -0.479 OA
ATOM     11  C   UNL     1      -5.449  -1.955  -2.460  0.00  0.00    +0.234 C 
ATOM     12 CL   UNL     1      -7.375  -7.713  -5.157  0.00  0.00    -0.084 Cl
ATOM     13  N   UNL     1      -5.449  -5.260  -0.719  0.00  0.00    -0.326 N 
ATOM     14  C   UNL     1      -5.153  -5.025   0.541  0.00  0.00    +0.216 C 
ATOM     15  N   UNL     1      -4.905  -3.745   0.987  0.00  0.00    -0.209 N 
ATOM     16  N   UNL     1      -4.620  -3.840   2.351  0.00  0.00    -0.239 N 
ATOM     17  C   UNL     1      -4.709  -5.170   2.671  0.00  0.00    +0.174 C 
ATOM     18  N   UNL     1      -5.025  -5.848   1.598  0.00  0.00    -0.192 NA
ATOM     19  H   UNL     1      -5.615  -6.178  -0.982  0.00  0.00    +0.169 HD
ATOM     20  H   UNL     1      -4.404  -3.111   2.952  0.00  0.00    +0.172 HD
ENDROOT
BRANCH   1  24
ATOM     21  C   UNL     1      -1.200  -0.637   0.010  0.00  0.00    +0.120 A 
ATOM     22  C   UNL     1      -2.375   0.101   0.019  0.00  0.00    +0.046 A 
ATOM     23  C   UNL     1      -3.596  -0.545   0.027  0.00  0.00    +0.009 A 
ATOM     24  C   UNL     1      -3.648  -1.927   0.026  0.00  0.00    -0.021 A 
ATOM     25  C   UNL     1      -2.479  -2.665   0.017  0.00  0.00    +0.009 A 
ATOM     26  C   UNL     1      -1.255  -2.024   0.003  0.00  0.00    +0.046 A 
BRANCH  21  28
ATOM     27  C   UNL     1      -0.017   1.425   0.010  0.00  0.00    +0.277 C 
ATOM     28  O   UNL     1       0.002  -0.004   0.002  0.00  0.00    -0.495 OA
ENDBRANCH  21  28
ENDBRANCH   1  24
BRANCH  11  29
ATOM     29  C   UNL     1      -6.871  -1.459  -2.514  0.00  0.00    -0.003 A 
ATOM     30  C   UNL     1      -7.836  -2.202  -3.169  0.00  0.00    +0.011 A 
ATOM     31  C   UNL     1      -9.141  -1.750  -3.221  0.00  0.00    +0.046 A 
ATOM     32  C   UNL     1      -9.482  -0.549  -2.615  0.00  0.00    +0.120 A 
ATOM     33  C   UNL     1      -8.511   0.194  -1.959  0.00  0.00    +0.046 A 
ATOM     34  C   UNL     1      -7.210  -0.265  -1.905  0.00  0.00    +0.011 A 
BRANCH  32  35
ATOM     35  O   UNL     1     -10.764  -0.102  -2.665  0.00  0.00    -0.495 OA
ATOM     36  C   UNL     1     -11.043   1.143  -2.020  0.00  0.00    +0.277 C 
ENDBRANCH  32  35
ENDBRANCH  11  29
BRANCH  17  37
ATOM     37  S   UNL     1      -4.445  -5.856   4.272  0.00  0.00    -0.092 S 
ATOM     38  C   UNL     1      -4.707  -7.635   4.036  0.00  0.00    +0.093 C 
ENDBRANCH  17  37
TORSDOF 5
