REMARK  Name = ZINC48756730
REMARK  9 active torsions:
REMARK  status: ('A' for Active; 'I' for Inactive)
REMARK    1  A    between atoms: C_1  and  C_2
REMARK    2  A    between atoms: C_5  and  C_27
REMARK    3  A    between atoms: C_6  and  N_8
REMARK    4  A    between atoms: C_9  and  C_11
REMARK    5  A    between atoms: N_13  and  C_14
REMARK    6  A    between atoms: C_14  and  C_16
REMARK    7  A    between atoms: C_14  and  C_17
REMARK    8  A    between atoms: C_20  and  S_23
REMARK    9  A    between atoms: S_23  and  N_26
REMARK                            x       y       z     vdW  Elec       q    Type
REMARK                         _______ _______ _______ _____ _____    ______ ____
ROOT
ATOM      1  C   UNL     1       0.278  -2.893   4.840  0.00  0.00    +0.300 C 
ATOM      2  O   UNL     1       0.293  -4.107   4.827  0.00  0.00    -0.265 OA
ATOM      3  N   UNL     1       0.376  -2.231   6.010  0.00  0.00    -0.301 N 
ATOM      4  H   UNL     1       0.363  -1.261   6.020  0.00  0.00    +0.150 HD
ENDROOT
BRANCH   1   6
ATOM      5  N   UNL     1       0.051  -2.797   2.391  0.00  0.00    -0.278 N 
ATOM      6  C   UNL     1       0.149  -2.134   3.560  0.00  0.00    +0.303 C 
ATOM      7  O   UNL     1       0.134  -0.921   3.573  0.00  0.00    -0.265 OA
ATOM      8  H   UNL     1      -0.017  -3.765   2.386  0.00  0.00    +0.155 HD
BRANCH   5  14
ATOM      9  C   UNL     1       1.265   1.227  -0.158  0.00  0.00    +0.044 C 
ATOM     10  C   UNL     1       0.628  -0.137  -0.079  0.00  0.00    -0.049 A 
ATOM     11  C   UNL     1       0.039  -0.690  -1.201  0.00  0.00    +0.004 A 
ATOM     12  C   UNL     1      -0.546  -1.941  -1.133  0.00  0.00    +0.005 A 
ATOM     13  C   UNL     1      -0.544  -2.643   0.056  0.00  0.00    -0.029 A 
ATOM     14  C   UNL     1       0.047  -2.090   1.185  0.00  0.00    +0.037 A 
ATOM     15  C   UNL     1       0.639  -0.835   1.112  0.00  0.00    +0.027 A 
ATOM     16  C   UNL     1      -1.182  -4.006   0.129  0.00  0.00    +0.045 C 
ENDBRANCH   5  14
ENDBRANCH   1   6
BRANCH   3  17
ATOM     17  C   UNL     1       0.502  -2.975   7.265  0.00  0.00    +0.101 C 
ATOM     18  C   UNL     1      -0.890  -3.363   7.770  0.00  0.00    +0.033 C 
BRANCH  17  19
ATOM     19  C   UNL     1       1.187  -2.113   8.294  0.00  0.00    -0.027 A 
ATOM     20  C   UNL     1       0.878  -0.769   8.386  0.00  0.00    +0.007 A 
ATOM     21  C   UNL     1       1.507   0.022   9.329  0.00  0.00    +0.029 A 
ATOM     22  C   UNL     1       2.444  -0.532  10.181  0.00  0.00    +0.105 A 
ATOM     23  C   UNL     1       2.753  -1.876  10.089  0.00  0.00    +0.029 A 
ATOM     24  C   UNL     1       2.121  -2.668   9.149  0.00  0.00    +0.007 A 
BRANCH  22  25
ATOM     25  S   UNL     1       3.247   0.476  11.383  0.00  0.00    +0.056 S 
ATOM     26  O   UNL     1       4.478  -0.163  11.693  0.00  0.00    -0.153 OA
ATOM     27  O   UNL     1       3.182   1.812  10.902  0.00  0.00    -0.153 OA
BRANCH  25  28
ATOM     28  N   UNL     1       2.327   0.424  12.759  0.00  0.00    -0.204 NA
ATOM     29  H   UNL     1       1.512  -0.103  12.778  0.00  0.00    +0.144 HD
ATOM     30  H   UNL     1       2.602   0.920  13.546  0.00  0.00    +0.144 HD
ENDBRANCH  25  28
ENDBRANCH  22  25
ENDBRANCH  17  19
ENDBRANCH   3  17
TORSDOF 6
