REMARK  Name = ZINC52488381
REMARK  6 active torsions:
REMARK  status: ('A' for Active; 'I' for Inactive)
REMARK    1  A    between atoms: C_1  and  C_2
REMARK    2  A    between atoms: C_5  and  C_8
REMARK    3  A    between atoms: C_8  and  C_10
REMARK    4  A    between atoms: C_8  and  N_20
REMARK    5  A    between atoms: C_10  and  N_11
REMARK    6  A    between atoms: C_14  and  C_19
REMARK                            x       y       z     vdW  Elec       q    Type
REMARK                         _______ _______ _______ _____ _____    ______ ____
ROOT
ATOM      1  C   UNL     1       0.059  -4.275  -0.021  0.00  0.00    +0.104 C 
ENDROOT
BRANCH   1   6
ATOM      2  C   UNL     1      -0.916   1.384  -0.666  0.00  0.00    +0.044 C 
ATOM      3  C   UNL     1      -0.661  -0.092  -0.498  0.00  0.00    -0.050 A 
ATOM      4  C   UNL     1       0.083  -0.547   0.574  0.00  0.00    +0.003 A 
ATOM      5  C   UNL     1       0.316  -1.901   0.729  0.00  0.00    +0.005 A 
ATOM      6  C   UNL     1      -0.196  -2.800  -0.189  0.00  0.00    -0.029 A 
ATOM      7  C   UNL     1      -0.941  -2.344  -1.261  0.00  0.00    +0.005 A 
ATOM      8  C   UNL     1      -1.177  -0.991  -1.413  0.00  0.00    +0.003 A 
ENDBRANCH   1   6
BRANCH   1   9
ATOM      9  N   UNL     1      -0.722  -4.781   1.115  0.00  0.00    -0.290 NA
ATOM     10  C   UNL     1      -0.339  -4.104   2.362  0.00  0.00    +0.113 C 
ATOM     11  C   UNL     1      -1.133  -4.702   3.526  0.00  0.00    +0.175 C 
ATOM     12  O   UNL     1      -2.532  -4.582   3.253  0.00  0.00    -0.377 OA
ATOM     13  C   UNL     1      -2.940  -5.232   2.046  0.00  0.00    +0.175 C 
ATOM     14  C   UNL     1      -2.164  -4.639   0.867  0.00  0.00    +0.113 C 
ENDBRANCH   1   9
BRANCH   1  15
ATOM     15  C   UNL     1       1.549  -4.509   0.240  0.00  0.00    +0.126 C 
BRANCH  15  16
ATOM     16  N   UNL     1       1.778  -5.928   0.521  0.00  0.00    -0.327 N 
ATOM     17  C   UNL     1       3.059  -6.383   0.789  0.00  0.00    +0.124 A 
ATOM     18  C   UNL     1       4.138  -5.496   0.801  0.00  0.00    +0.064 A 
ATOM     19  C   UNL     1       5.397  -5.994   1.074  0.00  0.00    +0.019 A 
ATOM     20  N   UNL     1       5.544  -7.288   1.316  0.00  0.00    -0.332 N 
ATOM     21  C   UNL     1       4.503  -8.107   1.298  0.00  0.00    +0.192 A 
ATOM     22  N   UNL     1       3.278  -7.668   1.046  0.00  0.00    -0.201 NA
ATOM     23  N   UNL     1       4.698  -9.453   1.555  0.00  0.00    -0.329 N 
ATOM     24  C   UNL     1       6.591  -5.074   1.097  0.00  0.00    +0.063 C 
ATOM     25  H   UNL     1       1.034  -6.550   0.519  0.00  0.00    +0.148 HD
ATOM     26  H   UNL     1       5.589  -9.786   1.745  0.00  0.00    +0.145 HD
ATOM     27  H   UNL     1       3.944 -10.063   1.545  0.00  0.00    +0.145 HD
ATOM     28  H   UNL     1       6.427  -7.641   1.508  0.00  0.00    +0.168 HD
ENDBRANCH  15  16
ENDBRANCH   1  15
TORSDOF 4
