REMARK  Name = ZINC63374927
REMARK  11 active torsions:
REMARK  status: ('A' for Active; 'I' for Inactive)
REMARK    1  A    between atoms: C_1  and  C_2
REMARK    2  A    between atoms: C_2  and  C_3
REMARK    3  A    between atoms: C_3  and  O_4
REMARK    4  A    between atoms: O_4  and  C_5
REMARK    5  A    between atoms: C_9  and  C_14
REMARK    6  A    between atoms: C_10  and  O_11
REMARK    7  A    between atoms: O_11  and  C_12
REMARK    8  A    between atoms: C_12  and  C_13
REMARK    9  A    between atoms: N_20  and  C_35
REMARK   10  A    between atoms: C_23  and  C_34
REMARK   11  A    between atoms: C_38  and  C_41
REMARK                            x       y       z     vdW  Elec       q    Type
REMARK                         _______ _______ _______ _____ _____    ______ ____
ROOT
ATOM      1  C   UNL     1       2.039  -6.018  -3.591  0.00  0.00    +0.069 C 
ATOM      2  C   UNL     1       1.372  -6.506  -4.892  0.00  0.00    +0.123 C 
ATOM      3  N   UNL     1       1.812  -7.881  -5.149  0.00  0.00    -0.268 N 
ATOM      4  C   UNL     1       1.058  -8.970  -5.340  0.00  0.00    +0.317 C 
ATOM      5  O   UNL     1      -0.153  -8.947  -5.445  0.00  0.00    -0.252 OA
ATOM      6  N   UNL     1       1.791 -10.090  -5.403  0.00  0.00    -0.192 N 
ATOM      7  C   UNL     1       3.111  -9.827  -5.318  0.00  0.00    +0.253 C 
ATOM      8  O   UNL     1       4.019 -10.630  -5.319  0.00  0.00    -0.272 OA
ATOM      9  C   UNL     1       3.224  -8.321  -5.221  0.00  0.00    +0.137 C 
ATOM     10  C   UNL     1       3.879  -7.926  -3.893  0.00  0.00    +0.139 C 
ATOM     11  C   UNL     1       3.475  -6.480  -3.627  0.00  0.00    -0.027 C 
ATOM     12  C   UNL     1       4.607  -5.801  -3.469  0.00  0.00    -0.000 A 
ATOM     13  C   UNL     1       4.862  -4.396  -3.112  0.00  0.00    +0.010 A 
ATOM     14  C   UNL     1       6.167  -4.020  -3.054  0.00  0.00    +0.001 A 
ATOM     15  C   UNL     1       7.231  -4.890  -3.311  0.00  0.00    +0.002 A 
ATOM     16  C   UNL     1       7.088  -6.199  -3.638  0.00  0.00    +0.026 A 
ATOM     17  C   UNL     1       5.762  -6.714  -3.723  0.00  0.00    +0.043 A 
ATOM     18  N   UNL     1       5.341  -7.928  -3.992  0.00  0.00    -0.375 N 
ATOM     19  C   UNL     1       3.951  -7.723  -6.428  0.00  0.00    +0.044 C 
ATOM     20  H   UNL     1       5.893  -8.693  -4.216  0.00  0.00    +0.160 HD
ENDROOT
BRANCH   6  21
ATOM     21  C   UNL     1       1.252 -11.377  -5.539  0.00  0.00    +0.045 A 
ATOM     22  C   UNL     1       2.092 -12.468  -5.718  0.00  0.00    +0.024 A 
ATOM     23  C   UNL     1       1.558 -13.735  -5.852  0.00  0.00    +0.005 A 
ATOM     24  C   UNL     1       0.188 -13.917  -5.808  0.00  0.00    -0.050 A 
ATOM     25  C   UNL     1      -0.651 -12.833  -5.630  0.00  0.00    +0.005 A 
ATOM     26  C   UNL     1      -0.123 -11.565  -5.489  0.00  0.00    +0.024 A 
ATOM     27  C   UNL     1      -0.392 -15.300  -5.956  0.00  0.00    +0.044 C 
ENDBRANCH   6  21
BRANCH   1  32
ATOM     28  C   UNL     1       1.300  -2.505  -2.390  0.00  0.00    +0.162 A 
ATOM     29  C   UNL     1       1.887  -1.748  -3.391  0.00  0.00    +0.049 A 
ATOM     30  C   UNL     1       2.520  -2.372  -4.450  0.00  0.00    +0.004 A 
ATOM     31  C   UNL     1       2.568  -3.752  -4.513  0.00  0.00    +0.008 A 
ATOM     32  C   UNL     1       1.985  -4.514  -3.518  0.00  0.00    +0.007 A 
ATOM     33  C   UNL     1       1.354  -3.894  -2.451  0.00  0.00    +0.166 A 
BRANCH  28  34
ATOM     34  O   UNL     1       0.678  -1.893  -1.348  0.00  0.00    -0.488 OA
BRANCH  34  35
ATOM     35  C   UNL     1       0.661  -0.464  -1.351  0.00  0.00    +0.229 C 
BRANCH  35  37
ATOM     36  C   UNL     1      -0.095   1.571  -0.113  0.00  0.00    +0.007 C 
ATOM     37  C   UNL     1      -0.077   0.041  -0.110  0.00  0.00    +0.038 C 
ENDBRANCH  35  37
ENDBRANCH  34  35
ENDBRANCH  28  34
BRANCH  33  38
ATOM     38  O   UNL     1       0.785  -4.642  -1.468  0.00  0.00    -0.488 OA
BRANCH  38  39
ATOM     39  C   UNL     1      -0.584  -5.013  -1.646  0.00  0.00    +0.226 C 
ATOM     40  C   UNL     1      -1.046  -5.845  -0.448  0.00  0.00    +0.048 C 
ENDBRANCH  38  39
ENDBRANCH  33  38
ENDBRANCH   1  32
TORSDOF 7
