REMARK  Name = ZINC11881390
REMARK  7 active torsions:
REMARK  status: ('A' for Active; 'I' for Inactive)
REMARK    1  A    between atoms: C_1  and  C_2
REMARK    2  A    between atoms: C_10  and  C_13
REMARK    3  A    between atoms: C_18  and  C_19
REMARK    4  A    between atoms: C_18  and  N_66
REMARK    5  A    between atoms: N_21  and  C_22
REMARK    6  A    between atoms: C_22  and  C_23
REMARK    7  A    between atoms: C_23  and  C_29
REMARK                            x       y       z     vdW  Elec       q    Type
REMARK                         _______ _______ _______ _____ _____    ______ ____
ROOT
ATOM      1  C   UNL     1       0.973  -0.926  -6.110  0.00  0.00    +0.019 C 
ENDROOT
BRANCH   1  13
ATOM      2  C   UNL     1       3.018   2.534 -11.588  0.00  0.00    +0.044 C 
ATOM      3  C   UNL     1       1.743   2.086 -10.920  0.00  0.00    -0.050 A 
ATOM      4  C   UNL     1       0.574   1.998 -11.652  0.00  0.00    +0.007 A 
ATOM      5  C   UNL     1      -0.597   1.581 -11.047  0.00  0.00    +0.046 A 
ATOM      6  C   UNL     1      -0.593   1.248  -9.700  0.00  0.00    +0.123 A 
ATOM      7  C   UNL     1       0.575   1.354  -8.969  0.00  0.00    -0.022 A 
ATOM      8  C   UNL     1       1.745   1.765  -9.574  0.00  0.00    +0.008 A 
ATOM      9  C   UNL     1       0.559   1.017  -7.490  0.00  0.00    -0.038 C 
ATOM     10  C   UNL     1      -1.076  -0.784  -7.378  0.00  0.00    -0.028 C 
ATOM     11  C   UNL     1      -1.709  -0.597  -8.740  0.00  0.00    +0.188 C 
ATOM     12  O   UNL     1      -1.727   0.788  -9.106  0.00  0.00    -0.486 OA
ATOM     13  N   UNL     1       0.363  -0.447  -7.360  0.00  0.00    +0.391 N 
ATOM     14  H   UNL     1       0.820  -0.912  -8.153  0.00  0.00    -0.080 HD
BRANCH  11  15
ATOM     15  C   UNL     1      -3.122  -1.119  -8.705  0.00  0.00    -0.002 A 
ATOM     16  C   UNL     1      -3.400  -2.417  -9.092  0.00  0.00    +0.015 A 
ATOM     17  C   UNL     1      -4.682  -2.856  -9.049  0.00  0.00    +0.045 A 
ATOM     18  S   UNL     1      -5.546  -1.414  -8.447  0.00  0.00    -0.105 S 
ATOM     19  C   UNL     1      -4.139  -0.326  -8.289  0.00  0.00    +0.052 A 
ENDBRANCH  11  15
ENDBRANCH   1  13
BRANCH   1  20
ATOM     20  C   UNL     1       0.287  -0.329  -4.909  0.00  0.00    +0.196 C 
ATOM     21  O   UNL     1      -0.640   0.439  -5.059  0.00  0.00    -0.278 OA
ATOM     22  N   UNL     1       0.702  -0.648  -3.667  0.00  0.00    -0.316 N 
ATOM     23  H   UNL     1       1.443  -1.262  -3.546  0.00  0.00    +0.149 HD
BRANCH  22  24
ATOM     24  C   UNL     1       0.035  -0.067  -2.499  0.00  0.00    +0.115 C 
BRANCH  24  25
ATOM     25  C   UNL     1       0.764  -0.501  -1.226  0.00  0.00    +0.015 C 
ATOM     26  C   UNL     1       0.047   0.077  -0.002  0.00  0.00    +0.041 C 
ATOM     27  C   UNL     1       0.106   1.605  -0.060  0.00  0.00    +0.160 C 
ATOM     28  O   UNL     1       1.471   2.026  -0.117  0.00  0.00    -0.380 OA
ATOM     29  C   UNL     1       2.179   1.555  -1.265  0.00  0.00    +0.160 C 
ATOM     30  C   UNL     1       2.203   0.024  -1.256  0.00  0.00    +0.041 C 
BRANCH  25  31
ATOM     31  C   UNL     1       0.778  -2.005  -1.139  0.00  0.00    -0.040 A 
ATOM     32  C   UNL     1      -0.407  -2.700  -0.989  0.00  0.00    +0.004 A 
ATOM     33  C   UNL     1      -0.395  -4.080  -0.913  0.00  0.00    +0.000 A 
ATOM     34  C   UNL     1       0.804  -4.765  -0.979  0.00  0.00    +0.000 A 
ATOM     35  C   UNL     1       1.990  -4.070  -1.124  0.00  0.00    +0.000 A 
ATOM     36  C   UNL     1       1.977  -2.690  -1.204  0.00  0.00    +0.004 A 
ENDBRANCH  25  31
ENDBRANCH  24  25
ENDBRANCH  22  24
ENDBRANCH   1  20
TORSDOF 6
