REMARK  Name = ZINC36660343
REMARK  11 active torsions:
REMARK  status: ('A' for Active; 'I' for Inactive)
REMARK    1  A    between atoms: C_1  and  N_2
REMARK    2  A    between atoms: N_2  and  C_3
REMARK    3  A    between atoms: N_2  and  C_4
REMARK    4  A    between atoms: C_4  and  C_5
REMARK    5  A    between atoms: C_5  and  C_6
REMARK    6  A    between atoms: C_6  and  N_7
REMARK    7  A    between atoms: C_13  and  O_17
REMARK    8  A    between atoms: O_17  and  C_18
REMARK    9  A    between atoms: C_19  and  C_21
REMARK   10  A    between atoms: N_26  and  S_27
REMARK   11  A    between atoms: S_27  and  C_30
REMARK                            x       y       z     vdW  Elec       q    Type
REMARK                         _______ _______ _______ _____ _____    ______ ____
ROOT
ATOM      1  N   UNL     1      -2.417  -3.962  -0.419  0.00  0.00    -0.249 N 
ATOM      2  C   UNL     1      -2.032  -4.863   0.562  0.00  0.00    +0.168 A 
ATOM      3  N   UNL     1      -1.788  -4.643   1.832  0.00  0.00    -0.224 NA
ATOM      4  C   UNL     1      -1.419  -5.626   2.682  0.00  0.00    +0.081 A 
ATOM      5  C   UNL     1      -1.129  -5.523   4.062  0.00  0.00    +0.032 A 
ATOM      6  C   UNL     1      -0.764  -6.626   4.787  0.00  0.00    +0.048 A 
ATOM      7  C   UNL     1      -0.666  -7.883   4.197  0.00  0.00    +0.121 A 
ATOM      8  C   UNL     1      -0.944  -8.019   2.845  0.00  0.00    +0.063 A 
ATOM      9  C   UNL     1      -1.310  -6.916   2.115  0.00  0.00    +0.044 A 
ATOM     10  S   UNL     1      -1.750  -6.622   0.419  0.00  0.00    -0.052 S 
ATOM     11  C   UNL     1      -2.477  -4.353  -1.707  0.00  0.00    +0.240 C 
ATOM     12  O   UNL     1      -2.887  -3.588  -2.554  0.00  0.00    -0.273 OA
ENDROOT
BRANCH  11  13
ATOM     13  C   UNL     1      -2.035  -5.741  -2.095  0.00  0.00    +0.166 C 
ATOM     14  C   UNL     1      -3.199  -6.736  -1.902  0.00  0.00    +0.031 C 
ATOM     15  C   UNL     1      -3.798  -6.850  -3.328  0.00  0.00    +0.019 C 
ATOM     16  C   UNL     1      -2.528  -6.748  -4.209  0.00  0.00    +0.110 C 
ATOM     17  N   UNL     1      -1.665  -5.768  -3.517  0.00  0.00    -0.165 NA
BRANCH  17  18
ATOM     18  S   UNL     1      -0.480  -4.852  -4.224  0.00  0.00    +0.062 S 
ATOM     19  O   UNL     1      -0.810  -4.754  -5.603  0.00  0.00    -0.153 OA
ATOM     20  O   UNL     1      -0.305  -3.708  -3.399  0.00  0.00    -0.153 OA
BRANCH  18  21
ATOM     21  C   UNL     1       1.018  -5.775  -4.130  0.00  0.00    +0.106 A 
ATOM     22  C   UNL     1       1.846  -5.638  -3.031  0.00  0.00    +0.031 A 
ATOM     23  C   UNL     1       3.021  -6.362  -2.956  0.00  0.00    +0.040 A 
ATOM     24  C   UNL     1       3.369  -7.224  -3.982  0.00  0.00    +0.124 A 
ATOM     25  C   UNL     1       2.539  -7.360  -5.082  0.00  0.00    +0.040 A 
ATOM     26  C   UNL     1       1.362  -6.639  -5.152  0.00  0.00    +0.031 A 
ATOM     27  F   UNL     1       4.518  -7.931  -3.909  0.00  0.00    -0.205 F 
ENDBRANCH  18  21
ENDBRANCH  17  18
ENDBRANCH  11  13
BRANCH   7  28
ATOM     28  O   UNL     1      -0.301  -8.964   4.937  0.00  0.00    -0.495 OA
ATOM     29  C   UNL     1      -0.030  -8.740   6.322  0.00  0.00    +0.277 C 
ENDBRANCH   7  28
BRANCH   1  30
ATOM     30  C   UNL     1      -2.758  -2.585  -0.055  0.00  0.00    +0.114 C 
BRANCH  30  31
ATOM     31  C   UNL     1      -1.509  -1.706  -0.157  0.00  0.00    +0.001 C 
BRANCH  31  32
ATOM     32  C   UNL     1      -1.883  -0.252   0.135  0.00  0.00    -0.078 C 
BRANCH  32  34
ATOM     33  C   UNL     1      -1.064   2.002   0.198  0.00  0.00    -0.097 C 
ATOM     34  N   UNL     1      -0.685   0.592   0.036  0.00  0.00    +0.376 N 
ATOM     35  C   UNL     1       0.266   0.216   1.091  0.00  0.00    -0.097 C 
ATOM     36  H   UNL     1      -0.255   0.461  -0.867  0.00  0.00    -0.083 HD
ENDBRANCH  32  34
ENDBRANCH  31  32
ENDBRANCH  30  31
ENDBRANCH   1  30
TORSDOF 8
