REMARK  Name = ZINC06182949
REMARK  11 active torsions:
REMARK  status: ('A' for Active; 'I' for Inactive)
REMARK    1  A    between atoms: C_1  and  C_2
REMARK    2  A    between atoms: C_2  and  C_3
REMARK    3  A    between atoms: C_4  and  C_23
REMARK    4  A    between atoms: N_9  and  C_10
REMARK    5  A    between atoms: C_10  and  C_11
REMARK    6  A    between atoms: C_11  and  N_12
REMARK    7  A    between atoms: N_12  and  C_13
REMARK    8  A    between atoms: C_16  and  C_18
REMARK    9  A    between atoms: C_23  and  C_25
REMARK   10  A    between atoms: C_23  and  S_26
REMARK   11  A    between atoms: S_26  and  C_29
REMARK                            x       y       z     vdW  Elec       q    Type
REMARK                         _______ _______ _______ _____ _____    ______ ____
ROOT
ATOM      1  C   UNL     1      -2.143   1.058   1.278  0.00  0.00    +0.044 A 
ATOM      2  C   UNL     1      -2.566  -0.042   1.892  0.00  0.00    +0.064 A 
ATOM      3  N   UNL     1      -3.927  -0.165   1.657  0.00  0.00    -0.308 N 
ATOM      4  H   UNL     1      -4.500  -0.876   1.984  0.00  0.00    +0.170 HD
ATOM      5  C   UNL     1      -4.314   0.875   0.893  0.00  0.00    +0.327 A 
ATOM      6  O   UNL     1      -5.445   1.088   0.494  0.00  0.00    -0.247 OA
ATOM      7  N   UNL     1      -3.233   1.644   0.653  0.00  0.00    -0.295 N 
ENDROOT
BRANCH   1   9
ATOM      8  C   UNL     1      -0.013   1.086   0.008  0.00  0.00    +0.010 C 
ATOM      9  C   UNL     1      -0.729   1.579   1.267  0.00  0.00    +0.052 C 
ENDBRANCH   1   9
BRANCH   2  10
ATOM     10  C   UNL     1      -1.716  -0.988   2.702  0.00  0.00    +0.181 C 
ATOM     11  C   UNL     1      -1.567  -2.311   1.948  0.00  0.00    +0.039 C 
BRANCH  10  12
ATOM     12  S   UNL     1      -2.510  -1.291   4.305  0.00  0.00    +0.005 S 
ATOM     13  O   UNL     1      -2.495  -0.106   5.090  0.00  0.00    -0.169 OA
ATOM     14  O   UNL     1      -3.712  -2.026   4.124  0.00  0.00    -0.169 OA
BRANCH  12  15
ATOM     15  C   UNL     1      -1.427  -2.399   5.143  0.00  0.00    +0.089 A 
ATOM     16  C   UNL     1      -1.595  -3.765   5.009  0.00  0.00    +0.027 A 
ATOM     17  C   UNL     1      -0.743  -4.634   5.663  0.00  0.00    +0.002 A 
ATOM     18  C   UNL     1       0.272  -4.139   6.460  0.00  0.00    +0.000 A 
ATOM     19  C   UNL     1       0.438  -2.773   6.598  0.00  0.00    +0.002 A 
ATOM     20  C   UNL     1      -0.412  -1.904   5.940  0.00  0.00    +0.027 A 
ENDBRANCH  12  15
ENDBRANCH  10  12
ENDBRANCH   2  10
BRANCH   7  21
ATOM     21  C   UNL     1      -3.213   2.880  -0.134  0.00  0.00    +0.145 C 
BRANCH  21  22
ATOM     22  C   UNL     1      -2.933   2.546  -1.600  0.00  0.00    +0.124 C 
BRANCH  22  23
ATOM     23  N   UNL     1      -2.913   3.782  -2.387  0.00  0.00    -0.328 N 
ATOM     24  H   UNL     1      -3.066   4.636  -1.952  0.00  0.00    +0.148 HD
BRANCH  23  25
ATOM     25  C   UNL     1      -2.676   3.731  -3.756  0.00  0.00    +0.115 A 
ATOM     26  C   UNL     1      -2.664   4.909  -4.499  0.00  0.00    +0.079 A 
ATOM     27  C   UNL     1      -2.421   4.844  -5.859  0.00  0.00    +0.037 A 
ATOM     28  C   UNL     1      -2.208   3.598  -6.435  0.00  0.00    +0.072 A 
ATOM     29  C   UNL     1      -2.240   2.471  -5.640  0.00  0.00    +0.096 A 
ATOM     30 CL   UNL     1      -2.944   6.439  -3.727  0.00  0.00    -0.080 Cl
ATOM     31  N   UNL     1      -2.470   2.497  -4.299  0.00  0.00    -0.348 N 
ATOM     32  H   UNL     1      -2.488   1.642  -3.732  0.00  0.00    +0.167 HD
BRANCH  28  33
ATOM     33  C   UNL     1      -1.945   3.478  -7.914  0.00  0.00    +0.419 C 
ATOM     34  F   UNL     1      -1.764   2.132  -8.248  0.00  0.00    -0.166 F 
ATOM     35  F   UNL     1      -3.035   3.992  -8.625  0.00  0.00    -0.166 F 
ATOM     36  F   UNL     1      -0.792   4.199  -8.243  0.00  0.00    -0.166 F 
ENDBRANCH  28  33
ENDBRANCH  23  25
ENDBRANCH  22  23
ENDBRANCH  21  22
ENDBRANCH   7  21
TORSDOF 9
