REMARK  Name = ZINC53126577
REMARK  6 active torsions:
REMARK  status: ('A' for Active; 'I' for Inactive)
REMARK    1  A    between atoms: C_1  and  C_2
REMARK    2  A    between atoms: C_7  and  C_9
REMARK    3  A    between atoms: C_7  and  N_11
REMARK    4  A    between atoms: C_9  and  O_10
REMARK    5  A    between atoms: N_11  and  C_12
REMARK    6  A    between atoms: C_12  and  C_13
REMARK                            x       y       z     vdW  Elec       q    Type
REMARK                         _______ _______ _______ _____ _____    ______ ____
ROOT
ATOM      1  C   UNL     1       0.038   1.475  -0.157  0.00  0.00    +0.007 C 
ATOM      2  C   UNL     1       0.020  -0.054  -0.102  0.00  0.00    -0.012 C 
ATOM      3  C   UNL     1      -1.428  -0.546  -0.066  0.00  0.00    +0.003 C 
ATOM      4  C   UNL     1      -1.446  -2.075  -0.011  0.00  0.00    +0.002 C 
ATOM      5  C   UNL     1      -0.716  -2.549   1.247  0.00  0.00    +0.024 C 
ATOM      6  C   UNL     1       0.733  -2.057   1.212  0.00  0.00    +0.043 C 
ATOM      7  C   UNL     1       0.750  -0.528   1.157  0.00  0.00    +0.027 C 
ENDROOT
BRANCH   6   8
ATOM      8  N   UNL     1       1.434  -2.511   2.420  0.00  0.00    -0.296 NA
ATOM      9  H   UNL     1       0.915  -2.272   3.251  0.00  0.00    +0.123 HD
BRANCH   8  10
ATOM     10  C   UNL     1       2.797  -1.966   2.474  0.00  0.00    +0.201 C 
BRANCH  10  11
ATOM     11  C   UNL     1       3.512  -2.545   3.623  0.00  0.00    +0.078 C 
ATOM     12  N   UNL     1       4.063  -2.992   4.510  0.00  0.00    -0.195 NA
ENDBRANCH  10  11
ENDBRANCH   8  10
ENDBRANCH   6   8
BRANCH   6  13
ATOM     13  C   UNL     1       1.433  -2.620  -0.027  0.00  0.00    +0.178 C 
BRANCH  13  14
ATOM     14  O   UNL     1       1.527  -4.041   0.084  0.00  0.00    -0.393 OA
ATOM     15  H   UNL     1       1.961  -4.467  -0.668  0.00  0.00    +0.209 HD
ENDBRANCH  13  14
ENDBRANCH   6  13
TORSDOF 5
