REMARK  Name = ZINC57456058
REMARK  7 active torsions:
REMARK  status: ('A' for Active; 'I' for Inactive)
REMARK    1  A    between atoms: C_1  and  C_2
REMARK    2  A    between atoms: C_2  and  C_4
REMARK    3  A    between atoms: C_2  and  N_15
REMARK    4  A    between atoms: N_6  and  C_7
REMARK    5  A    between atoms: C_8  and  C_12
REMARK    6  A    between atoms: N_18  and  C_21
REMARK    7  A    between atoms: C_26  and  O_27
REMARK                            x       y       z     vdW  Elec       q    Type
REMARK                         _______ _______ _______ _____ _____    ______ ____
ROOT
ATOM      1  C   UNL     1       1.271  -0.094  -0.848  0.00  0.00    +0.034 C 
ATOM      2  C   UNL     1       0.002  -0.004   0.002  0.00  0.00    +0.140 C 
ENDROOT
BRANCH   2   3
ATOM      3  N   UNL     1       0.261  -0.576   1.330  0.00  0.00    -0.289 NA
ATOM      4  C   UNL     1       0.275  -2.044   1.278  0.00  0.00    +0.104 C 
ATOM      5  C   UNL     1       0.366  -2.601   2.703  0.00  0.00    +0.120 C 
ATOM      6  N   UNL     1       1.527  -1.992   3.369  0.00  0.00    -0.325 N 
ATOM      7  C   UNL     1       1.654  -0.526   3.344  0.00  0.00    +0.120 C 
ATOM      8  C   UNL     1       1.512  -0.051   1.894  0.00  0.00    +0.104 C 
BRANCH   6   9
ATOM      9  C   UNL     1       2.485  -2.785   4.012  0.00  0.00    +0.072 A 
ATOM     10  C   UNL     1       3.589  -3.246   3.310  0.00  0.00    +0.027 A 
ATOM     11  C   UNL     1       4.534  -4.029   3.947  0.00  0.00    +0.002 A 
ATOM     12  C   UNL     1       4.382  -4.353   5.282  0.00  0.00    +0.004 A 
ATOM     13  C   UNL     1       3.284  -3.897   5.988  0.00  0.00    +0.047 A 
ATOM     14  C   UNL     1       2.335  -3.108   5.359  0.00  0.00    +0.138 A 
BRANCH  14  15
ATOM     15  O   UNL     1       1.257  -2.654   6.053  0.00  0.00    -0.505 OA
ATOM     16  H   UNL     1       0.495  -3.248   6.029  0.00  0.00    +0.292 HD
ENDBRANCH  14  15
ENDBRANCH   6   9
ENDBRANCH   2   3
BRANCH   2  17
ATOM     17  C   UNL     1      -0.404   1.440   0.147  0.00  0.00    +0.235 C 
ATOM     18  O   UNL     1      -0.219   2.020   1.196  0.00  0.00    -0.274 OA
ATOM     19  N   UNL     1      -0.973   2.087  -0.889  0.00  0.00    -0.278 N 
ATOM     20  H   UNL     1      -1.122   1.623  -1.728  0.00  0.00    +0.155 HD
BRANCH  19  21
ATOM     21  C   UNL     1      -1.347   3.416  -0.756  0.00  0.00    +0.084 A 
ATOM     22  C   UNL     1      -1.945   4.233  -1.704  0.00  0.00    +0.065 A 
ATOM     23  C   UNL     1      -2.231   5.590  -1.299  0.00  0.00    +0.022 A 
ATOM     24  C   UNL     1      -1.883   5.913  -0.040  0.00  0.00    +0.048 A 
ATOM     25  S   UNL     1      -1.186   4.402   0.592  0.00  0.00    -0.081 S 
BRANCH  22  26
ATOM     26  C   UNL     1      -2.271   3.744  -3.048  0.00  0.00    +0.244 C 
ATOM     27  O   UNL     1      -2.015   2.594  -3.355  0.00  0.00    -0.270 OA
ATOM     28  N   UNL     1      -2.852   4.568  -3.942  0.00  0.00    -0.325 N 
ATOM     29  H   UNL     1      -3.055   5.484  -3.697  0.00  0.00    +0.145 HD
ATOM     30  H   UNL     1      -3.067   4.245  -4.831  0.00  0.00    +0.145 HD
ENDBRANCH  22  26
ENDBRANCH  19  21
ENDBRANCH   2  17
TORSDOF 6
