REMARK  Name = ZINC39132970
REMARK  0 active torsions:
REMARK  status: ('A' for Active; 'I' for Inactive)
REMARK                            x       y       z     vdW  Elec       q    Type
REMARK                         _______ _______ _______ _____ _____    ______ ____
ROOT
ATOM      1  C   UNL     1      -0.018   1.474   0.010  0.00  0.00    +0.057 C 
ATOM      2  C   UNL     1       1.129   2.164   0.003  0.00  0.00    +0.057 C 
ATOM      3  C   UNL     1       2.426   1.453  -0.014  0.00  0.00    +0.204 C 
ATOM      4  O   UNL     1       3.465   2.083  -0.020  0.00  0.00    -0.286 OA
ATOM      5  C   UNL     1       2.456  -0.022  -0.022  0.00  0.00    +0.116 A 
ATOM      6  C   UNL     1       1.291  -0.723  -0.014  0.00  0.00    +0.116 A 
ATOM      7  N   UNL     1       1.615  -2.067  -0.025  0.00  0.00    -0.331 N 
ATOM      8  H   UNL     1       0.984  -2.804  -0.023  0.00  0.00    +0.168 HD
ATOM      9  C   UNL     1       2.958  -2.175  -0.039  0.00  0.00    +0.156 A 
ATOM     10  S   UNL     1       3.840  -3.643  -0.056  0.00  0.00    -0.013 S 
ATOM     11  N   UNL     1       3.492  -0.938  -0.037  0.00  0.00    -0.331 N 
ATOM     12  H   UNL     1       4.438  -0.727  -0.046  0.00  0.00    +0.168 HD
ATOM     13  C   UNL     1       0.002  -0.004   0.002  0.00  0.00    +0.204 C 
ATOM     14  O   UNL     1      -1.041  -0.626   0.009  0.00  0.00    -0.286 OA
ENDROOT
TORSDOF 0
