REMARK  Name = ZINC63514058
REMARK  8 active torsions:
REMARK  status: ('A' for Active; 'I' for Inactive)
REMARK    1  A    between atoms: C_1  and  O_2
REMARK    2  A    between atoms: O_2  and  C_3
REMARK    3  A    between atoms: C_7  and  C_10
REMARK    4  A    between atoms: C_8  and  O_9
REMARK    5  A    between atoms: N_18  and  C_21
REMARK    6  A    between atoms: C_27  and  C_29
REMARK    7  A    between atoms: C_27  and  C_39
REMARK    8  A    between atoms: C_29  and  C_30
REMARK                            x       y       z     vdW  Elec       q    Type
REMARK                         _______ _______ _______ _____ _____    ______ ____
ROOT
ATOM      1  C   UNL     1       1.329  -4.110  -2.298  0.00  0.00    -0.023 C 
ATOM      2  C   UNL     1       2.539  -4.634  -1.543  0.00  0.00    +0.077 C 
ATOM      3  C   UNL     1       3.607  -4.506  -2.696  0.00  0.00    +0.086 C 
ATOM      4  C   UNL     1       4.844  -4.609  -1.962  0.00  0.00    +0.229 C 
ATOM      5  O   UNL     1       5.881  -5.116  -2.333  0.00  0.00    -0.275 OA
ATOM      6  N   UNL     1       4.593  -4.009  -0.753  0.00  0.00    -0.210 N 
ATOM      7  C   UNL     1       3.251  -3.795  -0.528  0.00  0.00    +0.229 C 
ATOM      8  O   UNL     1       2.748  -3.078   0.309  0.00  0.00    -0.275 OA
ATOM      9  C   UNL     1       2.910  -5.138  -3.829  0.00  0.00    +0.052 C 
ATOM     10  N   UNL     1       1.522  -4.540  -3.716  0.00  0.00    +0.396 N 
ATOM     11  H   UNL     1       0.833  -5.236  -3.958  0.00  0.00    -0.083 HD
ATOM     12  H   UNL     1       1.435  -3.744  -4.329  0.00  0.00    -0.083 HD
ENDROOT
BRANCH   1  17
ATOM     13  C   UNL     1       0.522  -0.608  -1.109  0.00  0.00    +0.161 A 
ATOM     14  C   UNL     1       1.173   0.159  -2.062  0.00  0.00    +0.049 A 
ATOM     15  C   UNL     1       1.871  -0.456  -3.084  0.00  0.00    +0.004 A 
ATOM     16  C   UNL     1       1.921  -1.835  -3.160  0.00  0.00    +0.006 A 
ATOM     17  C   UNL     1       1.273  -2.606  -2.212  0.00  0.00    -0.015 A 
ATOM     18  C   UNL     1       0.577  -1.996  -1.181  0.00  0.00    +0.160 A 
BRANCH  13  20
ATOM     19  C   UNL     1      -0.178   1.425  -0.091  0.00  0.00    +0.277 C 
ATOM     20  O   UNL     1      -0.165  -0.004  -0.102  0.00  0.00    -0.491 OA
ENDBRANCH  13  20
BRANCH  18  21
ATOM     21  O   UNL     1      -0.056  -2.753  -0.245  0.00  0.00    -0.503 OA
ATOM     22  H   UNL     1      -0.970  -2.975  -0.471  0.00  0.00    +0.292 HD
ENDBRANCH  18  21
ENDBRANCH   1  17
BRANCH   6  23
ATOM     23  C   UNL     1       5.595  -3.659   0.163  0.00  0.00    +0.044 A 
ATOM     24  C   UNL     1       6.927  -3.912  -0.133  0.00  0.00    +0.024 A 
ATOM     25  C   UNL     1       7.912  -3.567   0.772  0.00  0.00    +0.002 A 
ATOM     26  C   UNL     1       7.572  -2.969   1.971  0.00  0.00    +0.000 A 
ATOM     27  C   UNL     1       6.245  -2.716   2.269  0.00  0.00    +0.002 A 
ATOM     28  C   UNL     1       5.257  -3.054   1.366  0.00  0.00    +0.024 A 
ENDBRANCH   6  23
BRANCH   9  29
ATOM     29  C   UNL     1       2.880  -6.637  -3.671  0.00  0.00    +0.347 C 
ATOM     30  O   UNL     1       1.813  -7.223  -3.611  0.00  0.00    -0.248 OA
ATOM     31  O   UNL     1       3.924  -7.263  -3.605  0.00  0.00    -0.248 OA
ENDBRANCH   9  29
BRANCH   9  32
ATOM     32  C   UNL     1       3.558  -4.742  -5.156  0.00  0.00    +0.033 C 
BRANCH  32  33
ATOM     33  C   UNL     1       2.750  -5.303  -6.298  0.00  0.00    -0.042 C 
ATOM     34  C   UNL     1       1.785  -4.667  -7.000  0.00  0.00    -0.001 A 
ATOM     35  C   UNL     1       1.219  -3.316  -6.915  0.00  0.00    +0.010 A 
ATOM     36  C   UNL     1       0.238  -2.959  -7.774  0.00  0.00    +0.001 A 
ATOM     37  C   UNL     1      -0.252  -3.847  -8.743  0.00  0.00    +0.002 A 
ATOM     38  C   UNL     1       0.218  -5.105  -8.883  0.00  0.00    +0.026 A 
ATOM     39  C   UNL     1       1.251  -5.585  -8.032  0.00  0.00    +0.043 A 
ATOM     40  N   UNL     1       1.863  -6.743  -7.970  0.00  0.00    -0.380 N 
ATOM     41  C   UNL     1       2.859  -6.688  -6.894  0.00  0.00    +0.144 C 
ATOM     42  H   UNL     1       1.688  -7.507  -8.542  0.00  0.00    +0.160 HD
ENDBRANCH  32  33
ENDBRANCH   9  32
TORSDOF 7
