REMARK  Name = ZINC22718729
REMARK  13 active torsions:
REMARK  status: ('A' for Active; 'I' for Inactive)
REMARK    1  A    between atoms: C_1  and  C_2
REMARK    2  A    between atoms: C_2  and  C_4
REMARK    3  A    between atoms: C_2  and  N_31
REMARK    4  A    between atoms: C_7  and  S_16
REMARK    5  A    between atoms: N_8  and  C_9
REMARK    6  A    between atoms: S_16  and  C_17
REMARK    7  A    between atoms: C_17  and  C_19
REMARK    8  A    between atoms: C_17  and  C_20
REMARK    9  A    between atoms: N_22  and  C_23
REMARK   10  A    between atoms: C_28  and  S_29
REMARK   11  A    between atoms: S_29  and  C_30
REMARK   12  A    between atoms: N_31  and  C_32
REMARK   13  A    between atoms: N_31  and  C_33
REMARK                            x       y       z     vdW  Elec       q    Type
REMARK                         _______ _______ _______ _____ _____    ______ ____
ROOT
ATOM      1  C   UNL     1       1.341  -0.344   0.041  0.00  0.00    +0.125 A 
ATOM      2  N   UNL     1       2.032   0.761   0.036  0.00  0.00    -0.135 NA
ATOM      3  N   UNL     1       1.243   1.776   0.039  0.00  0.00    -0.122 NA
ATOM      4  C   UNL     1      -0.006   1.371   0.046  0.00  0.00    +0.197 A 
ATOM      5  N   UNL     1       0.016   0.004   0.047  0.00  0.00    -0.275 N 
ENDROOT
BRANCH   5   6
ATOM      6  C   UNL     1      -1.088  -0.862   0.054  0.00  0.00    +0.050 A 
ATOM      7  C   UNL     1      -1.312  -1.694   1.142  0.00  0.00    +0.028 A 
ATOM      8  C   UNL     1      -2.403  -2.542   1.148  0.00  0.00    +0.022 A 
ATOM      9  C   UNL     1      -3.265  -2.570   0.066  0.00  0.00    +0.041 A 
ATOM     10  C   UNL     1      -3.040  -1.745  -1.022  0.00  0.00    +0.022 A 
ATOM     11  C   UNL     1      -1.954  -0.892  -1.031  0.00  0.00    +0.028 A 
ATOM     12 CL   UNL     1      -4.630  -3.642   0.073  0.00  0.00    -0.084 Cl
ENDBRANCH   5   6
BRANCH   1  14
ATOM     13  C   UNL     1       2.424  -2.083  -1.356  0.00  0.00    -0.005 C 
ATOM     14  C   UNL     1       1.897  -1.745   0.040  0.00  0.00    -0.003 C 
BRANCH  14  15
ATOM     15  N   UNL     1       2.993  -1.838   1.013  0.00  0.00    +0.382 N 
ATOM     16  C   UNL     1       3.481  -3.219   1.126  0.00  0.00    -0.096 C 
ATOM     17  C   UNL     1       4.085  -0.920   0.665  0.00  0.00    -0.096 C 
ATOM     18  H   UNL     1       2.599  -1.538   1.995  0.00  0.00    -0.082 HD
ENDBRANCH  14  15
ENDBRANCH   1  14
BRANCH   4  19
ATOM     19  S   UNL     1      -1.439   2.396   0.046  0.00  0.00    -0.073 S 
BRANCH  19  20
ATOM     20  C   UNL     1      -0.658   4.029   0.045  0.00  0.00    +0.137 C 
ATOM     21  C   UNL     1       0.113   4.227   1.351  0.00  0.00    +0.029 C 
BRANCH  20  22
ATOM     22  C   UNL     1      -1.718   5.093  -0.079  0.00  0.00    +0.230 C 
ATOM     23  O   UNL     1      -2.852   4.865   0.286  0.00  0.00    -0.274 OA
ATOM     24  N   UNL     1      -1.406   6.298  -0.597  0.00  0.00    -0.284 N 
ATOM     25  H   UNL     1      -0.364   6.530  -0.860  0.00  0.00    +0.155 HD
BRANCH  24  26
ATOM     26  C   UNL     1      -2.410   7.255  -0.799  0.00  0.00    +0.047 A 
ATOM     27  C   UNL     1      -3.475   7.343   0.085  0.00  0.00    +0.024 A 
ATOM     28  C   UNL     1      -4.462   8.290  -0.114  0.00  0.00    +0.002 A 
ATOM     29  C   UNL     1      -4.396   9.146  -1.198  0.00  0.00    +0.001 A 
ATOM     30  C   UNL     1      -3.342   9.062  -2.088  0.00  0.00    +0.016 A 
ATOM     31  C   UNL     1      -2.344   8.117  -1.893  0.00  0.00    +0.029 A 
BRANCH  31  32
ATOM     32  S   UNL     1      -0.998   8.007  -3.026  0.00  0.00    -0.127 S 
ATOM     33  C   UNL     1      -1.346   9.302  -4.248  0.00  0.00    +0.090 C 
ENDBRANCH  31  32
ENDBRANCH  24  26
ENDBRANCH  20  22
ENDBRANCH  19  20
ENDBRANCH   4  19
TORSDOF 8
