REMARK  Name = ZINC04410159
REMARK  10 active torsions:
REMARK  status: ('A' for Active; 'I' for Inactive)
REMARK    1  A    between atoms: C_1  and  C_2
REMARK    2  A    between atoms: C_2  and  C_3
REMARK    3  A    between atoms: C_8  and  N_9
REMARK    4  A    between atoms: N_9  and  C_10
REMARK    5  A    between atoms: C_10  and  C_11
REMARK    6  A    between atoms: N_13  and  C_14
REMARK    7  A    between atoms: C_14  and  C_15
REMARK    8  A    between atoms: C_20  and  C_22
REMARK    9  A    between atoms: C_23  and  N_30
REMARK   10  A    between atoms: C_24  and  C_27
REMARK                            x       y       z     vdW  Elec       q    Type
REMARK                         _______ _______ _______ _____ _____    ______ ____
ROOT
ATOM      1  N   UNL     1      -2.199  -0.648   2.455  0.00  0.00    -0.258 N 
ATOM      2  C   UNL     1      -2.768  -1.816   2.098  0.00  0.00    +0.261 C 
ATOM      3  O   UNL     1      -3.977  -1.893   1.977  0.00  0.00    -0.269 OA
ENDROOT
BRANCH   1   9
ATOM      4  C   UNL     1      -0.226  -0.695   3.846  0.00  0.00    -0.026 A 
ATOM      5  C   UNL     1       1.146  -0.614   3.979  0.00  0.00    +0.005 A 
ATOM      6  C   UNL     1       1.938  -0.392   2.868  0.00  0.00    +0.000 A 
ATOM      7  C   UNL     1       1.359  -0.251   1.620  0.00  0.00    +0.002 A 
ATOM      8  C   UNL     1      -0.013  -0.332   1.480  0.00  0.00    +0.024 A 
ATOM      9  C   UNL     1      -0.810  -0.560   2.594  0.00  0.00    +0.040 A 
BRANCH   4  11
ATOM     10  C   UNL     1      -1.356  -2.437   5.203  0.00  0.00    +0.009 C 
ATOM     11  C   UNL     1      -1.089  -0.937   5.059  0.00  0.00    +0.033 C 
ENDBRANCH   4  11
ENDBRANCH   1   9
BRANCH   2  12
ATOM     12  C   UNL     1      -1.932  -2.993   1.856  0.00  0.00    +0.116 A 
ATOM     13  C   UNL     1      -2.309  -4.282   1.477  0.00  0.00    +0.076 A 
ATOM     14  C   UNL     1      -1.233  -5.156   1.336  0.00  0.00    +0.155 A 
ATOM     15  N   UNL     1      -0.011  -4.721   1.560  0.00  0.00    -0.203 NA
ATOM     16  S   UNL     1      -0.162  -3.161   1.958  0.00  0.00    +0.019 S 
BRANCH  14  17
ATOM     17  C   UNL     1      -1.462  -6.558   0.941  0.00  0.00    +0.262 C 
ATOM     18  O   UNL     1      -2.579  -6.930   0.637  0.00  0.00    -0.269 OA
ATOM     19  N   UNL     1      -0.432  -7.428   0.916  0.00  0.00    -0.324 N 
ATOM     20  H   UNL     1       0.459  -7.131   1.158  0.00  0.00    +0.145 HD
ATOM     21  H   UNL     1      -0.583  -8.350   0.655  0.00  0.00    +0.145 HD
ENDBRANCH  14  17
BRANCH  13  22
ATOM     22  N   UNL     1      -3.629  -4.658   1.261  0.00  0.00    -0.355 N 
ATOM     23  H   UNL     1      -4.331  -3.988   1.266  0.00  0.00    +0.142 HD
ATOM     24  H   UNL     1      -3.849  -5.590   1.105  0.00  0.00    +0.142 HD
ENDBRANCH  13  22
ENDBRANCH   2  12
BRANCH   1  25
ATOM     25  C   UNL     1      -3.035   0.530   2.698  0.00  0.00    +0.209 C 
BRANCH  25  26
ATOM     26  C   UNL     1      -3.164   1.326   1.424  0.00  0.00    +0.231 C 
ATOM     27  O   UNL     1      -2.695   0.897   0.391  0.00  0.00    -0.274 OA
ATOM     28  N   UNL     1      -3.800   2.515   1.433  0.00  0.00    -0.307 N 
ATOM     29  H   UNL     1      -4.174   2.858   2.260  0.00  0.00    +0.149 HD
BRANCH  28  30
ATOM     30  C   UNL     1      -3.924   3.288   0.196  0.00  0.00    +0.178 C 
BRANCH  30  31
ATOM     31  C   UNL     1      -4.671   4.567   0.475  0.00  0.00    +0.122 A 
ATOM     32  C   UNL     1      -4.117   5.739   0.835  0.00  0.00    +0.046 A 
ATOM     33  C   UNL     1      -5.177   6.661   0.994  0.00  0.00    +0.041 A 
ATOM     34  C   UNL     1      -6.315   5.998   0.721  0.00  0.00    +0.195 A 
ATOM     35  O   UNL     1      -6.002   4.731   0.402  0.00  0.00    -0.466 OA
ENDBRANCH  30  31
ENDBRANCH  28  30
ENDBRANCH  25  26
ENDBRANCH   1  25
TORSDOF 9
