REMARK  Name = ZINC43465460
REMARK  14 active torsions:
REMARK  status: ('A' for Active; 'I' for Inactive)
REMARK    1  A    between atoms: C_1  and  C_2
REMARK    2  A    between atoms: C_2  and  O_4
REMARK    3  A    between atoms: O_4  and  C_5
REMARK    4  A    between atoms: C_5  and  C_6
REMARK    5  A    between atoms: C_8  and  O_41
REMARK    6  A    between atoms: C_10  and  O_40
REMARK    7  A    between atoms: C_12  and  O_39
REMARK    8  A    between atoms: C_14  and  O_17
REMARK    9  A    between atoms: O_17  and  C_18
REMARK   10  A    between atoms: C_22  and  O_38
REMARK   11  A    between atoms: C_24  and  O_37
REMARK   12  A    between atoms: C_28  and  C_29
REMARK   13  A    between atoms: C_32  and  O_36
REMARK   14  A    between atoms: C_33  and  O_35
REMARK                            x       y       z     vdW  Elec       q    Type
REMARK                         _______ _______ _______ _____ _____    ______ ____
ROOT
ATOM      1  C   UNL     1      -5.544  -1.180   2.541  0.00  0.00    +0.214 A 
ATOM      2  C   UNL     1      -6.071  -0.603   3.726  0.00  0.00    +0.238 A 
ATOM      3  O   UNL     1      -6.486  -1.298   4.639  0.00  0.00    -0.283 OA
ATOM      4  C   UNL     1      -6.098   0.866   3.810  0.00  0.00    +0.109 A 
ATOM      5  C   UNL     1      -6.601   1.520   4.942  0.00  0.00    +0.135 A 
ATOM      6  C   UNL     1      -6.608   2.901   4.984  0.00  0.00    +0.091 A 
ATOM      7  C   UNL     1      -6.120   3.635   3.907  0.00  0.00    +0.124 A 
ATOM      8  C   UNL     1      -5.621   2.995   2.784  0.00  0.00    +0.092 A 
ATOM      9  C   UNL     1      -5.605   1.610   2.724  0.00  0.00    +0.147 A 
ATOM     10  O   UNL     1      -5.122   0.972   1.637  0.00  0.00    -0.451 OA
ATOM     11  C   UNL     1      -5.086  -0.368   1.547  0.00  0.00    +0.181 A 
ENDROOT
BRANCH  11  12
ATOM     12  C   UNL     1      -4.535  -0.984   0.326  0.00  0.00    +0.025 A 
ATOM     13  C   UNL     1      -4.936  -0.524  -0.932  0.00  0.00    +0.015 A 
ATOM     14  C   UNL     1      -4.419  -1.101  -2.073  0.00  0.00    +0.050 A 
ATOM     15  C   UNL     1      -3.501  -2.137  -1.976  0.00  0.00    +0.158 A 
ATOM     16  C   UNL     1      -3.097  -2.600  -0.726  0.00  0.00    +0.159 A 
ATOM     17  C   UNL     1      -3.606  -2.023   0.422  0.00  0.00    +0.060 A 
BRANCH  16  18
ATOM     18  O   UNL     1      -2.197  -3.615  -0.635  0.00  0.00    -0.503 OA
ATOM     19  H   UNL     1      -1.275  -3.323  -0.606  0.00  0.00    +0.292 HD
ENDBRANCH  16  18
BRANCH  15  20
ATOM     20  O   UNL     1      -2.995  -2.701  -3.104  0.00  0.00    -0.503 OA
ATOM     21  H   UNL     1      -2.188  -2.279  -3.428  0.00  0.00    +0.292 HD
ENDBRANCH  15  20
ENDBRANCH  11  12
BRANCH   7  22
ATOM     22  O   UNL     1      -6.133   4.992   3.958  0.00  0.00    -0.507 OA
ATOM     23  H   UNL     1      -5.331   5.379   4.334  0.00  0.00    +0.292 HD
ENDBRANCH   7  22
BRANCH   5  24
ATOM     24  O   UNL     1      -7.077   0.802   5.991  0.00  0.00    -0.506 OA
ATOM     25  H   UNL     1      -6.409   0.588   6.657  0.00  0.00    +0.292 HD
ENDBRANCH   5  24
BRANCH   1  26
ATOM     26  O   UNL     1      -5.491  -2.533   2.402  0.00  0.00    -0.453 OA
BRANCH  26  31
ATOM     27  C   UNL     1      -8.647  -3.550   0.907  0.00  0.00    +0.191 C 
ATOM     28  C   UNL     1      -8.477  -5.071   0.944  0.00  0.00    +0.178 C 
ATOM     29  C   UNL     1      -7.825  -5.472   2.271  0.00  0.00    +0.180 C 
ATOM     30  C   UNL     1      -6.491  -4.734   2.416  0.00  0.00    +0.214 C 
ATOM     31  C   UNL     1      -6.738  -3.226   2.323  0.00  0.00    +0.340 C 
ATOM     32  O   UNL     1      -7.374  -2.924   1.079  0.00  0.00    -0.330 OA
BRANCH  30  33
ATOM     33  O   UNL     1      -5.908  -5.046   3.683  0.00  0.00    -0.383 OA
ATOM     34  H   UNL     1      -5.059  -4.611   3.843  0.00  0.00    +0.210 HD
ENDBRANCH  30  33
BRANCH  29  35
ATOM     35  O   UNL     1      -7.597  -6.882   2.284  0.00  0.00    -0.386 OA
ATOM     36  H   UNL     1      -7.186  -7.207   3.097  0.00  0.00    +0.210 HD
ENDBRANCH  29  35
BRANCH  28  37
ATOM     37  O   UNL     1      -9.756  -5.697   0.830  0.00  0.00    -0.386 OA
ATOM     38  H   UNL     1      -9.723  -6.664   0.845  0.00  0.00    +0.210 HD
ENDBRANCH  28  37
BRANCH  27  39
ATOM     39  C   UNL     1      -9.242  -3.135  -0.440  0.00  0.00    +0.266 C 
BRANCH  39  40
ATOM     40  O   UNL     1      -9.509  -1.731  -0.431  0.00  0.00    -0.462 OA
BRANCH  40  42
ATOM     41  C   UNL     1     -10.345   0.270  -1.611  0.00  0.00    +0.136 C 
ATOM     42  C   UNL     1     -10.037  -1.204  -1.547  0.00  0.00    +0.304 C 
ATOM     43  O   UNL     1     -10.265  -1.911  -2.500  0.00  0.00    -0.251 OA
ENDBRANCH  40  42
ENDBRANCH  39  40
ENDBRANCH  27  39
ENDBRANCH  26  31
ENDBRANCH   1  26
TORSDOF 13
