REMARK  Name = ZINC36265797
REMARK  4 active torsions:
REMARK  status: ('A' for Active; 'I' for Inactive)
REMARK    1  A    between atoms: C_2  and  S_8
REMARK    2  A    between atoms: S_8  and  N_11
REMARK    3  A    between atoms: N_11  and  C_12
REMARK    4  A    between atoms: C_14  and  N_16
REMARK                            x       y       z     vdW  Elec       q    Type
REMARK                         _______ _______ _______ _____ _____    ______ ____
ROOT
ATOM      1  S   UNL     1       1.238   3.925  -0.035  0.00  0.00    +0.060 S 
ATOM      2  O   UNL     1       2.156   4.533  -0.933  0.00  0.00    -0.153 OA
ATOM      3  O   UNL     1      -0.154   4.212  -0.058  0.00  0.00    -0.153 OA
ENDROOT
BRANCH   1   5
ATOM      4  C   UNL     1       2.271   1.672  -1.197  0.00  0.00    +0.052 A 
ATOM      5  C   UNL     1       1.397   2.184  -0.255  0.00  0.00    +0.127 A 
ATOM      6  C   UNL     1       0.664   1.325   0.496  0.00  0.00    +0.082 A 
ATOM      7  S   UNL     1       1.204  -0.260  -0.122  0.00  0.00    -0.073 S 
ATOM      8  C   UNL     1       2.369   0.327  -1.340  0.00  0.00    +0.058 A 
ATOM      9 BR   UNL     1       3.458  -0.668  -2.524  0.00  0.00    -0.042 Br
ATOM     10 BR   UNL     1      -0.601   1.708   1.849  0.00  0.00    -0.041 Br
ENDBRANCH   1   5
BRANCH   1  11
ATOM     11  N   UNL     1       1.768   4.275   1.494  0.00  0.00    -0.187 NA
ATOM     12  H   UNL     1       1.149   4.625   2.154  0.00  0.00    +0.148 HD
BRANCH  11  13
ATOM     13  C   UNL     1       3.172   4.057   1.850  0.00  0.00    +0.073 C 
ATOM     14  C   UNL     1       3.370   3.024   2.971  0.00  0.00    +0.004 C 
ATOM     15  C   UNL     1       3.245   4.192   3.963  0.00  0.00    -0.072 C 
ATOM     16  C   UNL     1       3.730   5.106   2.826  0.00  0.00    +0.004 C 
BRANCH  15  17
ATOM     17  N   UNL     1       4.181   4.109   5.092  0.00  0.00    +0.380 N 
ATOM     18  H   UNL     1       5.128   4.109   4.745  0.00  0.00    -0.090 HD
ATOM     19  H   UNL     1       4.045   4.902   5.701  0.00  0.00    -0.090 HD
ATOM     20  H   UNL     1       4.013   3.257   5.607  0.00  0.00    -0.090 HD
ENDBRANCH  15  17
ENDBRANCH  11  13
ENDBRANCH   1  11
TORSDOF 4
