REMARK  Name = ZINC12661408
REMARK  9 active torsions:
REMARK  status: ('A' for Active; 'I' for Inactive)
REMARK    1  A    between atoms: C_1  and  C_2
REMARK    2  A    between atoms: C_19  and  C_21
REMARK    3  A    between atoms: C_21  and  N_22
REMARK    4  A    between atoms: N_22  and  C_23
REMARK    5  A    between atoms: C_23  and  C_24
REMARK    6  A    between atoms: C_23  and  C_25
REMARK    7  A    between atoms: C_23  and  C_27
REMARK    8  A    between atoms: C_25  and  O_26
REMARK    9  A    between atoms: C_27  and  O_28
REMARK                            x       y       z     vdW  Elec       q    Type
REMARK                         _______ _______ _______ _____ _____    ______ ____
ROOT
ATOM      1  C   UNL     1      -0.019   1.528   0.010  0.00  0.00    +0.012 C 
ATOM      2  C   UNL     1       0.002  -0.004   0.002  0.00  0.00    -0.022 C 
ATOM      3  C   UNL     1      -1.424  -0.538  -0.019  0.00  0.00    +0.007 C 
ATOM      4  C   UNL     1      -2.214  -0.070   1.202  0.00  0.00    +0.005 C 
ATOM      5  C   UNL     1      -1.532  -0.547   2.487  0.00  0.00    +0.030 C 
ATOM      6  C   UNL     1      -0.083  -0.116   2.459  0.00  0.00    -0.073 C 
ATOM      7  C   UNL     1       0.444   0.564   3.446  0.00  0.00    +0.008 C 
ATOM      8  C   UNL     1       0.744  -0.509   1.244  0.00  0.00    +0.021 C 
ATOM      9  C   UNL     1       0.831  -2.029   1.211  0.00  0.00    +0.016 C 
ATOM     10  C   UNL     1       1.313  -2.635  -0.068  0.00  0.00    +0.042 C 
ATOM     11  C   UNL     1       0.780  -1.979  -1.353  0.00  0.00    +0.181 C 
ATOM     12  C   UNL     1       0.765  -0.457  -1.239  0.00  0.00    +0.052 C 
ATOM     13  O   UNL     1       1.806  -2.304  -2.330  0.00  0.00    -0.461 OA
ATOM     14  C   UNL     1       2.999  -2.181  -1.712  0.00  0.00    +0.309 C 
ATOM     15  O   UNL     1       4.016  -1.753  -2.197  0.00  0.00    -0.251 OA
ATOM     16  C   UNL     1       2.828  -2.683  -0.284  0.00  0.00    +0.087 C 
ENDROOT
BRANCH  16  17
ATOM     17  C   UNL     1       3.615  -1.815   0.691  0.00  0.00    -0.067 C 
BRANCH  17  18
ATOM     18  N   UNL     1       5.054  -2.022   0.480  0.00  0.00    +0.386 N 
ATOM     19  H   UNL     1       5.280  -2.993   0.636  0.00  0.00    -0.085 HD
ATOM     20  H   UNL     1       5.295  -1.768  -0.467  0.00  0.00    -0.085 HD
BRANCH  18  21
ATOM     21  C   UNL     1       5.812  -1.185   1.420  0.00  0.00    -0.024 C 
ATOM     22  C   UNL     1       5.468   0.287   1.183  0.00  0.00    -0.006 C 
BRANCH  21  23
ATOM     23  C   UNL     1       5.446  -1.570   2.854  0.00  0.00    +0.145 C 
BRANCH  23  24
ATOM     24  O   UNL     1       5.767  -2.945   3.075  0.00  0.00    -0.396 OA
ATOM     25  H   UNL     1       5.562  -3.259   3.966  0.00  0.00    +0.209 HD
ENDBRANCH  23  24
ENDBRANCH  21  23
BRANCH  21  26
ATOM     26  C   UNL     1       7.310  -1.401   1.200  0.00  0.00    +0.145 C 
BRANCH  26  27
ATOM     27  O   UNL     1       8.048  -0.587   2.114  0.00  0.00    -0.396 OA
ATOM     28  H   UNL     1       9.008  -0.672   2.031  0.00  0.00    +0.209 HD
ENDBRANCH  26  27
ENDBRANCH  21  26
ENDBRANCH  18  21
ENDBRANCH  17  18
ENDBRANCH  16  17
TORSDOF 7
