REMARK  Name = ZINC33937256
REMARK  12 active torsions:
REMARK  status: ('A' for Active; 'I' for Inactive)
REMARK    1  A    between atoms: C_1  and  C_2
REMARK    2  A    between atoms: C_7  and  C_15
REMARK    3  A    between atoms: C_13  and  C_14
REMARK    4  A    between atoms: C_15  and  N_16
REMARK    5  A    between atoms: N_16  and  C_17
REMARK    6  A    between atoms: N_16  and  C_24
REMARK    7  A    between atoms: C_17  and  C_18
REMARK    8  A    between atoms: C_24  and  C_26
REMARK    9  A    between atoms: C_24  and  C_37
REMARK   10  A    between atoms: N_30  and  C_31
REMARK   11  A    between atoms: C_37  and  C_38
REMARK   12  A    between atoms: C_37  and  C_39
REMARK                            x       y       z     vdW  Elec       q    Type
REMARK                         _______ _______ _______ _____ _____    ______ ____
ROOT
ATOM      1  N   UNL     1       1.672  -6.489   1.177  0.00  0.00    +0.391 N 
ATOM      2  H   UNL     1       2.247  -5.979   1.831  0.00  0.00    -0.080 HD
ENDROOT
BRANCH   1   3
ATOM      3  C   UNL     1       0.264  -6.119   1.370  0.00  0.00    -0.036 C 
BRANCH   3  10
ATOM      4  C   UNL     1      -1.422  -5.986   9.165  0.00  0.00    +0.044 C 
ATOM      5  C   UNL     1      -1.046  -5.787   7.719  0.00  0.00    -0.046 A 
ATOM      6  C   UNL     1      -0.600  -4.543   7.291  0.00  0.00    +0.004 A 
ATOM      7  C   UNL     1      -0.254  -4.341   5.985  0.00  0.00    +0.010 A 
ATOM      8  C   UNL     1      -0.350  -5.396   5.071  0.00  0.00    -0.001 A 
ATOM      9  C   UNL     1       0.012  -5.214   3.664  0.00  0.00    +0.017 A 
ATOM     10  C   UNL     1      -0.101  -6.272   2.824  0.00  0.00    +0.001 A 
ATOM     11  C   UNL     1      -0.559  -7.517   3.307  0.00  0.00    +0.251 A 
ATOM     12  O   UNL     1      -0.653  -8.455   2.534  0.00  0.00    -0.268 OA
ATOM     13  N   UNL     1      -0.895  -7.693   4.597  0.00  0.00    -0.322 N 
ATOM     14  H   UNL     1      -1.206  -8.562   4.895  0.00  0.00    +0.169 HD
ATOM     15  C   UNL     1      -0.802  -6.657   5.501  0.00  0.00    +0.052 A 
ATOM     16  C   UNL     1      -1.143  -6.841   6.838  0.00  0.00    -0.024 A 
ATOM     17  C   UNL     1      -1.623  -8.187   7.318  0.00  0.00    +0.046 C 
ENDBRANCH   3  10
ENDBRANCH   1   3
BRANCH   1  18
ATOM     18  C   UNL     1       2.082  -6.160  -0.195  0.00  0.00    -0.045 C 
BRANCH  18  19
ATOM     19  C   UNL     1       2.291  -4.649  -0.316  0.00  0.00    +0.102 C 
ATOM     20  C   UNL     1       2.786  -4.287  -1.739  0.00  0.00    +0.032 C 
ATOM     21  C   UNL     1       2.316  -2.810  -1.847  0.00  0.00    +0.030 C 
ATOM     22  C   UNL     1       0.999  -2.825  -1.042  0.00  0.00    +0.160 C 
ATOM     23  O   UNL     1       1.040  -3.959  -0.165  0.00  0.00    -0.378 OA
ENDBRANCH  18  19
ENDBRANCH   1  18
BRANCH   1  24
ATOM     24  C   UNL     1       1.835  -7.931   1.403  0.00  0.00    +0.006 C 
BRANCH  24  25
ATOM     25  C   UNL     1       1.433  -8.684   0.161  0.00  0.00    +0.139 A 
ATOM     26  N   UNL     1       1.648  -8.318  -1.079  0.00  0.00    -0.115 NA
ATOM     27  N   UNL     1       1.157  -9.224  -1.852  0.00  0.00    -0.023 NA
ATOM     28  N   UNL     1       0.633 -10.158  -1.137  0.00  0.00    -0.044 NA
ATOM     29  N   UNL     1       0.788  -9.864   0.109  0.00  0.00    -0.228 N 
BRANCH  29  30
ATOM     30  C   UNL     1       0.342 -10.662   1.254  0.00  0.00    +0.111 C 
ATOM     31  C   UNL     1       1.046 -12.021   1.233  0.00  0.00    +0.027 C 
ATOM     32  C   UNL     1       0.580 -12.855   2.428  0.00  0.00    +0.002 C 
ATOM     33  C   UNL     1      -0.933 -13.063   2.345  0.00  0.00    +0.000 C 
ATOM     34  C   UNL     1      -1.637 -11.705   2.366  0.00  0.00    +0.002 C 
ATOM     35  C   UNL     1      -1.172 -10.871   1.171  0.00  0.00    +0.027 C 
ENDBRANCH  29  30
ENDBRANCH  24  25
BRANCH  24  36
ATOM     36  C   UNL     1       3.298  -8.234   1.732  0.00  0.00    -0.024 C 
ATOM     37  C   UNL     1       4.191  -7.723   0.599  0.00  0.00    +0.006 C 
ATOM     38  C   UNL     1       3.683  -7.537   3.038  0.00  0.00    +0.006 C 
ENDBRANCH  24  36
ENDBRANCH   1  24
TORSDOF 8
