REMARK  Name = ZINC40684860
REMARK  3 active torsions:
REMARK  status: ('A' for Active; 'I' for Inactive)
REMARK    1  A    between atoms: C_12  and  N_27
REMARK    2  A    between atoms: C_13  and  N_17
REMARK    3  A    between atoms: N_17  and  C_18
REMARK                            x       y       z     vdW  Elec       q    Type
REMARK                         _______ _______ _______ _____ _____    ______ ____
ROOT
ATOM      1  C   UNL     1       2.461  -1.817   3.131  0.00  0.00    +0.000 A 
ATOM      2  C   UNL     1       3.745  -1.395   2.840  0.00  0.00    +0.002 A 
ATOM      3  C   UNL     1       4.073  -1.027   1.551  0.00  0.00    +0.024 A 
ATOM      4  C   UNL     1       3.113  -1.082   0.546  0.00  0.00    +0.038 A 
ATOM      5  C   UNL     1       1.827  -1.508   0.838  0.00  0.00    -0.026 A 
ATOM      6  C   UNL     1       1.506  -1.873   2.135  0.00  0.00    +0.005 A 
ATOM      7  C   UNL     1       0.764  -1.590  -0.226  0.00  0.00    +0.038 C 
ATOM      8  C   UNL     1       1.130  -0.704  -1.417  0.00  0.00    +0.024 C 
ATOM      9  C   UNL     1       2.560  -1.036  -1.862  0.00  0.00    +0.113 C 
ATOM     10  N   UNL     1       3.464  -0.700  -0.754  0.00  0.00    -0.283 N 
ATOM     11  C   UNL     1       4.650  -0.015  -0.993  0.00  0.00    +0.151 A 
ATOM     12  C   UNL     1       4.664   1.381  -1.048  0.00  0.00    +0.104 A 
ATOM     13  C   UNL     1       5.882   2.019  -1.290  0.00  0.00    +0.126 A 
ATOM     14  N   UNL     1       6.975   1.279  -1.459  0.00  0.00    -0.333 N 
ATOM     15  C   UNL     1       6.918  -0.036  -1.401  0.00  0.00    +0.200 A 
ATOM     16  N   UNL     1       5.791  -0.678  -1.169  0.00  0.00    -0.220 NA
ATOM     17  H   UNL     1       7.826   1.713  -1.628  0.00  0.00    +0.168 HD
ENDROOT
BRANCH  12  18
ATOM     18  N   UNL     1       3.486   2.121  -0.864  0.00  0.00    -0.353 N 
ATOM     19  H   UNL     1       2.662   1.670  -0.620  0.00  0.00    +0.143 HD
ATOM     20  H   UNL     1       3.495   3.084  -0.981  0.00  0.00    +0.143 HD
ENDBRANCH  12  18
BRANCH  13  21
ATOM     21  N   UNL     1       5.951   3.406  -1.355  0.00  0.00    -0.299 N 
ATOM     22  H   UNL     1       5.172   3.941  -1.139  0.00  0.00    +0.154 HD
BRANCH  21  23
ATOM     23  C   UNL     1       7.146   4.030  -1.731  0.00  0.00    +0.036 A 
ATOM     24  C   UNL     1       7.917   3.495  -2.755  0.00  0.00    +0.027 A 
ATOM     25  C   UNL     1       9.097   4.110  -3.127  0.00  0.00    +0.051 A 
ATOM     26  C   UNL     1       9.515   5.261  -2.480  0.00  0.00    +0.166 A 
ATOM     27  C   UNL     1       8.745   5.800  -1.452  0.00  0.00    +0.168 A 
ATOM     28  C   UNL     1       7.559   5.187  -1.084  0.00  0.00    +0.072 A 
ATOM     29  O   UNL     1       9.367   6.921  -0.982  0.00  0.00    -0.453 OA
ATOM     30  C   UNL     1      10.725   6.833  -1.453  0.00  0.00    +0.466 C 
ATOM     31  O   UNL     1      10.621   6.045  -2.653  0.00  0.00    -0.453 OA
ENDBRANCH  21  23
ENDBRANCH  13  21
TORSDOF 3
