REMARK  Name = ZINC05324969
REMARK  8 active torsions:
REMARK  status: ('A' for Active; 'I' for Inactive)
REMARK    1  A    between atoms: C_1  and  S_2
REMARK    2  A    between atoms: S_2  and  C_3
REMARK    3  A    between atoms: C_3  and  C_4
REMARK    4  A    between atoms: C_4  and  C_5
REMARK    5  A    between atoms: C_5  and  C_7
REMARK    6  A    between atoms: C_5  and  N_16
REMARK    7  A    between atoms: N_9  and  C_10
REMARK    8  A    between atoms: C_17  and  C_19
REMARK                            x       y       z     vdW  Elec       q    Type
REMARK                         _______ _______ _______ _____ _____    ______ ____
ROOT
ATOM      1  N   UNL     1      -5.411   0.173  -1.000  0.00  0.00    -0.305 N 
ATOM      2  C   UNL     1      -4.969   1.081  -0.107  0.00  0.00    +0.200 C 
ATOM      3  O   UNL     1      -5.609   1.301   0.900  0.00  0.00    -0.278 OA
ATOM      4  H   UNL     1      -4.900  -0.003  -1.805  0.00  0.00    +0.149 HD
ENDROOT
BRANCH   2   5
ATOM      5  C   UNL     1      -3.681   1.820  -0.358  0.00  0.00    +0.021 C 
ATOM      6  C   UNL     1      -2.496   0.940   0.042  0.00  0.00    +0.028 C 
ATOM      7  C   UNL     1      -1.225   1.749   0.017  0.00  0.00    -0.047 A 
ATOM      8  C   UNL     1      -0.013   1.076   0.008  0.00  0.00    +0.004 A 
ATOM      9  C   UNL     1       1.175   1.779   0.000  0.00  0.00    +0.000 A 
ATOM     10  C   UNL     1       1.157   3.161   0.007  0.00  0.00    +0.000 A 
ATOM     11  C   UNL     1      -0.049   3.832   0.020  0.00  0.00    +0.002 A 
ATOM     12  C   UNL     1      -1.244   3.127   0.027  0.00  0.00    -0.061 A 
ATOM     13  C   UNL     1      -2.535   3.904   0.035  0.00  0.00    -0.045 C 
ATOM     14  N   UNL     1      -3.651   3.047   0.459  0.00  0.00    +0.389 N 
ATOM     15  H   UNL     1      -3.531   2.796   1.447  0.00  0.00    -0.084 HD
ATOM     16  H   UNL     1      -4.535   3.557   0.341  0.00  0.00    -0.084 HD
ENDBRANCH   2   5
BRANCH   1  17
ATOM     17  C   UNL     1      -6.664  -0.546  -0.755  0.00  0.00    +0.159 C 
BRANCH  17  18
ATOM     18  C   UNL     1      -6.642  -1.859  -1.494  0.00  0.00    +0.234 C 
ATOM     19  O   UNL     1      -5.675  -2.164  -2.160  0.00  0.00    -0.274 OA
ATOM     20  N   UNL     1      -7.696  -2.694  -1.415  0.00  0.00    -0.311 N 
ATOM     21  H   UNL     1      -8.470  -2.450  -0.883  0.00  0.00    +0.149 HD
BRANCH  20  22
ATOM     22  C   UNL     1      -7.675  -3.971  -2.134  0.00  0.00    +0.073 C 
ATOM     23  C   UNL     1      -8.141  -3.754  -3.575  0.00  0.00    +0.022 C 
ATOM     24  C   UNL     1      -8.118  -5.087  -4.324  0.00  0.00    +0.002 C 
ATOM     25  C   UNL     1      -9.054  -6.079  -3.630  0.00  0.00    +0.000 C 
ATOM     26  C   UNL     1      -8.587  -6.296  -2.189  0.00  0.00    +0.002 C 
ATOM     27  C   UNL     1      -8.610  -4.963  -1.439  0.00  0.00    +0.022 C 
ENDBRANCH  20  22
ENDBRANCH  17  18
BRANCH  17  28
ATOM     28  C   UNL     1      -7.841   0.297  -1.250  0.00  0.00    +0.042 C 
BRANCH  28  29
ATOM     29  C   UNL     1      -7.939   1.576  -0.415  0.00  0.00    +0.071 C 
BRANCH  29  31
ATOM     30  C   UNL     1      -9.312   4.035   0.077  0.00  0.00    +0.084 C 
ATOM     31  S   UNL     1      -9.334   2.576  -1.001  0.00  0.00    -0.164 S 
ENDBRANCH  29  31
ENDBRANCH  28  29
ENDBRANCH  17  28
ENDBRANCH   1  17
TORSDOF 7
