REMARK  Name = ZINC09088618
REMARK  8 active torsions:
REMARK  status: ('A' for Active; 'I' for Inactive)
REMARK    1  A    between atoms: C_1  and  C_2
REMARK    2  A    between atoms: C_2  and  C_3
REMARK    3  A    between atoms: C_6  and  N_9
REMARK    4  A    between atoms: C_12  and  C_18
REMARK    5  A    between atoms: C_13  and  O_17
REMARK    6  A    between atoms: C_15  and  O_16
REMARK    7  A    between atoms: C_24  and  O_30
REMARK    8  A    between atoms: O_30  and  C_31
REMARK                            x       y       z     vdW  Elec       q    Type
REMARK                         _______ _______ _______ _____ _____    ______ ____
ROOT
ATOM      1  N   UNL     1      -0.016   1.345   0.009  0.00  0.00    -0.231 N 
ATOM      2  C   UNL     1       0.057   0.087   0.491  0.00  0.00    +0.267 A 
ATOM      3  O   UNL     1      -0.935  -0.464   0.943  0.00  0.00    -0.267 OA
ATOM      4  C   UNL     1       1.290  -0.576   0.465  0.00  0.00    +0.071 A 
ATOM      5  C   UNL     1       2.389   0.086  -0.055  0.00  0.00    +0.224 A 
ATOM      6  N   UNL     1       2.255   1.333  -0.518  0.00  0.00    -0.161 NA
ATOM      7  C   UNL     1       1.095   1.950  -0.491  0.00  0.00    +0.306 A 
ENDROOT
BRANCH   4   8
ATOM      8  C   UNL     1       1.418  -1.982   0.992  0.00  0.00    +0.018 C 
ATOM      9  C   UNL     1       0.594  -2.919   0.142  0.00  0.00    +0.011 A 
ATOM     10  C   UNL     1      -0.191  -3.889   0.663  0.00  0.00    -0.022 A 
ATOM     11  C   UNL     1      -0.819  -4.574  -0.445  0.00  0.00    +0.006 A 
ATOM     12  C   UNL     1      -1.718  -5.643  -0.514  0.00  0.00    +0.056 A 
ATOM     13  C   UNL     1      -2.114  -6.046  -1.780  0.00  0.00    +0.121 A 
ATOM     14  C   UNL     1      -1.644  -5.420  -2.929  0.00  0.00    +0.047 A 
ATOM     15  C   UNL     1      -0.755  -4.361  -2.879  0.00  0.00    +0.030 A 
ATOM     16  C   UNL     1      -0.341  -3.937  -1.619  0.00  0.00    +0.047 A 
ATOM     17  N   UNL     1       0.511  -2.942  -1.224  0.00  0.00    -0.359 N 
ATOM     18  H   UNL     1       0.984  -2.342  -1.822  0.00  0.00    +0.166 HD
ATOM     19  C   UNL     1      -0.327  -4.143   2.144  0.00  0.00    +0.018 C 
ATOM     20  C   UNL     1       0.828  -3.425   2.856  0.00  0.00    -0.076 C 
ATOM     21  N   UNL     1       0.916  -2.028   2.382  0.00  0.00    +0.388 N 
ATOM     22  H   UNL     1      -0.017  -1.600   2.419  0.00  0.00    -0.084 HD
ATOM     23  H   UNL     1       1.557  -1.505   2.991  0.00  0.00    -0.084 HD
BRANCH  13  24
ATOM     24  O   UNL     1      -2.987  -7.081  -1.902  0.00  0.00    -0.495 OA
ATOM     25  C   UNL     1      -3.365  -7.458  -3.228  0.00  0.00    +0.277 C 
ENDBRANCH  13  24
ENDBRANCH   4   8
BRANCH   1  29
ATOM     26  C   UNL     1      -3.655   3.377   0.038  0.00  0.00    -0.047 A 
ATOM     27  C   UNL     1      -2.801   3.477   1.120  0.00  0.00    +0.005 A 
ATOM     28  C   UNL     1      -1.594   2.805   1.114  0.00  0.00    +0.026 A 
ATOM     29  C   UNL     1      -1.240   2.028   0.019  0.00  0.00    +0.054 A 
ATOM     30  C   UNL     1      -2.097   1.935  -1.069  0.00  0.00    +0.026 A 
ATOM     31  C   UNL     1      -3.305   2.604  -1.054  0.00  0.00    +0.005 A 
BRANCH  26  33
ATOM     32  C   UNL     1      -4.782   5.505  -0.555  0.00  0.00    +0.009 C 
ATOM     33  C   UNL     1      -4.971   4.112   0.048  0.00  0.00    +0.032 C 
ENDBRANCH  26  33
ENDBRANCH   1  29
BRANCH   7  34
ATOM     34  O   UNL     1       1.005   3.208  -0.968  0.00  0.00    -0.479 OA
ATOM     35  H   UNL     1       1.815   3.605  -1.316  0.00  0.00    +0.295 HD
ENDBRANCH   7  34
BRANCH   5  36
ATOM     36  O   UNL     1       3.595  -0.527  -0.094  0.00  0.00    -0.492 OA
ATOM     37  H   UNL     1       4.300   0.015  -0.474  0.00  0.00    +0.294 HD
ENDBRANCH   5  36
TORSDOF 6
