REMARK  Name = ZINC24072378
REMARK  6 active torsions:
REMARK  status: ('A' for Active; 'I' for Inactive)
REMARK    1  A    between atoms: C_1  and  C_2
REMARK    2  A    between atoms: C_2  and  C_4
REMARK    3  A    between atoms: C_2  and  N_24
REMARK    4  A    between atoms: C_7  and  C_19
REMARK    5  A    between atoms: C_10  and  C_12
REMARK    6  A    between atoms: C_30  and  C_32
REMARK                            x       y       z     vdW  Elec       q    Type
REMARK                         _______ _______ _______ _____ _____    ______ ____
ROOT
ATOM      1  C   UNL     1       3.244   1.714  -1.057  0.00  0.00    +0.222 C 
ATOM      2  O   UNL     1       3.929   0.726  -0.898  0.00  0.00    -0.276 OA
ATOM      3  N   UNL     1       1.917   1.588  -1.259  0.00  0.00    -0.183 N 
ATOM      4  C   UNL     1       1.176   0.318  -1.310  0.00  0.00    +0.172 C 
ATOM      5  C   UNL     1      -0.280   0.759  -1.562  0.00  0.00    +0.090 C 
ATOM      6  C   UNL     1      -0.197   2.268  -1.627  0.00  0.00    +0.069 C 
ATOM      7  N   UNL     1       1.024   2.640  -1.454  0.00  0.00    -0.181 NA
ENDROOT
BRANCH   6   8
ATOM      8  C   UNL     1      -1.338   3.173  -1.859  0.00  0.00    -0.002 A 
ATOM      9  C   UNL     1      -2.620   2.652  -2.046  0.00  0.00    +0.011 A 
ATOM     10  C   UNL     1      -3.684   3.505  -2.256  0.00  0.00    +0.020 A 
ATOM     11  C   UNL     1      -3.480   4.874  -2.295  0.00  0.00    +0.041 A 
ATOM     12  C   UNL     1      -2.210   5.397  -2.116  0.00  0.00    +0.020 A 
ATOM     13  C   UNL     1      -1.139   4.555  -1.898  0.00  0.00    +0.011 A 
ATOM     14 CL   UNL     1      -4.823   5.940  -2.567  0.00  0.00    -0.084 Cl
ENDBRANCH   6   8
BRANCH   4  15
ATOM     15  C   UNL     1       1.673  -0.541  -2.444  0.00  0.00    +0.128 A 
ATOM     16  C   UNL     1       1.746  -1.884  -2.440  0.00  0.00    +0.046 A 
ATOM     17  C   UNL     1       2.266  -2.270  -3.697  0.00  0.00    +0.041 A 
ATOM     18  C   UNL     1       2.480  -1.140  -4.394  0.00  0.00    +0.195 A 
ATOM     19  O   UNL     1       2.113  -0.096  -3.632  0.00  0.00    -0.466 OA
ENDBRANCH   4  15
BRANCH   1  21
ATOM     20  C   UNL     1       3.824   3.697  -2.428  0.00  0.00    -0.004 C 
ATOM     21  C   UNL     1       3.876   3.082  -1.028  0.00  0.00    +0.018 C 
BRANCH  21  22
ATOM     22  N   UNL     1       5.275   2.966  -0.595  0.00  0.00    +0.389 N 
ATOM     23  C   UNL     1       5.825   4.280  -0.237  0.00  0.00    -0.058 C 
ATOM     24  C   UNL     1       7.217   4.097   0.378  0.00  0.00    +0.089 C 
ATOM     25  N   UNL     1       8.039   3.311  -0.555  0.00  0.00    -0.301 N 
ATOM     26  C   UNL     1       7.494   2.045  -1.067  0.00  0.00    +0.089 C 
ATOM     27  C   UNL     1       6.091   2.309  -1.625  0.00  0.00    -0.058 C 
ATOM     28  C   UNL     1       9.260   3.741  -0.931  0.00  0.00    +0.253 C 
ATOM     29  O   UNL     1       9.855   3.175  -1.829  0.00  0.00    -0.269 OA
ATOM     30  H   UNL     1       5.301   2.335   0.305  0.00  0.00    -0.081 HD
BRANCH  28  31
ATOM     31  C   UNL     1       9.873   4.890  -0.257  0.00  0.00    +0.074 A 
ATOM     32  C   UNL     1      11.028   5.581  -0.586  0.00  0.00    +0.021 A 
ATOM     33  C   UNL     1      11.378   6.634   0.223  0.00  0.00    +0.008 A 
ATOM     34  C   UNL     1      10.596   6.938   1.292  0.00  0.00    +0.046 A 
ATOM     35  S   UNL     1       9.328   5.758   1.203  0.00  0.00    -0.092 S 
ENDBRANCH  28  31
ENDBRANCH  21  22
ENDBRANCH   1  21
TORSDOF 5
