REMARK  Name = ZINC42691448
REMARK  10 active torsions:
REMARK  status: ('A' for Active; 'I' for Inactive)
REMARK    1  A    between atoms: C_1  and  C_2
REMARK    2  A    between atoms: C_2  and  C_3
REMARK    3  A    between atoms: C_2  and  C_4
REMARK    4  A    between atoms: C_4  and  N_5
REMARK    5  A    between atoms: N_5  and  C_6
REMARK    6  A    between atoms: N_5  and  C_10
REMARK    7  A    between atoms: C_6  and  C_7
REMARK    8  A    between atoms: C_12  and  N_20
REMARK    9  A    between atoms: C_14  and  S_16
REMARK   10  A    between atoms: S_16  and  N_19
REMARK                            x       y       z     vdW  Elec       q    Type
REMARK                         _______ _______ _______ _____ _____    ______ ____
ROOT
ATOM      1  C   UNL     1      -2.800   1.061  -1.303  0.00  0.00    +0.034 A 
ATOM      2  C   UNL     1      -2.850   1.901  -0.199  0.00  0.00    +0.046 A 
ATOM      3  C   UNL     1      -3.541   3.102  -0.275  0.00  0.00    +0.028 A 
ATOM      4  C   UNL     1      -4.182   3.459  -1.456  0.00  0.00    +0.051 A 
ATOM      5  C   UNL     1      -4.131   2.621  -2.553  0.00  0.00    +0.108 A 
ATOM      6  C   UNL     1      -3.438   1.427  -2.482  0.00  0.00    +0.051 A 
ENDROOT
BRANCH   5   7
ATOM      7  S   UNL     1      -4.944   3.078  -4.047  0.00  0.00    +0.056 S 
ATOM      8  O   UNL     1      -5.205   1.873  -4.753  0.00  0.00    -0.153 OA
ATOM      9  O   UNL     1      -5.974   3.989  -3.687  0.00  0.00    -0.153 OA
BRANCH   7  10
ATOM     10  N   UNL     1      -3.854   3.932  -4.956  0.00  0.00    -0.204 NA
ATOM     11  H   UNL     1      -3.905   3.906  -5.925  0.00  0.00    +0.144 HD
ATOM     12  H   UNL     1      -3.165   4.457  -4.521  0.00  0.00    +0.144 HD
ENDBRANCH   7  10
ENDBRANCH   5   7
BRANCH   3  13
ATOM     13  N   UNL     1      -3.594   3.950   0.833  0.00  0.00    -0.358 N 
ATOM     14  H   UNL     1      -3.147   3.699   1.657  0.00  0.00    +0.142 HD
ATOM     15  H   UNL     1      -4.077   4.789   0.779  0.00  0.00    +0.142 HD
ENDBRANCH   3  13
BRANCH   1  16
ATOM     16  N   UNL     1      -2.105  -0.148  -1.230  0.00  0.00    -0.321 N 
BRANCH  16  17
ATOM     17  C   UNL     1      -1.433  -0.534   0.013  0.00  0.00    +0.108 C 
BRANCH  17  19
ATOM     18  C   UNL     1      -0.019   1.526   0.010  0.00  0.00    +0.009 C 
ATOM     19  C   UNL     1       0.002  -0.004   0.002  0.00  0.00    +0.000 C 
ATOM     20  C   UNL     1       0.742  -0.511   1.242  0.00  0.00    +0.009 C 
ENDBRANCH  17  19
ENDBRANCH  16  17
BRANCH  16  21
ATOM     21  C   UNL     1      -2.049  -1.032  -2.398  0.00  0.00    +0.200 C 
BRANCH  21  22
ATOM     22  C   UNL     1      -3.212  -1.988  -2.361  0.00  0.00    +0.228 C 
ATOM     23  O   UNL     1      -4.011  -1.937  -1.450  0.00  0.00    -0.274 OA
ATOM     24  N   UNL     1      -3.366  -2.900  -3.341  0.00  0.00    -0.328 N 
ATOM     25  H   UNL     1      -2.728  -2.941  -4.071  0.00  0.00    +0.145 HD
ATOM     26  H   UNL     1      -4.115  -3.516  -3.318  0.00  0.00    +0.145 HD
ENDBRANCH  21  22
ENDBRANCH  16  21
ENDBRANCH   1  16
TORSDOF 8
