REMARK  Name = ZINC64885790
REMARK  6 active torsions:
REMARK  status: ('A' for Active; 'I' for Inactive)
REMARK    1  A    between atoms: C_7  and  C_11
REMARK    2  A    between atoms: N_13  and  N_14
REMARK    3  A    between atoms: N_17  and  C_18
REMARK    4  A    between atoms: C_18  and  C_19
REMARK    5  A    between atoms: C_19  and  C_20
REMARK    6  A    between atoms: C_20  and  N_21
REMARK                            x       y       z     vdW  Elec       q    Type
REMARK                         _______ _______ _______ _____ _____    ______ ____
ROOT
ATOM      1  C   UNL     1       3.497  -2.268  -0.044  0.00  0.00    +0.262 C 
ATOM      2  O   UNL     1       2.434  -2.859  -0.037  0.00  0.00    -0.269 OA
ATOM      3  N   UNL     1       4.653  -2.960  -0.059  0.00  0.00    -0.229 N 
ATOM      4  H   UNL     1       5.501  -2.488  -0.065  0.00  0.00    +0.173 HD
ENDROOT
BRANCH   1  11
ATOM      5  C   UNL     1      -0.017   1.388   0.010  0.00  0.00    +0.020 A 
ATOM      6  C   UNL     1       1.158   2.085   0.002  0.00  0.00    +0.011 A 
ATOM      7  C   UNL     1       2.363   1.357  -0.013  0.00  0.00    +0.003 A 
ATOM      8  C   UNL     1       3.608   2.007  -0.021  0.00  0.00    +0.030 A 
ATOM      9  C   UNL     1       4.760   1.278  -0.036  0.00  0.00    +0.042 A 
ATOM     10  C   UNL     1       4.729  -0.112  -0.043  0.00  0.00    +0.035 A 
ATOM     11  C   UNL     1       3.521  -0.793  -0.035  0.00  0.00    +0.065 A 
ATOM     12  C   UNL     1       2.308  -0.058  -0.020  0.00  0.00    +0.083 A 
ATOM     13  N   UNL     1       1.128  -0.678  -0.012  0.00  0.00    -0.254 NA
ATOM     14  C   UNL     1       0.002  -0.004   0.002  0.00  0.00    +0.111 A 
ATOM     15 CL   UNL     1       6.291   2.098  -0.047  0.00  0.00    -0.084 Cl
ENDBRANCH   1  11
BRANCH   3  16
ATOM     16  N   UNL     1       4.631  -4.361  -0.067  0.00  0.00    -0.218 N 
ATOM     17  C   UNL     1       5.787  -5.053  -0.083  0.00  0.00    +0.316 C 
ATOM     18  O   UNL     1       5.768  -6.269  -0.089  0.00  0.00    -0.251 OA
ATOM     19  N   UNL     1       6.965  -4.398  -0.090  0.00  0.00    -0.298 N 
ATOM     20  H   UNL     1       3.783  -4.832  -0.062  0.00  0.00    +0.174 HD
ATOM     21  H   UNL     1       6.980  -3.428  -0.085  0.00  0.00    +0.150 HD
BRANCH  19  22
ATOM     22  C   UNL     1       8.222  -5.150  -0.107  0.00  0.00    +0.107 C 
BRANCH  22  23
ATOM     23  C   UNL     1       9.400  -4.175  -0.113  0.00  0.00    +0.040 C 
BRANCH  23  24
ATOM     24  C   UNL     1      10.713  -4.961  -0.130  0.00  0.00    +0.124 C 
BRANCH  24  25
ATOM     25  N   UNL     1      11.841  -4.027  -0.136  0.00  0.00    -0.338 N 
ATOM     26  C   UNL     1      12.453  -3.498  -1.240  0.00  0.00    +0.104 A 
ATOM     27  C   UNL     1      13.435  -2.692  -0.794  0.00  0.00    +0.101 A 
ATOM     28  N   UNL     1      13.425  -2.729   0.547  0.00  0.00    -0.352 N 
ATOM     29  C   UNL     1      12.469  -3.522   0.948  0.00  0.00    +0.173 A 
ATOM     30  H   UNL     1      14.029  -2.240   1.127  0.00  0.00    +0.166 HD
ENDBRANCH  24  25
ENDBRANCH  23  24
ENDBRANCH  22  23
ENDBRANCH  19  22
ENDBRANCH   3  16
TORSDOF 6
