REMARK  Name = ZINC08844380
REMARK  9 active torsions:
REMARK  status: ('A' for Active; 'I' for Inactive)
REMARK    1  A    between atoms: C_1  and  C_2
REMARK    2  A    between atoms: C_5  and  C_7
REMARK    3  A    between atoms: C_12  and  O_18
REMARK    4  A    between atoms: O_18  and  C_19
REMARK    5  A    between atoms: C_21  and  O_34
REMARK    6  A    between atoms: C_23  and  O_33
REMARK    7  A    between atoms: C_25  and  O_32
REMARK    8  A    between atoms: C_27  and  C_30
REMARK    9  A    between atoms: C_30  and  O_31
REMARK                            x       y       z     vdW  Elec       q    Type
REMARK                         _______ _______ _______ _____ _____    ______ ____
ROOT
ATOM      1  C   UNL     1      -3.726   3.028   0.035  0.00  0.00    +0.089 A 
ATOM      2  C   UNL     1      -3.583   1.675   0.027  0.00  0.00    +0.210 A 
ATOM      3  O   UNL     1      -2.389   1.079   0.019  0.00  0.00    -0.462 OA
ATOM      4  C   UNL     1      -1.224   1.756   0.017  0.00  0.00    +0.142 A 
ATOM      5  C   UNL     1      -0.013   1.076   0.008  0.00  0.00    +0.092 A 
ATOM      6  C   UNL     1       1.176   1.786   0.000  0.00  0.00    +0.128 A 
ATOM      7  C   UNL     1       1.170   3.179   0.009  0.00  0.00    +0.047 A 
ATOM      8  C   UNL     1      -0.012   3.863   0.024  0.00  0.00    +0.019 A 
ATOM      9  C   UNL     1      -1.219   3.161   0.031  0.00  0.00    +0.065 A 
ATOM     10  C   UNL     1      -2.513   3.866   0.046  0.00  0.00    +0.202 A 
ATOM     11  O   UNL     1      -2.578   5.083   0.054  0.00  0.00    -0.286 OA
ENDROOT
BRANCH   1  16
ATOM     12  C   UNL     1      -8.706   3.091   0.060  0.00  0.00    +0.066 C 
ATOM     13  C   UNL     1      -7.364   3.777   0.057  0.00  0.00    +0.046 A 
ATOM     14  C   UNL     1      -7.295   5.133   0.065  0.00  0.00    +0.070 A 
ATOM     15  S   UNL     1      -5.523   5.374   0.065  0.00  0.00    -0.075 S 
ATOM     16  C   UNL     1      -5.068   3.645   0.045  0.00  0.00    +0.115 A 
ATOM     17  N   UNL     1      -6.261   3.065   0.048  0.00  0.00    -0.244 NA
ENDBRANCH   1  16
BRANCH   6  18
ATOM     18  O   UNL     1       2.358   1.119  -0.015  0.00  0.00    -0.461 OA
BRANCH  18  19
ATOM     19  C   UNL     1       3.549   1.909  -0.022  0.00  0.00    +0.339 C 
ATOM     20  C   UNL     1       4.757   1.008  -0.288  0.00  0.00    +0.214 C 
ATOM     21  C   UNL     1       6.035   1.852  -0.234  0.00  0.00    +0.180 C 
ATOM     22  C   UNL     1       6.117   2.547   1.128  0.00  0.00    +0.177 C 
ATOM     23  C   UNL     1       4.856   3.389   1.339  0.00  0.00    +0.179 C 
ATOM     24  O   UNL     1       3.703   2.549   1.247  0.00  0.00    -0.331 OA
BRANCH  22  25
ATOM     25  O   UNL     1       6.216   1.565   2.160  0.00  0.00    -0.386 OA
ATOM     26  H   UNL     1       6.992   0.992   2.086  0.00  0.00    +0.210 HD
ENDBRANCH  22  25
BRANCH  21  27
ATOM     27  O   UNL     1       7.173   1.007  -0.411  0.00  0.00    -0.386 OA
ATOM     28  H   UNL     1       7.182   0.530  -1.253  0.00  0.00    +0.210 HD
ENDBRANCH  21  27
BRANCH  20  29
ATOM     29  O   UNL     1       4.819  -0.015   0.707  0.00  0.00    -0.383 OA
ATOM     30  H   UNL     1       4.039  -0.586   0.733  0.00  0.00    +0.210 HD
ENDBRANCH  20  29
BRANCH  23  31
ATOM     31  C   UNL     1       4.903   4.039   2.723  0.00  0.00    +0.190 C 
BRANCH  31  32
ATOM     32  O   UNL     1       3.785   4.916   2.876  0.00  0.00    -0.392 OA
ATOM     33  H   UNL     1       3.751   5.364   3.732  0.00  0.00    +0.210 HD
ENDBRANCH  31  32
ENDBRANCH  23  31
ENDBRANCH  18  19
ENDBRANCH   6  18
TORSDOF 8
