REMARK  Name = ZINC64507981
REMARK  6 active torsions:
REMARK  status: ('A' for Active; 'I' for Inactive)
REMARK    1  A    between atoms: C_7  and  C_11
REMARK    2  A    between atoms: N_13  and  C_14
REMARK    3  A    between atoms: C_19  and  C_20
REMARK    4  A    between atoms: N_22  and  C_23
REMARK    5  A    between atoms: C_23  and  C_24
REMARK    6  A    between atoms: C_24  and  C_25
REMARK                            x       y       z     vdW  Elec       q    Type
REMARK                         _______ _______ _______ _____ _____    ______ ____
ROOT
ATOM      1  C   UNL     1      -0.177  -3.397   3.220  0.00  0.00    +0.046 A 
ATOM      2  C   UNL     1       0.909  -3.661   4.044  0.00  0.00    +0.024 A 
ATOM      3  C   UNL     1       0.710  -4.197   5.300  0.00  0.00    +0.002 A 
ATOM      4  C   UNL     1      -0.571  -4.475   5.749  0.00  0.00    +0.001 A 
ATOM      5  C   UNL     1      -1.661  -4.219   4.946  0.00  0.00    +0.015 A 
ATOM      6  C   UNL     1      -1.476  -3.672   3.674  0.00  0.00    +0.058 A 
ENDROOT
BRANCH   1   9
ATOM      7  C   UNL     1       1.103  -3.210   1.231  0.00  0.00    +0.240 C 
ATOM      8  O   UNL     1       1.946  -3.935   1.717  0.00  0.00    -0.273 OA
ATOM      9  N   UNL     1       0.021  -2.857   1.952  0.00  0.00    -0.283 N 
ATOM     10  H   UNL     1      -0.619  -2.226   1.588  0.00  0.00    +0.155 HD
BRANCH   7  17
ATOM     11  C   UNL     1       1.721   1.098   0.154  0.00  0.00    +0.000 A 
ATOM     12  C   UNL     1       3.087   1.192  -0.045  0.00  0.00    +0.001 A 
ATOM     13  C   UNL     1       3.812   0.042  -0.298  0.00  0.00    +0.016 A 
ATOM     14  C   UNL     1       3.168  -1.177  -0.346  0.00  0.00    +0.028 A 
ATOM     15  C   UNL     1       1.794  -1.295  -0.133  0.00  0.00    -0.006 A 
ATOM     16  C   UNL     1       1.082  -0.122   0.111  0.00  0.00    +0.007 A 
ATOM     17  C   UNL     1       1.267  -2.706  -0.180  0.00  0.00    +0.182 C 
ATOM     18  N   UNL     1       2.161  -3.630  -0.915  0.00  0.00    -0.243 NA
ATOM     19  S   UNL     1       3.742  -2.830  -0.657  0.00  0.00    -0.043 S 
ATOM     20  H   UNL     1       2.150  -4.550  -0.500  0.00  0.00    +0.137 HD
ENDBRANCH   7  17
ENDBRANCH   1   9
BRANCH   6  21
ATOM     21  C   UNL     1      -2.639  -3.389   2.811  0.00  0.00    +0.246 C 
ATOM     22  O   UNL     1      -2.470  -3.009   1.669  0.00  0.00    -0.270 OA
ATOM     23  N   UNL     1      -3.888  -3.553   3.289  0.00  0.00    -0.311 N 
ATOM     24  H   UNL     1      -4.023  -3.856   4.201  0.00  0.00    +0.149 HD
BRANCH  23  25
ATOM     25  C   UNL     1      -5.043  -3.273   2.432  0.00  0.00    +0.109 C 
BRANCH  25  26
ATOM     26  C   UNL     1      -6.332  -3.536   3.212  0.00  0.00    +0.052 C 
BRANCH  26  27
ATOM     27  C   UNL     1      -7.520  -3.248   2.330  0.00  0.00    -0.040 C 
ATOM     28  C   UNL     1      -8.219  -4.139   1.590  0.00  0.00    -0.001 A 
ATOM     29  C   UNL     1      -8.086  -5.587   1.390  0.00  0.00    +0.010 A 
ATOM     30  C   UNL     1      -8.955  -6.218   0.569  0.00  0.00    +0.001 A 
ATOM     31  C   UNL     1      -9.976  -5.526  -0.096  0.00  0.00    +0.002 A 
ATOM     32  C   UNL     1     -10.162  -4.195   0.037  0.00  0.00    +0.026 A 
ATOM     33  C   UNL     1      -9.306  -3.431   0.877  0.00  0.00    +0.043 A 
ATOM     34  N   UNL     1      -9.280  -2.152   1.165  0.00  0.00    -0.380 N 
ATOM     35  C   UNL     1      -8.177  -1.905   2.100  0.00  0.00    +0.144 C 
ATOM     36  H   UNL     1      -9.892  -1.482   0.821  0.00  0.00    +0.160 HD
ENDBRANCH  26  27
ENDBRANCH  25  26
ENDBRANCH  23  25
ENDBRANCH   6  21
TORSDOF 6
