REMARK  Name = ZINC38658996
REMARK  16 active torsions:
REMARK  status: ('A' for Active; 'I' for Inactive)
REMARK    1  A    between atoms: C_1  and  C_2
REMARK    2  A    between atoms: C_2  and  C_4
REMARK    3  A    between atoms: C_2  and  O_31
REMARK    4  A    between atoms: C_4  and  O_6
REMARK    5  A    between atoms: O_6  and  C_7
REMARK    6  A    between atoms: C_14  and  N_30
REMARK    7  A    between atoms: C_15  and  C_28
REMARK    8  A    between atoms: C_16  and  C_18
REMARK    9  A    between atoms: C_22  and  O_26
REMARK   10  A    between atoms: C_23  and  O_24
REMARK   11  A    between atoms: O_24  and  C_25
REMARK   12  A    between atoms: O_26  and  C_27
REMARK   13  A    between atoms: O_31  and  C_32
REMARK   14  A    between atoms: C_35  and  C_38
REMARK   15  A    between atoms: C_38  and  C_39
REMARK   16  A    between atoms: C_38  and  C_40
REMARK                            x       y       z     vdW  Elec       q    Type
REMARK                         _______ _______ _______ _____ _____    ______ ____
ROOT
ATOM      1  C   UNL     1      -4.125  -0.758  -0.719  0.00  0.00    +0.135 A 
ATOM      2  C   UNL     1      -4.477  -1.325   0.498  0.00  0.00    +0.047 A 
ATOM      3  C   UNL     1      -5.737  -1.863   0.670  0.00  0.00    +0.012 A 
ATOM      4  C   UNL     1      -6.652  -1.842  -0.368  0.00  0.00    +0.008 A 
ATOM      5  C   UNL     1      -6.306  -1.278  -1.585  0.00  0.00    +0.138 A 
ATOM      6  C   UNL     1      -5.041  -0.730  -1.758  0.00  0.00    +0.093 A 
ATOM      7  O   UNL     1      -7.189  -1.247  -2.614  0.00  0.00    -0.441 OA
ATOM      8  C   UNL     1      -8.244  -2.078  -2.616  0.00  0.00    +0.199 C 
ATOM      9  C   UNL     1      -8.689  -2.674  -1.484  0.00  0.00    +0.098 C 
ATOM     10  C   UNL     1      -8.020  -2.435  -0.160  0.00  0.00    +0.102 C 
ENDROOT
BRANCH  10  11
ATOM     11  C   UNL     1      -8.857  -1.484   0.657  0.00  0.00    +0.011 A 
ATOM     12  C   UNL     1      -9.020  -0.175   0.243  0.00  0.00    +0.008 A 
ATOM     13  C   UNL     1      -9.787   0.699   0.990  0.00  0.00    +0.004 A 
ATOM     14  C   UNL     1     -10.394   0.268   2.155  0.00  0.00    +0.049 A 
ATOM     15  C   UNL     1     -10.235  -1.042   2.576  0.00  0.00    +0.162 A 
ATOM     16  C   UNL     1      -9.468  -1.924   1.820  0.00  0.00    +0.166 A 
BRANCH  16  17
ATOM     17  O   UNL     1      -9.314  -3.213   2.226  0.00  0.00    -0.491 OA
ATOM     18  C   UNL     1      -8.280  -3.474   3.177  0.00  0.00    +0.277 C 
ENDBRANCH  16  17
BRANCH  15  19
ATOM     19  O   UNL     1     -10.832  -1.467   3.721  0.00  0.00    -0.491 OA
ATOM     20  C   UNL     1     -11.609  -0.509   4.442  0.00  0.00    +0.277 C 
ENDBRANCH  15  19
ENDBRANCH  10  11
BRANCH   8  21
ATOM     21  N   UNL     1      -8.892  -2.330  -3.800  0.00  0.00    -0.328 N 
ATOM     22  H   UNL     1      -8.585  -1.910  -4.619  0.00  0.00    +0.145 HD
ATOM     23  H   UNL     1      -9.656  -2.927  -3.817  0.00  0.00    +0.145 HD
ENDBRANCH   8  21
BRANCH   9  24
ATOM     24  C   UNL     1      -9.820  -3.550  -1.551  0.00  0.00    +0.101 C 
ATOM     25  N   UNL     1     -10.717  -4.245  -1.604  0.00  0.00    -0.191 NA
ENDBRANCH   9  24
BRANCH   1  26
ATOM     26  O   UNL     1      -2.886  -0.227  -0.890  0.00  0.00    -0.423 OA
BRANCH  26  27
ATOM     27  C   UNL     1      -1.855  -1.073  -1.051  0.00  0.00    +0.353 C 
ATOM     28  O   UNL     1      -2.055  -2.261  -1.133  0.00  0.00    -0.246 OA
BRANCH  27  30
ATOM     29  C   UNL     1      -0.070   0.102   0.209  0.00  0.00    +0.064 C 
ATOM     30  C   UNL     1      -0.448  -0.538  -1.129  0.00  0.00    +0.279 C 
BRANCH  30  31
ATOM     31  O   UNL     1       0.453  -1.610  -1.415  0.00  0.00    -0.478 OA
BRANCH  31  32
ATOM     32  C   UNL     1       1.536  -1.317  -2.183  0.00  0.00    +0.122 A 
ATOM     33  C   UNL     1       2.379  -2.332  -2.611  0.00  0.00    +0.046 A 
ATOM     34  C   UNL     1       3.479  -2.032  -3.392  0.00  0.00    +0.007 A 
ATOM     35  C   UNL     1       3.739  -0.721  -3.746  0.00  0.00    -0.045 A 
ATOM     36  C   UNL     1       2.901   0.292  -3.320  0.00  0.00    +0.007 A 
ATOM     37  C   UNL     1       1.796  -0.003  -2.545  0.00  0.00    +0.046 A 
BRANCH  35  38
ATOM     38  C   UNL     1       4.940  -0.397  -4.597  0.00  0.00    +0.013 C 
ATOM     39  C   UNL     1       4.479   0.272  -5.894  0.00  0.00    +0.012 C 
ATOM     40  C   UNL     1       5.864   0.554  -3.834  0.00  0.00    +0.012 C 
ENDBRANCH  35  38
ENDBRANCH  31  32
ENDBRANCH  30  31
ENDBRANCH  27  30
ENDBRANCH  26  27
ENDBRANCH   1  26
TORSDOF 11
