REMARK  Name = ZINC41630465
REMARK  6 active torsions:
REMARK  status: ('A' for Active; 'I' for Inactive)
REMARK    1  A    between atoms: C_1  and  C_2
REMARK    2  A    between atoms: C_4  and  C_25
REMARK    3  A    between atoms: C_12  and  C_14
REMARK    4  A    between atoms: C_14  and  S_15
REMARK    5  A    between atoms: S_15  and  C_16
REMARK    6  A    between atoms: C_22  and  N_24
REMARK                            x       y       z     vdW  Elec       q    Type
REMARK                         _______ _______ _______ _____ _____    ______ ____
ROOT
ATOM      1  C   UNL     1      -0.018   1.503   0.010  0.00  0.00    +0.044 C 
ATOM      2  C   UNL     1       0.002  -0.004   0.002  0.00  0.00    -0.049 A 
ATOM      3  C   UNL     1       0.006  -0.698  -1.199  0.00  0.00    +0.009 A 
ATOM      4  C   UNL     1       0.024  -2.068  -1.235  0.00  0.00    -0.024 A 
ATOM      5  C   UNL     1       0.040  -2.822  -0.038  0.00  0.00    +0.083 A 
ATOM      6  C   UNL     1       0.036  -2.081   1.166  0.00  0.00    +0.041 A 
ATOM      7  C   UNL     1       0.023  -0.709   1.191  0.00  0.00    +0.020 A 
ATOM      8  S   UNL     1       0.059  -3.361   2.397  0.00  0.00    -0.052 S 
ATOM      9  C   UNL     1       0.073  -4.752   1.275  0.00  0.00    +0.165 A 
ATOM     10  N   UNL     1       0.059  -4.165   0.101  0.00  0.00    -0.224 NA
ATOM     11  N   UNL     1       0.093  -6.106   1.569  0.00  0.00    -0.264 N 
ATOM     12  C   UNL     1       0.104  -6.517   2.853  0.00  0.00    +0.229 C 
ATOM     13  O   UNL     1       0.097  -5.701   3.750  0.00  0.00    -0.275 OA
ATOM     14  C   UNL     1       0.027  -2.779  -2.563  0.00  0.00    +0.046 C 
ATOM     15  H   UNL     1       0.099  -6.758   0.851  0.00  0.00    +0.157 HD
ENDROOT
BRANCH  12  16
ATOM     16  C   UNL     1       0.125  -7.989   3.172  0.00  0.00    +0.173 C 
BRANCH  16  17
ATOM     17  S   UNL     1       0.136  -8.217   4.972  0.00  0.00    -0.078 S 
BRANCH  17  18
ATOM     18  C   UNL     1       0.161  -9.967   5.180  0.00  0.00    +0.171 A 
ATOM     19  N   UNL     1       0.168 -10.489   6.438  0.00  0.00    -0.302 N 
ATOM     20  H   UNL     1       0.159  -9.898   7.207  0.00  0.00    +0.171 HD
ATOM     21  C   UNL     1       0.187 -11.826   6.616  0.00  0.00    +0.254 A 
ATOM     22  O   UNL     1       0.193 -12.303   7.740  0.00  0.00    -0.268 OA
ATOM     23  C   UNL     1       0.199 -12.657   5.492  0.00  0.00    +0.113 A 
ATOM     24  C   UNL     1       0.192 -12.075   4.231  0.00  0.00    +0.124 A 
ATOM     25  N   UNL     1       0.167 -10.743   4.116  0.00  0.00    -0.209 NA
BRANCH  24  26
ATOM     26  N   UNL     1       0.203 -12.869   3.102  0.00  0.00    -0.343 N 
ATOM     27  H   UNL     1       0.217 -13.835   3.188  0.00  0.00    +0.144 HD
ATOM     28  H   UNL     1       0.198 -12.460   2.222  0.00  0.00    +0.144 HD
ENDBRANCH  24  26
ENDBRANCH  17  18
ENDBRANCH  16  17
ENDBRANCH  12  16
TORSDOF 4
