REMARK  Name = ZINC63213441
REMARK  5 active torsions:
REMARK  status: ('A' for Active; 'I' for Inactive)
REMARK    1  A    between atoms: C_3  and  C_22
REMARK    2  A    between atoms: C_4  and  S_8
REMARK    3  A    between atoms: S_8  and  N_11
REMARK    4  A    between atoms: N_11  and  C_12
REMARK    5  A    between atoms: C_19  and  N_21
REMARK                            x       y       z     vdW  Elec       q    Type
REMARK                         _______ _______ _______ _____ _____    ______ ____
ROOT
ATOM      1  N   UNL     1       4.626  -0.382  -1.465  0.00  0.00    -0.188 NA
ATOM      2  H   UNL     1       4.688  -1.005  -2.206  0.00  0.00    +0.148 HD
ENDROOT
BRANCH   1   3
ATOM      3  C   UNL     1       5.068   1.004  -1.637  0.00  0.00    +0.062 C 
ATOM      4  C   UNL     1       6.585   1.079  -1.379  0.00  0.00    +0.019 C 
ATOM      5  C   UNL     1       7.223   2.365  -1.938  0.00  0.00    +0.001 C 
ATOM      6  C   UNL     1       6.376   3.584  -1.689  0.00  0.00    -0.000 C 
ATOM      7  C   UNL     1       5.491   3.827  -2.928  0.00  0.00    -0.002 C 
ATOM      8  C   UNL     1       4.321   2.962  -2.952  0.00  0.00    -0.015 C 
ATOM      9  C   UNL     1       4.697   1.466  -3.020  0.00  0.00    -0.056 C 
BRANCH   9  10
ATOM     10  N   UNL     1       3.550   0.690  -3.509  0.00  0.00    +0.381 N 
ATOM     11  H   UNL     1       2.765   0.825  -2.889  0.00  0.00    -0.090 HD
ATOM     12  H   UNL     1       3.303   1.002  -4.436  0.00  0.00    -0.090 HD
ATOM     13  H   UNL     1       3.792  -0.288  -3.536  0.00  0.00    -0.090 HD
ENDBRANCH   9  10
ENDBRANCH   1   3
BRANCH   1  14
ATOM     14  S   UNL     1       4.020  -0.883  -0.008  0.00  0.00    +0.060 S 
ATOM     15  O   UNL     1       3.703  -2.261  -0.153  0.00  0.00    -0.153 OA
ATOM     16  O   UNL     1       3.055   0.083   0.385  0.00  0.00    -0.153 OA
BRANCH  14  20
ATOM     17  C   UNL     1       7.404  -0.640   3.005  0.00  0.00    +0.021 A 
ATOM     18  C   UNL     1       7.491  -1.531   1.956  0.00  0.00    +0.022 A 
ATOM     19  C   UNL     1       6.454  -1.612   1.025  0.00  0.00    +0.078 A 
ATOM     20  C   UNL     1       5.334  -0.789   1.162  0.00  0.00    +0.124 A 
ATOM     21  C   UNL     1       5.258   0.097   2.216  0.00  0.00    +0.049 A 
ATOM     22  C   UNL     1       6.291   0.173   3.136  0.00  0.00    +0.043 A 
ATOM     23 CL   UNL     1       6.188   1.292   4.460  0.00  0.00    -0.083 Cl
BRANCH  19  24
ATOM     24  C   UNL     1       6.539  -2.535  -0.067  0.00  0.00    +0.101 C 
ATOM     25  N   UNL     1       6.606  -3.266  -0.933  0.00  0.00    -0.191 NA
ENDBRANCH  19  24
ENDBRANCH  14  20
ENDBRANCH   1  14
TORSDOF 5
