REMARK  Name = ZINC14755173
REMARK  11 active torsions:
REMARK  status: ('A' for Active; 'I' for Inactive)
REMARK    1  A    between atoms: C_1  and  C_2
REMARK    2  A    between atoms: C_2  and  C_3
REMARK    3  A    between atoms: C_2  and  C_4
REMARK    4  A    between atoms: C_2  and  N_5
REMARK    5  A    between atoms: N_5  and  S_6
REMARK    6  A    between atoms: S_6  and  C_9
REMARK    7  A    between atoms: C_11  and  C_26
REMARK    8  A    between atoms: C_13  and  N_15
REMARK    9  A    between atoms: N_15  and  C_16
REMARK   10  A    between atoms: C_16  and  C_17
REMARK   11  A    between atoms: C_34  and  N_69
REMARK                            x       y       z     vdW  Elec       q    Type
REMARK                         _______ _______ _______ _____ _____    ______ ____
ROOT
ATOM      1  C   UNL     1      -0.297  -0.893   2.796  0.00  0.00    +0.108 A 
ATOM      2  C   UNL     1      -1.598  -1.345   2.884  0.00  0.00    +0.041 A 
ATOM      3  C   UNL     1      -2.367  -1.043   4.009  0.00  0.00    +0.040 A 
ATOM      4  C   UNL     1      -1.817  -0.284   5.042  0.00  0.00    +0.036 A 
ATOM      5  C   UNL     1      -0.509   0.166   4.943  0.00  0.00    +0.030 A 
ATOM      6  C   UNL     1       0.251  -0.145   3.821  0.00  0.00    +0.051 A 
ENDROOT
BRANCH   3   7
ATOM      7  C   UNL     1      -3.761  -1.526   4.106  0.00  0.00    +0.247 C 
ATOM      8  O   UNL     1      -4.614  -0.824   4.613  0.00  0.00    -0.270 OA
ATOM      9  N   UNL     1      -4.087  -2.745   3.632  0.00  0.00    -0.299 N 
ATOM     10  C   UNL     1      -5.448  -3.261   3.875  0.00  0.00    +0.106 C 
ATOM     11  C   UNL     1      -6.010  -3.958   2.620  0.00  0.00    +0.000 C 
ATOM     12  C   UNL     1      -5.618  -3.179   1.384  0.00  0.00    -0.078 C 
ATOM     13  C   UNL     1      -3.174  -3.175   1.399  0.00  0.00    -0.060 C 
ATOM     14  C   UNL     1      -3.085  -3.502   2.909  0.00  0.00    +0.089 C 
ATOM     15  C   UNL     1      -4.345  -3.663  -0.611  0.00  0.00    -0.096 C 
ATOM     16  N   UNL     1      -4.363  -3.782   0.853  0.00  0.00    +0.379 N 
ATOM     17  H   UNL     1      -4.356  -4.778   1.104  0.00  0.00    -0.082 HD
ENDBRANCH   3   7
BRANCH   1  18
ATOM     18  S   UNL     1       0.671  -1.276   1.375  0.00  0.00    +0.059 S 
ATOM     19  O   UNL     1       0.251  -2.559   0.931  0.00  0.00    -0.153 OA
ATOM     20  O   UNL     1       2.021  -0.993   1.714  0.00  0.00    -0.153 OA
BRANCH  18  21
ATOM     21  N   UNL     1       0.246  -0.202   0.188  0.00  0.00    -0.185 NA
ATOM     22  H   UNL     1      -0.226  -0.513  -0.600  0.00  0.00    +0.149 HD
BRANCH  21  24
ATOM     23  C   UNL     1       2.102   1.388   0.271  0.00  0.00    +0.029 C 
ATOM     24  C   UNL     1       0.583   1.216   0.329  0.00  0.00    +0.032 C 
ATOM     25  C   UNL     1      -0.064   2.010  -0.808  0.00  0.00    +0.029 C 
ATOM     26  C   UNL     1       0.062   1.733   1.672  0.00  0.00    +0.029 C 
ENDBRANCH  21  24
ENDBRANCH  18  21
ENDBRANCH   1  18
BRANCH   5  27
ATOM     27  N   UNL     1       0.048   0.927   5.974  0.00  0.00    -0.337 N 
ATOM     28  H   UNL     1       0.963   1.242   5.905  0.00  0.00    +0.147 HD
BRANCH  27  29
ATOM     29  C   UNL     1      -0.751   1.250   7.160  0.00  0.00    +0.176 C 
BRANCH  29  30
ATOM     30  C   UNL     1       0.076   2.074   8.113  0.00  0.00    +0.123 A 
ATOM     31  C   UNL     1       0.144   3.412   8.111  0.00  0.00    +0.054 A 
ATOM     32  C   UNL     1       1.058   3.777   9.200  0.00  0.00    +0.020 A 
ATOM     33  C   UNL     1       1.537   4.984   9.707  0.00  0.00    +0.011 A 
ATOM     34  C   UNL     1       2.404   4.979  10.764  0.00  0.00    +0.001 A 
ATOM     35  C   UNL     1       2.809   3.780  11.334  0.00  0.00    +0.004 A 
ATOM     36  C   UNL     1       2.345   2.577  10.846  0.00  0.00    +0.047 A 
ATOM     37  C   UNL     1       1.464   2.560   9.773  0.00  0.00    +0.135 A 
ATOM     38  O   UNL     1       0.848   1.572   9.093  0.00  0.00    -0.458 OA
ENDBRANCH  29  30
ENDBRANCH  27  29
ENDBRANCH   5  27
TORSDOF 7
