REMARK  Name = ZINC01102294
REMARK  12 active torsions:
REMARK  status: ('A' for Active; 'I' for Inactive)
REMARK    1  A    between atoms: C_1  and  C_2
REMARK    2  A    between atoms: C_7  and  N_8
REMARK    3  A    between atoms: C_9  and  C_11
REMARK    4  A    between atoms: C_12  and  C_38
REMARK    5  A    between atoms: C_14  and  S_25
REMARK    6  A    between atoms: C_15  and  C_23
REMARK    7  A    between atoms: C_16  and  C_18
REMARK    8  A    between atoms: S_25  and  C_26
REMARK    9  A    between atoms: C_26  and  C_27
REMARK   10  A    between atoms: N_29  and  C_30
REMARK   11  A    between atoms: C_34  and  C_37
REMARK   12  A    between atoms: C_35  and  C_36
REMARK                            x       y       z     vdW  Elec       q    Type
REMARK                         _______ _______ _______ _____ _____    ______ ____
ROOT
ATOM      1  C   UNL     1       0.193   0.166   4.766  0.00  0.00    +0.044 C 
ATOM      2  C   UNL     1       0.289  -0.421   5.970  0.00  0.00    +0.014 C 
ATOM      3  N   UNL     1       0.284   0.322   7.119  0.00  0.00    -0.312 N 
ATOM      4  C   UNL     1      -0.175   1.620   7.101  0.00  0.00    +0.080 C 
ATOM      5  C   UNL     1      -0.291   2.296   5.927  0.00  0.00    +0.069 C 
ATOM      6  C   UNL     1       0.091   1.657   4.619  0.00  0.00    +0.105 C 
ATOM      7  C   UNL     1       0.403  -1.921   6.057  0.00  0.00    +0.061 C 
ATOM      8  H   UNL     1       0.605  -0.067   7.947  0.00  0.00    +0.152 HD
ENDROOT
BRANCH   6   9
ATOM      9  C   UNL     1       1.421   2.202   4.165  0.00  0.00    +0.002 A 
ATOM     10  C   UNL     1       1.718   2.900   3.042  0.00  0.00    +0.012 A 
ATOM     11  C   UNL     1       3.023   3.304   2.829  0.00  0.00    +0.008 A 
ATOM     12  C   UNL     1       3.966   2.990   3.750  0.00  0.00    +0.045 A 
ATOM     13  S   UNL     1       3.011   2.102   4.969  0.00  0.00    -0.101 S 
ENDBRANCH   6   9
BRANCH   1  15
ATOM     14  N   UNL     1       1.322  -1.268   3.217  0.00  0.00    -0.281 N 
ATOM     15  C   UNL     1       0.192  -0.642   3.603  0.00  0.00    +0.247 C 
ATOM     16  O   UNL     1      -0.829  -0.772   2.953  0.00  0.00    -0.270 OA
ATOM     17  H   UNL     1       2.118  -1.216   3.769  0.00  0.00    +0.155 HD
BRANCH  14  24
ATOM     18  C   UNL     1       3.728  -1.267   1.698  0.00  0.00    +0.045 C 
ATOM     19  C   UNL     1       2.501  -2.017   1.247  0.00  0.00    -0.029 A 
ATOM     20  C   UNL     1       2.524  -2.736   0.068  0.00  0.00    +0.005 A 
ATOM     21  C   UNL     1       1.399  -3.424  -0.346  0.00  0.00    +0.000 A 
ATOM     22  C   UNL     1       0.246  -3.394   0.418  0.00  0.00    +0.002 A 
ATOM     23  C   UNL     1       0.216  -2.678   1.598  0.00  0.00    +0.023 A 
ATOM     24  C   UNL     1       1.347  -1.990   2.020  0.00  0.00    +0.037 A 
ENDBRANCH  14  24
ENDBRANCH   1  15
BRANCH   5  25
ATOM     25  C   UNL     1      -0.781   3.641   5.935  0.00  0.00    +0.098 C 
ATOM     26  N   UNL     1      -1.169   4.709   5.942  0.00  0.00    -0.191 NA
ENDBRANCH   5  25
BRANCH   4  27
ATOM     27  S   UNL     1      -0.617   2.412   8.612  0.00  0.00    -0.100 S 
BRANCH  27  28
ATOM     28  C   UNL     1      -0.303   1.149   9.877  0.00  0.00    +0.171 C 
BRANCH  28  29
ATOM     29  C   UNL     1      -0.644   1.704  11.236  0.00  0.00    +0.227 C 
ATOM     30  O   UNL     1      -1.059   2.839  11.341  0.00  0.00    -0.275 OA
ATOM     31  N   UNL     1      -0.489   0.939  12.335  0.00  0.00    -0.285 N 
ATOM     32  H   UNL     1      -0.106   0.051  12.257  0.00  0.00    +0.155 HD
BRANCH  31  33
ATOM     33  C   UNL     1      -0.880   1.425  13.587  0.00  0.00    +0.037 A 
ATOM     34  C   UNL     1      -0.917   2.794  13.821  0.00  0.00    +0.023 A 
ATOM     35  C   UNL     1      -1.303   3.271  15.058  0.00  0.00    +0.002 A 
ATOM     36  C   UNL     1      -1.652   2.388  16.064  0.00  0.00    +0.004 A 
ATOM     37  C   UNL     1      -1.615   1.025  15.834  0.00  0.00    -0.046 A 
ATOM     38  C   UNL     1      -1.236   0.541  14.597  0.00  0.00    -0.026 A 
ATOM     39  C   UNL     1      -1.203  -0.944  14.345  0.00  0.00    +0.046 C 
ATOM     40  C   UNL     1      -1.995   0.066  16.933  0.00  0.00    +0.044 C 
ENDBRANCH  31  33
ENDBRANCH  28  29
ENDBRANCH  27  28
ENDBRANCH   4  27
TORSDOF 8
