REMARK  Name = ZINC42085558
REMARK  11 active torsions:
REMARK  status: ('A' for Active; 'I' for Inactive)
REMARK    1  A    between atoms: C_1  and  C_2
REMARK    2  A    between atoms: C_2  and  C_3
REMARK    3  A    between atoms: C_3  and  C_5
REMARK    4  A    between atoms: C_3  and  C_6
REMARK    5  A    between atoms: C_6  and  C_8
REMARK    6  A    between atoms: C_6  and  N_24
REMARK    7  A    between atoms: N_10  and  N_11
REMARK    8  A    between atoms: N_11  and  C_12
REMARK    9  A    between atoms: C_12  and  N_14
REMARK   10  A    between atoms: N_14  and  C_15
REMARK   11  A    between atoms: C_21  and  C_23
REMARK                            x       y       z     vdW  Elec       q    Type
REMARK                         _______ _______ _______ _____ _____    ______ ____
ROOT
ATOM      1  C   UNL     1       2.917  -0.838  -2.203  0.00  0.00    +0.250 C 
ATOM      2  O   UNL     1       3.670  -0.272  -2.967  0.00  0.00    -0.272 OA
ATOM      3  N   UNL     1       2.713  -2.165  -2.317  0.00  0.00    -0.234 N 
ATOM      4  H   UNL     1       2.057  -2.605  -1.754  0.00  0.00    +0.173 HD
ENDROOT
BRANCH   3   5
ATOM      5  N   UNL     1       3.449  -2.909  -3.248  0.00  0.00    -0.246 N 
ATOM      6  H   UNL     1       4.105  -2.470  -3.811  0.00  0.00    +0.172 HD
BRANCH   5   7
ATOM      7  C   UNL     1       3.245  -4.237  -3.361  0.00  0.00    +0.147 C 
ATOM      8  S   UNL     1       4.145  -5.147  -4.499  0.00  0.00    -0.017 S 
BRANCH   7   9
ATOM      9  N   UNL     1       2.333  -4.848  -2.579  0.00  0.00    -0.322 N 
ATOM     10  H   UNL     1       1.824  -4.332  -1.935  0.00  0.00    +0.148 HD
BRANCH   9  11
ATOM     11  C   UNL     1       2.112  -6.291  -2.703  0.00  0.00    +0.075 C 
ATOM     12  C   UNL     1       1.110  -6.559  -3.828  0.00  0.00    +0.022 C 
ATOM     13  C   UNL     1      -0.215  -5.865  -3.507  0.00  0.00    +0.002 C 
ATOM     14  C   UNL     1      -0.770  -6.410  -2.190  0.00  0.00    +0.000 C 
ATOM     15  C   UNL     1       0.232  -6.143  -1.065  0.00  0.00    +0.005 C 
ATOM     16  C   UNL     1       1.557  -6.836  -1.386  0.00  0.00    +0.006 C 
ATOM     17  C   UNL     1       2.558  -6.569  -0.260  0.00  0.00    +0.009 C 
ENDBRANCH   9  11
ENDBRANCH   7   9
ENDBRANCH   5   7
ENDBRANCH   3   5
BRANCH   1  18
ATOM     18  C   UNL     1       2.209  -0.056  -1.127  0.00  0.00    +0.165 C 
BRANCH  18  19
ATOM     19  N   UNL     1       2.584   1.357  -1.222  0.00  0.00    -0.288 N 
ATOM     20  C   UNL     1       2.653   2.113  -0.108  0.00  0.00    +0.298 C 
ATOM     21  O   UNL     1       2.497   1.602   0.984  0.00  0.00    -0.253 OA
ATOM     22  N   UNL     1       2.894   3.435  -0.205  0.00  0.00    -0.313 N 
ATOM     23  H   UNL     1       2.783   1.749  -2.087  0.00  0.00    +0.151 HD
ATOM     24  H   UNL     1       3.018   3.843  -1.076  0.00  0.00    +0.146 HD
ATOM     25  H   UNL     1       2.944   3.979   0.597  0.00  0.00    +0.146 HD
ENDBRANCH  18  19
BRANCH  18  26
ATOM     26  C   UNL     1       0.696  -0.195  -1.307  0.00  0.00    +0.015 C 
ATOM     27  C   UNL     1      -0.021   0.457  -0.122  0.00  0.00    +0.010 C 
BRANCH  26  29
ATOM     28  C   UNL     1       0.819  -0.283  -3.801  0.00  0.00    +0.004 C 
ATOM     29  C   UNL     1       0.271   0.496  -2.604  0.00  0.00    +0.002 C 
ENDBRANCH  26  29
ENDBRANCH  18  26
ENDBRANCH   1  18
TORSDOF 8
