REMARK  Name = ZINC63573487
REMARK  6 active torsions:
REMARK  status: ('A' for Active; 'I' for Inactive)
REMARK    1  A    between atoms: C_1  and  C_2
REMARK    2  A    between atoms: C_5  and  C_8
REMARK    3  A    between atoms: C_15  and  O_20
REMARK    4  A    between atoms: O_20  and  C_21
REMARK    5  A    between atoms: N_27  and  C_28
REMARK    6  A    between atoms: C_32  and  C_34
REMARK                            x       y       z     vdW  Elec       q    Type
REMARK                         _______ _______ _______ _____ _____    ______ ____
ROOT
ATOM      1  C   UNL     1       0.470  -3.681   0.086  0.00  0.00    +0.134 C 
ATOM      2  C   UNL     1      -0.987  -4.153   0.125  0.00  0.00    +0.131 C 
ATOM      3  C   UNL     1      -1.387  -4.208   1.594  0.00  0.00    -0.035 C 
ATOM      4  C   UNL     1      -2.462  -3.440   1.719  0.00  0.00    +0.003 A 
ATOM      5  C   UNL     1      -3.336  -3.151   2.867  0.00  0.00    +0.055 A 
ATOM      6  C   UNL     1      -4.368  -2.291   2.648  0.00  0.00    +0.121 A 
ATOM      7  C   UNL     1      -4.632  -1.681   1.413  0.00  0.00    +0.047 A 
ATOM      8  C   UNL     1      -3.896  -1.880   0.290  0.00  0.00    +0.029 A 
ATOM      9  C   UNL     1      -2.752  -2.796   0.400  0.00  0.00    +0.043 A 
ATOM     10  N   UNL     1      -1.888  -3.192  -0.515  0.00  0.00    -0.375 N 
ATOM     11  C   UNL     1      -0.583  -4.962   2.625  0.00  0.00    +0.052 C 
ATOM     12  C   UNL     1       0.878  -4.505   2.467  0.00  0.00    +0.114 C 
ATOM     13  N   UNL     1       1.235  -4.495   1.044  0.00  0.00    -0.276 N 
ATOM     14  C   UNL     1       2.271  -5.239   0.609  0.00  0.00    +0.307 C 
ATOM     15  O   UNL     1       2.628  -5.165  -0.551  0.00  0.00    -0.252 OA
ATOM     16  N   UNL     1       2.912  -6.065   1.459  0.00  0.00    -0.269 N 
ATOM     17  H   UNL     1       2.588  -6.172   2.368  0.00  0.00    +0.156 HD
ATOM     18  H   UNL     1      -1.844  -2.903  -1.440  0.00  0.00    +0.160 HD
ENDROOT
BRANCH   1  23
ATOM     19  C   UNL     1       0.759   1.892   1.586  0.00  0.00    +0.044 C 
ATOM     20  C   UNL     1       0.684   0.439   1.195  0.00  0.00    -0.050 A 
ATOM     21  C   UNL     1       0.971   0.057  -0.102  0.00  0.00    +0.004 A 
ATOM     22  C   UNL     1       0.901  -1.277  -0.461  0.00  0.00    +0.006 A 
ATOM     23  C   UNL     1       0.546  -2.228   0.478  0.00  0.00    -0.025 A 
ATOM     24  C   UNL     1       0.261  -1.845   1.775  0.00  0.00    +0.006 A 
ATOM     25  C   UNL     1       0.334  -0.512   2.135  0.00  0.00    +0.004 A 
ENDBRANCH   1  23
BRANCH  16  26
ATOM     26  C   UNL     1       4.043  -6.770   1.032  0.00  0.00    +0.035 A 
ATOM     27  C   UNL     1       4.248  -7.001  -0.322  0.00  0.00    +0.023 A 
ATOM     28  C   UNL     1       5.366  -7.696  -0.740  0.00  0.00    +0.002 A 
ATOM     29  C   UNL     1       6.280  -8.162   0.188  0.00  0.00    +0.012 A 
ATOM     30  C   UNL     1       6.078  -7.933   1.536  0.00  0.00    +0.057 A 
ATOM     31  C   UNL     1       4.965  -7.233   1.960  0.00  0.00    +0.035 A 
BRANCH  30  32
ATOM     32  C   UNL     1       7.076  -8.443   2.544  0.00  0.00    +0.417 C 
ATOM     33  F   UNL     1       8.111  -9.110   1.879  0.00  0.00    -0.166 F 
ATOM     34  F   UNL     1       7.603  -7.366   3.264  0.00  0.00    -0.166 F 
ATOM     35  F   UNL     1       6.441  -9.327   3.423  0.00  0.00    -0.166 F 
ENDBRANCH  30  32
ENDBRANCH  16  26
BRANCH   6  36
ATOM     36  O   UNL     1      -5.192  -2.005   3.691  0.00  0.00    -0.495 OA
ATOM     37  C   UNL     1      -6.269  -1.099   3.437  0.00  0.00    +0.277 C 
ENDBRANCH   6  36
TORSDOF 4
