REMARK  Name = ZINC63171109
REMARK  8 active torsions:
REMARK  status: ('A' for Active; 'I' for Inactive)
REMARK    1  A    between atoms: C_1  and  C_2
REMARK    2  A    between atoms: C_2  and  C_4
REMARK    3  A    between atoms: C_2  and  N_21
REMARK    4  A    between atoms: C_4  and  C_5
REMARK    5  A    between atoms: C_5  and  N_6
REMARK    6  A    between atoms: N_6  and  S_7
REMARK    7  A    between atoms: S_7  and  C_10
REMARK    8  A    between atoms: N_19  and  C_20
REMARK                            x       y       z     vdW  Elec       q    Type
REMARK                         _______ _______ _______ _____ _____    ______ ____
ROOT
ATOM      1  S   UNL     1       1.131  -4.075   3.012  0.00  0.00    +0.059 S 
ATOM      2  O   UNL     1       1.965  -4.248   4.149  0.00  0.00    -0.153 OA
ATOM      3  O   UNL     1      -0.274  -4.282   3.059  0.00  0.00    -0.153 OA
ENDROOT
BRANCH   1   4
ATOM      4  C   UNL     1       1.755  -5.149   1.761  0.00  0.00    +0.109 A 
ATOM      5  C   UNL     1       0.921  -5.579   0.744  0.00  0.00    +0.031 A 
ATOM      6  C   UNL     1       1.404  -6.421  -0.240  0.00  0.00    +0.031 A 
ATOM      7  C   UNL     1       2.727  -6.833  -0.207  0.00  0.00    +0.090 A 
ATOM      8  C   UNL     1       3.568  -6.399   0.818  0.00  0.00    +0.159 A 
ATOM      9  C   UNL     1       3.076  -5.551   1.798  0.00  0.00    +0.077 A 
ATOM     10  O   UNL     1       4.786  -6.952   0.599  0.00  0.00    -0.407 OA
ATOM     11  C   UNL     1       4.736  -7.705  -0.510  0.00  0.00    +0.421 A 
ATOM     12  O   UNL     1       5.667  -8.335  -0.974  0.00  0.00    -0.223 OA
ATOM     13  N   UNL     1       3.493  -7.657  -1.030  0.00  0.00    -0.277 N 
ATOM     14  C   UNL     1       3.033  -8.344  -2.239  0.00  0.00    +0.156 C 
ENDBRANCH   1   4
BRANCH   1  15
ATOM     15  N   UNL     1       1.364  -2.523   2.486  0.00  0.00    -0.190 NA
ATOM     16  H   UNL     1       1.970  -1.935   2.963  0.00  0.00    +0.148 HD
BRANCH  15  17
ATOM     17  C   UNL     1       0.655  -2.037   1.299  0.00  0.00    +0.104 C 
BRANCH  17  18
ATOM     18  C   UNL     1       0.742  -0.511   1.242  0.00  0.00    +0.000 C 
BRANCH  18  20
ATOM     19  C   UNL     1      -0.019   1.526   0.010  0.00  0.00    -0.014 C 
ATOM     20  C   UNL     1       0.002  -0.004   0.002  0.00  0.00    -0.077 C 
BRANCH  20  21
ATOM     21  N   UNL     1       0.690  -0.478  -1.207  0.00  0.00    +0.380 N 
ATOM     22  H   UNL     1       1.636  -0.129  -1.214  0.00  0.00    -0.090 HD
ATOM     23  H   UNL     1       0.703  -1.487  -1.212  0.00  0.00    -0.090 HD
ATOM     24  H   UNL     1       0.202  -0.144  -2.024  0.00  0.00    -0.090 HD
ENDBRANCH  20  21
ENDBRANCH  18  20
ENDBRANCH  17  18
ENDBRANCH  15  17
ENDBRANCH   1  15
TORSDOF 6
