REMARK  Name = ZINC59119236
REMARK  12 active torsions:
REMARK  status: ('A' for Active; 'I' for Inactive)
REMARK    1  A    between atoms: C_1  and  C_2
REMARK    2  A    between atoms: C_2  and  N_3
REMARK    3  A    between atoms: N_3  and  C_4
REMARK    4  A    between atoms: N_3  and  C_6
REMARK    5  A    between atoms: C_4  and  C_5
REMARK    6  A    between atoms: C_6  and  C_8
REMARK    7  A    between atoms: C_6  and  C_25
REMARK    8  A    between atoms: C_8  and  N_9
REMARK    9  A    between atoms: N_12  and  C_13
REMARK   10  A    between atoms: C_13  and  C_14
REMARK   11  A    between atoms: C_14  and  C_16
REMARK   12  A    between atoms: C_14  and  O_24
REMARK                            x       y       z     vdW  Elec       q    Type
REMARK                         _______ _______ _______ _____ _____    ______ ____
ROOT
ATOM      1  N   UNL     1       0.978   1.381  -1.405  0.00  0.00    -0.301 N 
ATOM      2  C   UNL     1       1.592   2.578  -1.487  0.00  0.00    +0.300 C 
ATOM      3  O   UNL     1       2.482   2.751  -2.297  0.00  0.00    -0.253 OA
ATOM      4  N   UNL     1       1.220   3.583  -0.670  0.00  0.00    -0.297 N 
ATOM      5  H   UNL     1       0.268   1.243  -0.759  0.00  0.00    +0.150 HD
ATOM      6  H   UNL     1       0.509   3.446  -0.024  0.00  0.00    +0.150 HD
ENDROOT
BRANCH   1   7
ATOM      7  C   UNL     1       1.383   0.288  -2.293  0.00  0.00    +0.095 C 
BRANCH   7   8
ATOM      8  C   UNL     1       0.452  -0.908  -2.086  0.00  0.00    -0.020 C 
BRANCH   8   9
ATOM      9  C   UNL     1       0.964  -2.086  -2.875  0.00  0.00    -0.052 A 
ATOM     10  C   UNL     1       0.084  -2.933  -3.522  0.00  0.00    +0.009 A 
ATOM     11  C   UNL     1       0.578  -3.982  -4.223  0.00  0.00    +0.045 A 
ATOM     12  S   UNL     1       2.336  -3.795  -3.980  0.00  0.00    -0.105 S 
ATOM     13  C   UNL     1       2.295  -2.327  -2.965  0.00  0.00    +0.047 A 
ENDBRANCH   8   9
BRANCH   8  14
ATOM     14  N   UNL     1       0.410  -1.256  -0.659  0.00  0.00    +0.385 N 
ATOM     15  H   UNL     1       0.122  -0.450  -0.125  0.00  0.00    -0.081 HD
BRANCH  14  17
ATOM     16  C   UNL     1      -1.961  -1.858  -0.765  0.00  0.00    -0.017 C 
ATOM     17  C   UNL     1      -0.547  -2.350  -0.449  0.00  0.00    -0.081 C 
ENDBRANCH  14  17
BRANCH  14  18
ATOM     18  C   UNL     1       1.746  -1.682  -0.220  0.00  0.00    -0.081 C 
ATOM     19  C   UNL     1       2.539  -0.464   0.258  0.00  0.00    -0.017 C 
ENDBRANCH  14  18
ENDBRANCH   8  14
ENDBRANCH   7   8
ENDBRANCH   1   7
BRANCH   4  20
ATOM     20  C   UNL     1       1.887   4.885  -0.759  0.00  0.00    +0.141 C 
BRANCH  20  21
ATOM     21  C   UNL     1       1.279   5.840   0.270  0.00  0.00    +0.162 C 
BRANCH  21  22
ATOM     22  C   UNL     1       1.966   7.179   0.178  0.00  0.00    -0.015 A 
ATOM     23  C   UNL     1       1.534   8.115  -0.743  0.00  0.00    +0.009 A 
ATOM     24  C   UNL     1       2.162   9.343  -0.828  0.00  0.00    +0.041 A 
ATOM     25  C   UNL     1       3.224   9.637   0.009  0.00  0.00    +0.158 A 
ATOM     26  C   UNL     1       3.657   8.699   0.933  0.00  0.00    +0.159 A 
ATOM     27  C   UNL     1       3.023   7.471   1.019  0.00  0.00    +0.047 A 
ATOM     28  F   UNL     1       4.694   8.983   1.751  0.00  0.00    -0.202 F 
ATOM     29  F   UNL     1       3.839  10.838  -0.075  0.00  0.00    -0.202 F 
ENDBRANCH  21  22
BRANCH  21  30
ATOM     30  O   UNL     1      -0.116   6.002   0.005  0.00  0.00    -0.386 OA
ATOM     31  H   UNL     1      -0.310   6.363  -0.871  0.00  0.00    +0.210 HD
ENDBRANCH  21  30
ENDBRANCH  20  21
ENDBRANCH   4  20
TORSDOF 10
