REMARK  Name = ZINC09369205
REMARK  11 active torsions:
REMARK  status: ('A' for Active; 'I' for Inactive)
REMARK    1  A    between atoms: C_1  and  C_2
REMARK    2  A    between atoms: C_2  and  O_3
REMARK    3  A    between atoms: O_3  and  C_4
REMARK    4  A    between atoms: C_4  and  C_6
REMARK    5  A    between atoms: C_10  and  N_11
REMARK    6  A    between atoms: C_12  and  C_14
REMARK    7  A    between atoms: C_17  and  S_20
REMARK    8  A    between atoms: S_20  and  N_23
REMARK    9  A    between atoms: C_25  and  C_32
REMARK   10  A    between atoms: C_28  and  C_31
REMARK   11  A    between atoms: C_36  and  N_68
REMARK                            x       y       z     vdW  Elec       q    Type
REMARK                         _______ _______ _______ _____ _____    ______ ____
ROOT
ATOM      1  N   UNL     1      -8.227   1.151  -1.081  0.00  0.00    -0.275 N 
ATOM      2  C   UNL     1      -7.644   1.502   0.083  0.00  0.00    +0.249 C 
ATOM      3  O   UNL     1      -8.149   1.173   1.139  0.00  0.00    -0.270 OA
ATOM      4  H   UNL     1      -7.824   1.413  -1.923  0.00  0.00    +0.156 HD
ENDROOT
BRANCH   1   9
ATOM      5  C   UNL     1     -10.146  -0.031  -2.158  0.00  0.00    +0.091 A 
ATOM      6  C   UNL     1     -11.348  -0.793  -1.874  0.00  0.00    -0.025 A 
ATOM      7  C   UNL     1     -11.619  -0.977  -0.562  0.00  0.00    -0.021 A 
ATOM      8  S   UNL     1     -10.301  -0.162   0.290  0.00  0.00    -0.079 S 
ATOM      9  C   UNL     1      -9.401   0.416  -1.074  0.00  0.00    +0.086 A 
ATOM     10  C   UNL     1     -12.790  -1.714   0.008  0.00  0.00    -0.036 C 
ATOM     11  C   UNL     1     -13.153  -2.438  -2.275  0.00  0.00    -0.074 C 
ATOM     12  C   UNL     1     -12.280  -1.366  -2.935  0.00  0.00    +0.018 C 
ATOM     13  C   UNL     1     -14.888  -2.760  -0.617  0.00  0.00    -0.096 C 
ATOM     14  N   UNL     1     -13.795  -1.873  -1.071  0.00  0.00    +0.381 N 
ATOM     15  H   UNL     1     -14.187  -0.952  -1.301  0.00  0.00    -0.082 HD
BRANCH   5  16
ATOM     16  C   UNL     1      -9.733   0.253  -3.534  0.00  0.00    +0.342 C 
ATOM     17  O   UNL     1      -9.003  -0.522  -4.122  0.00  0.00    -0.245 OA
BRANCH  16  18
ATOM     18  O   UNL     1     -10.162   1.374  -4.150  0.00  0.00    -0.461 OA
BRANCH  18  20
ATOM     19  C   UNL     1     -10.297   2.902  -6.041  0.00  0.00    +0.048 C 
ATOM     20  C   UNL     1      -9.712   1.590  -5.513  0.00  0.00    +0.229 C 
ENDBRANCH  18  20
ENDBRANCH  16  18
ENDBRANCH   5  16
ENDBRANCH   1   9
BRANCH   2  21
ATOM     21  C   UNL     1      -6.391   2.286   0.075  0.00  0.00    +0.037 A 
ATOM     22  C   UNL     1      -5.785   2.651   1.279  0.00  0.00    +0.015 A 
ATOM     23  C   UNL     1      -4.616   3.382   1.264  0.00  0.00    +0.029 A 
ATOM     24  C   UNL     1      -4.043   3.754   0.061  0.00  0.00    +0.106 A 
ATOM     25  C   UNL     1      -4.642   3.400  -1.135  0.00  0.00    +0.029 A 
ATOM     26  C   UNL     1      -5.809   2.664  -1.135  0.00  0.00    +0.015 A 
BRANCH  24  27
ATOM     27  S   UNL     1      -2.550   4.688   0.052  0.00  0.00    +0.061 S 
ATOM     28  O   UNL     1      -2.485   5.364   1.300  0.00  0.00    -0.153 OA
ATOM     29  O   UNL     1      -2.509   5.377  -1.190  0.00  0.00    -0.153 OA
BRANCH  27  30
ATOM     30  N   UNL     1      -1.296   3.606   0.034  0.00  0.00    -0.176 NA
ATOM     31  C   UNL     1      -0.741   3.124  -1.238  0.00  0.00    +0.112 C 
ATOM     32  C   UNL     1      -0.752   1.593  -1.232  0.00  0.00    +0.002 C 
ATOM     33  C   UNL     1      -0.013   1.086   0.008  0.00  0.00    +0.009 C 
ATOM     34  C   UNL     1      -0.729   1.579   1.268  0.00  0.00    +0.002 C 
ATOM     35  C   UNL     1      -0.717   3.111   1.290  0.00  0.00    +0.112 C 
ATOM     36  C   UNL     1      -0.008   1.045   2.507  0.00  0.00    +0.009 C 
ATOM     37  C   UNL     1      -2.198   1.093  -1.204  0.00  0.00    +0.009 C 
ENDBRANCH  27  30
ENDBRANCH  24  27
ENDBRANCH   2  21
TORSDOF 7
