REMARK  Name = ZINC63058804
REMARK  4 active torsions:
REMARK  status: ('A' for Active; 'I' for Inactive)
REMARK    1  A    between atoms: C_1  and  C_2
REMARK    2  A    between atoms: C_4  and  C_9
REMARK    3  A    between atoms: N_10  and  N_11
REMARK    4  A    between atoms: N_12  and  C_13
REMARK                            x       y       z     vdW  Elec       q    Type
REMARK                         _______ _______ _______ _____ _____    ______ ____
ROOT
ATOM      1  C   UNL     1      -0.026  -2.846  -2.465  0.00  0.00    +0.116 C 
ATOM      2  N   UNL     1      -0.630  -2.350  -3.506  0.00  0.00    -0.300 N 
ATOM      3  N   UNL     1       0.708  -4.027  -2.582  0.00  0.00    -0.326 N 
ATOM      4  H   UNL     1       1.158  -4.397  -1.806  0.00  0.00    +0.148 HD
ATOM      5  H   UNL     1      -0.648  -2.846  -4.339  0.00  0.00    +0.185 HD
ENDROOT
BRANCH   1   9
ATOM      6  C   UNL     1       2.080  -1.466   1.842  0.00  0.00    +0.047 C 
ATOM      7  C   UNL     1       0.892  -1.491   0.915  0.00  0.00    -0.015 A 
ATOM      8  C   UNL     1       0.983  -2.135  -0.302  0.00  0.00    +0.017 A 
ATOM      9  C   UNL     1      -0.117  -2.158  -1.160  0.00  0.00    +0.014 A 
ATOM     10  C   UNL     1      -1.305  -1.529  -0.781  0.00  0.00    +0.014 A 
ATOM     11  C   UNL     1      -1.385  -0.888   0.437  0.00  0.00    +0.039 A 
ATOM     12  C   UNL     1      -0.290  -0.873   1.288  0.00  0.00    +0.126 A 
ATOM     13  F   UNL     1      -0.375  -0.249   2.483  0.00  0.00    -0.205 F 
ENDBRANCH   1   9
BRANCH   2  14
ATOM     14  N   UNL     1      -1.255  -1.099  -3.423  0.00  0.00    -0.304 N 
ATOM     15  H   UNL     1      -1.805  -0.782  -4.156  0.00  0.00    +0.162 HD
ATOM     16  H   UNL     1      -1.137  -0.549  -2.632  0.00  0.00    +0.162 HD
ENDBRANCH   2  14
BRANCH   3  17
ATOM     17  C   UNL     1       0.798  -4.709  -3.875  0.00  0.00    +0.072 C 
ATOM     18  C   UNL     1       0.637  -6.230  -3.885  0.00  0.00    +0.024 C 
ATOM     19  C   UNL     1       2.014  -5.605  -4.118  0.00  0.00    +0.024 C 
ENDBRANCH   3  17
TORSDOF 3
