REMARK  Name = ZINC57288305
REMARK  10 active torsions:
REMARK  status: ('A' for Active; 'I' for Inactive)
REMARK    1  A    between atoms: C_1  and  S_2
REMARK    2  A    between atoms: S_2  and  C_3
REMARK    3  A    between atoms: C_3  and  C_4
REMARK    4  A    between atoms: C_4  and  C_5
REMARK    5  A    between atoms: C_5  and  C_7
REMARK    6  A    between atoms: C_5  and  N_23
REMARK    7  A    between atoms: N_9  and  C_10
REMARK    8  A    between atoms: C_10  and  C_11
REMARK    9  A    between atoms: C_11  and  C_13
REMARK   10  A    between atoms: C_11  and  N_18
REMARK                            x       y       z     vdW  Elec       q    Type
REMARK                         _______ _______ _______ _____ _____    ______ ____
ROOT
ATOM      1  C   UNL     1      -3.596  -3.817  -0.165  0.00  0.00    +0.233 C 
ATOM      2  O   UNL     1      -3.957  -4.456   0.801  0.00  0.00    -0.274 OA
ATOM      3  N   UNL     1      -3.407  -4.434  -1.349  0.00  0.00    -0.315 N 
ATOM      4  H   UNL     1      -3.118  -3.924  -2.121  0.00  0.00    +0.149 HD
ENDROOT
BRANCH   1   5
ATOM      5  C   UNL     1      -3.358  -2.335  -0.042  0.00  0.00    +0.161 C 
BRANCH   5   6
ATOM      6  N   UNL     1      -4.059  -1.823   1.138  0.00  0.00    -0.288 N 
ATOM      7  C   UNL     1      -3.760  -2.304   2.361  0.00  0.00    +0.298 C 
ATOM      8  O   UNL     1      -2.907  -3.162   2.485  0.00  0.00    -0.253 OA
ATOM      9  N   UNL     1      -4.405  -1.834   3.446  0.00  0.00    -0.313 N 
ATOM     10  H   UNL     1      -4.740  -1.139   1.039  0.00  0.00    +0.151 HD
ATOM     11  H   UNL     1      -5.086  -1.150   3.348  0.00  0.00    +0.146 HD
ATOM     12  H   UNL     1      -4.190  -2.180   4.327  0.00  0.00    +0.146 HD
ENDBRANCH   5   6
BRANCH   5  13
ATOM     13  C   UNL     1      -1.858  -2.069   0.102  0.00  0.00    +0.042 C 
BRANCH  13  14
ATOM     14  C   UNL     1      -1.604  -0.560   0.102  0.00  0.00    +0.071 C 
BRANCH  14  16
ATOM     15  C   UNL     1       0.303   1.563   0.255  0.00  0.00    +0.084 C 
ATOM     16  S   UNL     1       0.174  -0.246   0.272  0.00  0.00    -0.164 S 
ENDBRANCH  14  16
ENDBRANCH  13  14
ENDBRANCH   5  13
ENDBRANCH   1   5
BRANCH   3  17
ATOM     17  C   UNL     1      -3.639  -5.876  -1.468  0.00  0.00    +0.094 C 
BRANCH  17  18
ATOM     18  C   UNL     1      -3.458  -6.302  -2.927  0.00  0.00    -0.013 C 
BRANCH  18  19
ATOM     19  N   UNL     1      -3.818  -7.719  -3.071  0.00  0.00    +0.386 N 
ATOM     20  C   UNL     1      -5.251  -7.920  -2.735  0.00  0.00    -0.078 C 
ATOM     21  C   UNL     1      -5.600  -9.249  -3.451  0.00  0.00    -0.020 C 
ATOM     22  C   UNL     1      -4.797  -9.153  -4.768  0.00  0.00    -0.020 C 
ATOM     23  C   UNL     1      -3.672  -8.142  -4.481  0.00  0.00    -0.078 C 
ATOM     24  H   UNL     1      -3.237  -8.289  -2.474  0.00  0.00    -0.081 HD
ENDBRANCH  18  19
BRANCH  18  25
ATOM     25  C   UNL     1      -2.021  -6.105  -3.333  0.00  0.00    -0.022 A 
ATOM     26  C   UNL     1      -1.464  -5.088  -4.036  0.00  0.00    +0.009 A 
ATOM     27  C   UNL     1      -0.107  -5.117  -4.294  0.00  0.00    +0.008 A 
ATOM     28  C   UNL     1       0.628  -6.161  -3.838  0.00  0.00    +0.045 A 
ATOM     29  S   UNL     1      -0.608  -7.147  -3.008  0.00  0.00    -0.103 S 
ENDBRANCH  18  25
ENDBRANCH  17  18
ENDBRANCH   3  17
TORSDOF 9
