REMARK  Name = ZINC63514556
REMARK  9 active torsions:
REMARK  status: ('A' for Active; 'I' for Inactive)
REMARK    1  A    between atoms: C_1  and  C_2
REMARK    2  A    between atoms: C_4  and  C_17
REMARK    3  A    between atoms: C_7  and  O_12
REMARK    4  A    between atoms: O_12  and  C_13
REMARK    5  A    between atoms: C_17  and  C_18
REMARK    6  A    between atoms: C_18  and  N_19
REMARK    7  A    between atoms: C_20  and  C_22
REMARK    8  A    between atoms: C_29  and  C_34
REMARK    9  A    between atoms: C_34  and  C_35
REMARK                            x       y       z     vdW  Elec       q    Type
REMARK                         _______ _______ _______ _____ _____    ______ ____
ROOT
ATOM      1  C   UNL     1      -3.765  -1.048  -0.551  0.00  0.00    +0.108 C 
ENDROOT
BRANCH   1   2
ATOM      2  N   UNL     1      -4.819  -0.825  -1.544  0.00  0.00    -0.314 N 
ATOM      3  C   UNL     1      -6.036  -1.378  -1.371  0.00  0.00    +0.227 C 
ATOM      4  O   UNL     1      -6.259  -2.061  -0.394  0.00  0.00    -0.275 OA
ATOM      5  H   UNL     1      -4.641  -0.279  -2.326  0.00  0.00    +0.149 HD
BRANCH   3   6
ATOM      6  C   UNL     1      -7.120  -1.149  -2.393  0.00  0.00    +0.188 C 
ATOM      7  C   UNL     1      -8.404  -1.861  -1.957  0.00  0.00    +0.063 C 
ATOM      8  C   UNL     1      -9.578  -1.321  -2.733  0.00  0.00    -0.003 A 
ATOM      9  C   UNL     1     -10.729  -2.089  -2.811  0.00  0.00    +0.007 A 
ATOM     10  C   UNL     1     -11.830  -1.629  -3.506  0.00  0.00    +0.001 A 
ATOM     11  C   UNL     1     -11.789  -0.395  -4.129  0.00  0.00    +0.007 A 
ATOM     12  C   UNL     1     -10.646   0.373  -4.058  0.00  0.00    -0.001 A 
ATOM     13  C   UNL     1      -9.534  -0.089  -3.362  0.00  0.00    +0.138 A 
ATOM     14  O   UNL     1      -8.419   0.692  -3.332  0.00  0.00    -0.425 OA
ATOM     15  C   UNL     1      -7.427   0.332  -2.493  0.00  0.00    +0.325 C 
ATOM     16  O   UNL     1      -6.813   1.150  -1.851  0.00  0.00    -0.250 OA
BRANCH  12  17
ATOM     17  C   UNL     1     -10.602   1.718  -4.736  0.00  0.00    +0.065 C 
BRANCH  17  18
ATOM     18  C   UNL     1      -9.986   1.571  -6.104  0.00  0.00    -0.030 C 
ATOM     19  C   UNL     1     -10.634   1.991  -7.162  0.00  0.00    +0.004 C 
ENDBRANCH  17  18
ENDBRANCH  12  17
ENDBRANCH   3   6
ENDBRANCH   1   2
BRANCH   1  20
ATOM     20  C   UNL     1      -2.494  -0.315  -0.984  0.00  0.00    +0.052 C 
BRANCH  20  23
ATOM     21  C   UNL     1      -0.019   1.526   0.010  0.00  0.00    +0.035 C 
ATOM     22  C   UNL     1       0.002  -0.004   0.002  0.00  0.00    +0.103 C 
ATOM     23  C   UNL     1      -1.410  -0.545   0.038  0.00  0.00    -0.037 C 
ATOM     24  C   UNL     1      -1.503  -1.275   1.172  0.00  0.00    +0.003 A 
ATOM     25  C   UNL     1      -2.598  -2.045   1.773  0.00  0.00    +0.056 A 
ATOM     26  C   UNL     1      -2.393  -2.691   2.946  0.00  0.00    +0.129 A 
ATOM     27  C   UNL     1      -1.160  -2.651   3.620  0.00  0.00    +0.048 A 
ATOM     28  C   UNL     1      -0.095  -1.970   3.147  0.00  0.00    +0.029 A 
ATOM     29  C   UNL     1      -0.204  -1.234   1.883  0.00  0.00    +0.043 A 
ATOM     30  N   UNL     1       0.658  -0.508   1.214  0.00  0.00    -0.378 N 
ATOM     31  H   UNL     1       1.576  -0.332   1.476  0.00  0.00    +0.160 HD
BRANCH  26  32
ATOM     32  O   UNL     1      -3.416  -3.401   3.491  0.00  0.00    -0.420 OA
BRANCH  32  33
ATOM     33  C   UNL     1      -3.157  -4.065   4.729  0.00  0.00    +0.489 C 
ATOM     34  F   UNL     1      -2.114  -4.981   4.558  0.00  0.00    -0.149 F 
ATOM     35  F   UNL     1      -2.796  -3.122   5.698  0.00  0.00    -0.149 F 
ATOM     36 CL   UNL     1      -4.641  -4.939   5.265  0.00  0.00    +0.000 Cl
ENDBRANCH  32  33
ENDBRANCH  26  32
ENDBRANCH  20  23
ENDBRANCH   1  20
TORSDOF 8
