REMARK  Name = ZINC45008989
REMARK  9 active torsions:
REMARK  status: ('A' for Active; 'I' for Inactive)
REMARK    1  A    between atoms: C_1  and  C_2
REMARK    2  A    between atoms: C_2  and  C_3
REMARK    3  A    between atoms: C_8  and  N_9
REMARK    4  A    between atoms: C_12  and  C_17
REMARK    5  A    between atoms: C_17  and  S_18
REMARK    6  A    between atoms: S_18  and  C_19
REMARK    7  A    between atoms: C_19  and  C_20
REMARK    8  A    between atoms: C_20  and  C_21
REMARK    9  A    between atoms: N_26  and  C_27
REMARK                            x       y       z     vdW  Elec       q    Type
REMARK                         _______ _______ _______ _____ _____    ______ ____
ROOT
ATOM      1  N   UNL     1      -1.506  -0.315  -2.391  0.00  0.00    -0.283 N 
ATOM      2  C   UNL     1      -2.164  -0.547  -3.583  0.00  0.00    +0.224 A 
ATOM      3  N   UNL     1      -1.548  -0.315  -4.740  0.00  0.00    -0.198 NA
ATOM      4  C   UNL     1      -2.176  -0.536  -5.881  0.00  0.00    +0.146 A 
ATOM      5  N   UNL     1      -3.418  -0.988  -5.879  0.00  0.00    -0.199 NA
ATOM      6  C   UNL     1      -4.041  -1.222  -4.726  0.00  0.00    +0.217 A 
ATOM      7  N   UNL     1      -3.410  -1.006  -3.576  0.00  0.00    -0.181 NA
ATOM      8  N   UNL     1      -5.338  -1.694  -4.724  0.00  0.00    -0.327 N 
ATOM      9  H   UNL     1      -0.569  -0.065  -2.395  0.00  0.00    +0.155 HD
ATOM     10  H   UNL     1      -5.796  -1.856  -5.564  0.00  0.00    +0.145 HD
ATOM     11  H   UNL     1      -5.791  -1.865  -3.884  0.00  0.00    +0.145 HD
ENDROOT
BRANCH   1  17
ATOM     12  C   UNL     1      -1.509  -0.816  -0.029  0.00  0.00    -0.026 A 
ATOM     13  C   UNL     1      -2.188  -0.933   1.169  0.00  0.00    +0.005 A 
ATOM     14  C   UNL     1      -3.546  -0.681   1.222  0.00  0.00    +0.000 A 
ATOM     15  C   UNL     1      -4.230  -0.312   0.078  0.00  0.00    +0.002 A 
ATOM     16  C   UNL     1      -3.557  -0.193  -1.122  0.00  0.00    +0.023 A 
ATOM     17  C   UNL     1      -2.191  -0.440  -1.178  0.00  0.00    +0.037 A 
BRANCH  12  19
ATOM     18  C   UNL     1       0.740   0.224   0.065  0.00  0.00    +0.009 C 
ATOM     19  C   UNL     1      -0.028  -1.090  -0.086  0.00  0.00    +0.033 C 
ENDBRANCH  12  19
ENDBRANCH   1  17
BRANCH   4  20
ATOM     20  C   UNL     1      -1.475  -0.273  -7.189  0.00  0.00    +0.145 C 
BRANCH  20  21
ATOM     21  S   UNL     1      -0.609  -1.774  -7.724  0.00  0.00    -0.152 S 
BRANCH  21  22
ATOM     22  C   UNL     1       0.172  -1.295  -9.290  0.00  0.00    +0.079 C 
BRANCH  22  23
ATOM     23  C   UNL     1       0.947  -2.486  -9.858  0.00  0.00    +0.107 C 
BRANCH  23  24
ATOM     24  C   UNL     1       1.596  -2.088 -11.159  0.00  0.00    +0.221 C 
ATOM     25  O   UNL     1       1.453  -0.964 -11.589  0.00  0.00    -0.275 OA
ATOM     26  N   UNL     1       2.335  -2.983 -11.844  0.00  0.00    -0.240 N 
ATOM     27  C   UNL     1       2.916  -2.627 -13.007  0.00  0.00    +0.306 C 
ATOM     28  O   UNL     1       2.772  -1.500 -13.438  0.00  0.00    -0.252 OA
ATOM     29  N   UNL     1       3.655  -3.522 -13.693  0.00  0.00    -0.302 N 
ATOM     30  C   UNL     1       4.286  -3.135 -14.957  0.00  0.00    +0.129 C 
ATOM     31  H   UNL     1       2.450  -3.883 -11.500  0.00  0.00    +0.159 HD
ATOM     32  H   UNL     1       3.770  -4.422 -13.348  0.00  0.00    +0.150 HD
ENDBRANCH  23  24
ENDBRANCH  22  23
ENDBRANCH  21  22
ENDBRANCH  20  21
ENDBRANCH   4  20
TORSDOF 7
