REMARK  Name = ZINC36954781
REMARK  9 active torsions:
REMARK  status: ('A' for Active; 'I' for Inactive)
REMARK    1  A    between atoms: C_1  and  C_2
REMARK    2  A    between atoms: C_2  and  C_3
REMARK    3  A    between atoms: C_3  and  C_5
REMARK    4  A    between atoms: C_3  and  N_10
REMARK    5  A    between atoms: N_10  and  C_11
REMARK    6  A    between atoms: C_11  and  C_13
REMARK    7  A    between atoms: C_11  and  C_14
REMARK    8  A    between atoms: C_17  and  S_20
REMARK    9  A    between atoms: S_20  and  N_23
REMARK                            x       y       z     vdW  Elec       q    Type
REMARK                         _______ _______ _______ _____ _____    ______ ____
ROOT
ATOM      1  C   UNL     1      -2.258   1.526   1.134  0.00  0.00    -0.043 C 
ATOM      2  C   UNL     1      -3.078   1.926  -0.094  0.00  0.00    -0.009 C 
ENDROOT
BRANCH   1   3
ATOM      3  C   UNL     1      -2.945   2.021   2.380  0.00  0.00    -0.062 A 
ATOM      4  C   UNL     1      -4.008   1.314   2.910  0.00  0.00    +0.004 A 
ATOM      5  C   UNL     1      -4.638   1.768   4.054  0.00  0.00    +0.029 A 
ATOM      6  C   UNL     1      -4.205   2.929   4.667  0.00  0.00    +0.105 A 
ATOM      7  C   UNL     1      -3.141   3.634   4.138  0.00  0.00    +0.029 A 
ATOM      8  C   UNL     1      -2.508   3.178   2.997  0.00  0.00    +0.004 A 
BRANCH   6   9
ATOM      9  S   UNL     1      -5.009   3.508   6.124  0.00  0.00    +0.056 S 
ATOM     10  O   UNL     1      -4.763   4.906   6.195  0.00  0.00    -0.153 OA
ATOM     11  O   UNL     1      -6.322   2.965   6.107  0.00  0.00    -0.153 OA
BRANCH   9  12
ATOM     12  N   UNL     1      -4.231   2.825   7.417  0.00  0.00    -0.204 NA
ATOM     13  H   UNL     1      -3.480   2.229   7.272  0.00  0.00    +0.144 HD
ATOM     14  H   UNL     1      -4.527   3.021   8.320  0.00  0.00    +0.144 HD
ENDBRANCH   9  12
ENDBRANCH   6   9
ENDBRANCH   1   3
BRANCH   1  15
ATOM     15  N   UNL     1      -2.140   0.062   1.188  0.00  0.00    +0.388 N 
ATOM     16  H   UNL     1      -3.059  -0.351   1.150  0.00  0.00    -0.084 HD
ATOM     17  H   UNL     1      -1.685  -0.207   2.047  0.00  0.00    -0.084 HD
BRANCH  15  18
ATOM     18  C   UNL     1      -1.344  -0.407   0.046  0.00  0.00    -0.033 C 
BRANCH  18  19
ATOM     19  C   UNL     1      -1.347  -1.914   0.017  0.00  0.00    -0.024 A 
ATOM     20  C   UNL     1      -1.433  -2.748  -1.048  0.00  0.00    +0.009 A 
ATOM     21  C   UNL     1      -1.415  -4.113  -0.834  0.00  0.00    +0.008 A 
ATOM     22  C   UNL     1      -1.312  -4.578   0.435  0.00  0.00    +0.045 A 
ATOM     23  S   UNL     1      -1.230  -3.064   1.378  0.00  0.00    -0.103 S 
ENDBRANCH  18  19
BRANCH  18  25
ATOM     24  C   UNL     1       0.898  -0.311  -1.052  0.00  0.00    +0.002 C 
ATOM     25  C   UNL     1       0.093   0.098   0.183  0.00  0.00    -0.014 C 
ENDBRANCH  18  25
ENDBRANCH  15  18
ENDBRANCH   1  15
TORSDOF 7
