REMARK  Name = ZINC23145315
REMARK  9 active torsions:
REMARK  status: ('A' for Active; 'I' for Inactive)
REMARK    1  A    between atoms: C_1  and  N_2
REMARK    2  A    between atoms: N_2  and  C_3
REMARK    3  A    between atoms: N_2  and  C_20
REMARK    4  A    between atoms: C_3  and  C_4
REMARK    5  A    between atoms: C_8  and  C_10
REMARK    6  A    between atoms: C_15  and  C_17
REMARK    7  A    between atoms: C_17  and  C_18
REMARK    8  A    between atoms: C_18  and  N_19
REMARK    9  A    between atoms: C_20  and  C_21
REMARK                            x       y       z     vdW  Elec       q    Type
REMARK                         _______ _______ _______ _____ _____    ______ ____
ROOT
ATOM      1  C   UNL     1       4.844   0.948  -0.040  0.00  0.00    -0.063 A 
ATOM      2  C   UNL     1       4.848  -0.436  -0.048  0.00  0.00    +0.002 A 
ATOM      3  C   UNL     1       3.656  -1.138  -0.041  0.00  0.00    +0.001 A 
ATOM      4  C   UNL     1       2.454  -0.461  -0.025  0.00  0.00    +0.011 A 
ATOM      5  C   UNL     1       2.442   0.935  -0.017  0.00  0.00    +0.019 A 
ATOM      6  C   UNL     1       3.649   1.637  -0.030  0.00  0.00    +0.013 A 
ENDROOT
BRANCH   5   7
ATOM      7  C   UNL     1       1.158   1.666  -0.000  0.00  0.00    +0.164 A 
ATOM      8  N   UNL     1      -0.011   0.966   0.007  0.00  0.00    -0.189 NA
ATOM      9  C   UNL     1      -1.188   1.628   0.017  0.00  0.00    +0.274 A 
ATOM     10  O   UNL     1      -2.244   1.018   0.018  0.00  0.00    -0.266 OA
ATOM     11  C   UNL     1      -1.171   3.037   0.029  0.00  0.00    +0.095 A 
ATOM     12  C   UNL     1       0.030   3.681   0.022  0.00  0.00    +0.047 A 
ATOM     13  N   UNL     1       1.164   2.983   0.007  0.00  0.00    -0.232 NA
BRANCH  12  14
ATOM     14  C   UNL     1       0.075   5.188   0.029  0.00  0.00    +0.036 C 
BRANCH  14  15
ATOM     15  C   UNL     1       0.230   5.686   1.468  0.00  0.00    -0.080 C 
BRANCH  15  16
ATOM     16  N   UNL     1       0.274   7.154   1.475  0.00  0.00    +0.378 N 
ATOM     17  H   UNL     1       0.386   7.512   2.509  0.00  0.00    -0.090 HD
ATOM     18  H   UNL     1      -0.658   7.551   1.048  0.00  0.00    -0.090 HD
ATOM     19  H   UNL     1       1.129   7.498   0.874  0.00  0.00    -0.090 HD
ENDBRANCH  15  16
ENDBRANCH  14  15
ENDBRANCH  12  14
ENDBRANCH   5   7
BRANCH   1  20
ATOM     20  C   UNL     1       6.147   1.704  -0.048  0.00  0.00    -0.043 C 
BRANCH  20  22
ATOM     21  C   UNL     1       6.877   0.702  -2.128  0.00  0.00    -0.095 C 
ATOM     22  N   UNL     1       6.557   1.958  -1.436  0.00  0.00    +0.384 N 
ATOM     23  H   UNL     1       5.710   2.426  -1.959  0.00  0.00    -0.081 HD
BRANCH  22  24
ATOM     24  C   UNL     1       7.691   2.891  -1.488  0.00  0.00    -0.036 C 
BRANCH  24  25
ATOM     25  C   UNL     1       7.926   3.317  -2.914  0.00  0.00    -0.027 A 
ATOM     26  C   UNL     1       7.394   4.365  -3.590  0.00  0.00    +0.009 A 
ATOM     27  C   UNL     1       7.761   4.569  -4.907  0.00  0.00    +0.008 A 
ATOM     28  C   UNL     1       8.633   3.708  -5.487  0.00  0.00    +0.045 A 
ATOM     29  S   UNL     1       8.970   2.570  -4.154  0.00  0.00    -0.103 S 
ENDBRANCH  24  25
ENDBRANCH  22  24
ENDBRANCH  20  22
ENDBRANCH   1  20
TORSDOF 8
