REMARK  Name = ZINC12619816
REMARK  10 active torsions:
REMARK  status: ('A' for Active; 'I' for Inactive)
REMARK    1  A    between atoms: C_1  and  C_2
REMARK    2  A    between atoms: C_2  and  C_3
REMARK    3  A    between atoms: C_3  and  C_4
REMARK    4  A    between atoms: C_4  and  N_5
REMARK    5  A    between atoms: N_5  and  C_6
REMARK    6  A    between atoms: C_9  and  S_29
REMARK    7  A    between atoms: C_11  and  N_12
REMARK    8  A    between atoms: C_13  and  C_15
REMARK    9  A    between atoms: C_15  and  C_16
REMARK   10  A    between atoms: S_29  and  N_32
REMARK                            x       y       z     vdW  Elec       q    Type
REMARK                         _______ _______ _______ _____ _____    ______ ____
ROOT
ATOM      1  C   UNL     1       4.611   7.093   0.806  0.00  0.00    +0.049 A 
ATOM      2  C   UNL     1       5.911   7.568   0.897  0.00  0.00    +0.027 A 
ATOM      3  C   UNL     1       6.943   6.879   0.287  0.00  0.00    +0.030 A 
ATOM      4  C   UNL     1       6.683   5.716  -0.415  0.00  0.00    +0.107 A 
ATOM      5  C   UNL     1       5.391   5.233  -0.506  0.00  0.00    +0.053 A 
ATOM      6  C   UNL     1       4.349   5.920   0.098  0.00  0.00    +0.056 A 
ENDROOT
BRANCH   6   7
ATOM      7  N   UNL     1       3.038   5.435   0.002  0.00  0.00    -0.284 N 
ATOM      8  C   UNL     1       2.810   4.107  -0.009  0.00  0.00    +0.218 C 
ATOM      9  O   UNL     1       3.743   3.332  -0.018  0.00  0.00    -0.275 OA
ATOM     10  H   UNL     1       2.195   6.138  -0.064  0.00  0.00    +0.155 HD
BRANCH   8  11
ATOM     11  C   UNL     1       1.397   3.585  -0.010  0.00  0.00    +0.103 C 
BRANCH  11  12
ATOM     12  C   UNL     1       1.418   2.055  -0.024  0.00  0.00    -0.019 C 
ATOM     13  C   UNL     1       2.143   1.566  -1.280  0.00  0.00    +0.011 C 
ATOM     14  C   UNL     1       2.164   0.036  -1.294  0.00  0.00    -0.009 C 
ATOM     15  C   UNL     1       2.896  -0.475  -0.051  0.00  0.00    +0.007 C 
ATOM     16  C   UNL     1       2.171   0.014   1.205  0.00  0.00    -0.009 C 
ATOM     17  C   UNL     1       2.149   1.544   1.219  0.00  0.00    +0.011 C 
ATOM     18  C   UNL     1       0.736  -0.516   1.204  0.00  0.00    +0.021 C 
ATOM     19  C   UNL     1       0.004  -0.005  -0.039  0.00  0.00    +0.027 C 
ATOM     20  C   UNL     1       0.729  -0.494  -1.295  0.00  0.00    +0.021 C 
ATOM     21  C   UNL     1      -0.017   1.525  -0.025  0.00  0.00    +0.025 C 
ATOM     22 BR   UNL     1      -1.840  -0.686  -0.040  0.00  0.00    -0.084 Br
ENDBRANCH  11  12
ENDBRANCH   8  11
ENDBRANCH   6   7
BRANCH   4  23
ATOM     23  S   UNL     1       8.004   4.844  -1.189  0.00  0.00    +0.056 S 
ATOM     24  O   UNL     1       7.426   4.084  -2.242  0.00  0.00    -0.153 OA
ATOM     25  O   UNL     1       9.040   5.791  -1.413  0.00  0.00    -0.153 OA
BRANCH  23  26
ATOM     26  N   UNL     1       8.587   3.757  -0.085  0.00  0.00    -0.204 NA
ATOM     27  H   UNL     1       9.417   3.190  -0.531  0.00  0.00    +0.144 HD
ATOM     28  H   UNL     1       7.784   3.064   0.207  0.00  0.00    +0.144 HD
ENDBRANCH  23  26
ENDBRANCH   4  23
BRANCH   1  29
ATOM     29  N   UNL     1       3.566   7.788   1.423  0.00  0.00    -0.342 N 
ATOM     30  H   UNL     1       2.535   7.410   1.350  0.00  0.00    +0.146 HD
BRANCH  29  31
ATOM     31  C   UNL     1       3.843   9.020   2.166  0.00  0.00    +0.101 C 
BRANCH  31  32
ATOM     32  C   UNL     1       2.537   9.576   2.736  0.00  0.00    +0.018 C 
BRANCH  32  34
ATOM     33  C   UNL     1       1.520  11.419   4.083  0.00  0.00    +0.004 C 
ATOM     34  C   UNL     1       2.826  10.863   3.513  0.00  0.00    -0.002 C 
ENDBRANCH  32  34
ENDBRANCH  31  32
ENDBRANCH  29  31
ENDBRANCH   1  29
TORSDOF 9
