REMARK  Name = ZINC43736967
REMARK  15 active torsions:
REMARK  status: ('A' for Active; 'I' for Inactive)
REMARK    1  A    between atoms: C_1  and  C_2
REMARK    2  A    between atoms: N_6  and  O_7
REMARK    3  A    between atoms: O_7  and  C_8
REMARK    4  A    between atoms: C_8  and  C_9
REMARK    5  A    between atoms: N_11  and  C_12
REMARK    6  A    between atoms: C_12  and  C_14
REMARK    7  A    between atoms: C_12  and  C_20
REMARK    8  A    between atoms: C_14  and  C_15
REMARK    9  A    between atoms: C_15  and  C_16
REMARK   10  A    between atoms: C_16  and  C_17
REMARK   11  A    between atoms: C_20  and  O_22
REMARK   12  A    between atoms: O_22  and  C_23
REMARK   13  A    between atoms: C_34  and  C_43
REMARK   14  A    between atoms: C_39  and  C_40
REMARK   15  A    between atoms: C_39  and  O_42
REMARK                            x       y       z     vdW  Elec       q    Type
REMARK                         _______ _______ _______ _____ _____    ______ ____
ROOT
ATOM      1  C   UNL     1      -0.119   1.636  -0.132  0.00  0.00    +0.016 C 
ATOM      2  C   UNL     1      -0.053   0.107  -0.124  0.00  0.00    -0.007 C 
ATOM      3  C   UNL     1       0.601  -0.404  -1.402  0.00  0.00    +0.017 C 
ATOM      4  C   UNL     1       2.057   0.067  -1.476  0.00  0.00    +0.059 C 
ATOM      5  C   UNL     1       2.781  -0.342  -0.218  0.00  0.00    +0.080 C 
ATOM      6  N   UNL     1       4.067  -0.500  -0.234  0.00  0.00    -0.089 NA
ATOM      7  C   UNL     1       2.032  -0.557   1.025  0.00  0.00    +0.026 C 
ATOM      8  C   UNL     1       0.725  -0.360   1.083  0.00  0.00    -0.062 C 
ATOM      9  C   UNL     1      -0.030  -0.609   2.368  0.00  0.00    +0.031 C 
ATOM     10  C   UNL     1      -1.053  -1.723   2.139  0.00  0.00    +0.008 C 
ATOM     11  C   UNL     1      -1.404  -1.829   0.661  0.00  0.00    -0.003 C 
ATOM     12  C   UNL     1      -1.480  -0.456   0.006  0.00  0.00    +0.002 C 
ATOM     13  C   UNL     1      -2.158  -0.493  -1.352  0.00  0.00    +0.005 C 
ATOM     14  C   UNL     1      -3.560  -1.108  -1.326  0.00  0.00    +0.011 C 
ATOM     15  C   UNL     1      -3.846  -1.780  -0.008  0.00  0.00    +0.011 C 
ATOM     16  C   UNL     1      -2.638  -2.643   0.411  0.00  0.00    +0.002 C 
ATOM     17  C   UNL     1      -3.204  -3.436   1.598  0.00  0.00    +0.008 C 
ATOM     18  C   UNL     1      -4.647  -3.779   1.136  0.00  0.00    +0.049 C 
ATOM     19  C   UNL     1      -4.956  -2.852  -0.064  0.00  0.00    +0.132 C 
ATOM     20  C   UNL     1      -4.253  -0.768   1.062  0.00  0.00    +0.015 C 
ENDROOT
BRANCH  19  21
ATOM     21  C   UNL     1      -6.271  -2.218   0.096  0.00  0.00    -0.070 C 
ATOM     22  C   UNL     1      -7.322  -1.712   0.224  0.00  0.00    +0.007 C 
ENDBRANCH  19  21
BRANCH  19  23
ATOM     23  O   UNL     1      -4.883  -3.576  -1.288  0.00  0.00    -0.376 OA
ATOM     24  H   UNL     1      -5.557  -4.263  -1.379  0.00  0.00    +0.211 HD
ENDBRANCH  19  23
BRANCH   6  25
ATOM     25  O   UNL     1       4.748  -0.884   0.946  0.00  0.00    -0.384 OA
BRANCH  25  26
ATOM     26  C   UNL     1       6.161  -1.021   0.784  0.00  0.00    +0.358 C 
BRANCH  26  27
ATOM     27  C   UNL     1       6.780  -1.430   2.096  0.00  0.00    +0.254 C 
ATOM     28  O   UNL     1       6.080  -1.589   3.073  0.00  0.00    -0.272 OA
ATOM     29  N   UNL     1       8.112  -1.620   2.182  0.00  0.00    -0.299 N 
ATOM     30  H   UNL     1       8.671  -1.493   1.400  0.00  0.00    +0.150 HD
BRANCH  29  31
ATOM     31  C   UNL     1       8.713  -2.018   3.457  0.00  0.00    +0.182 C 
BRANCH  31  32
ATOM     32  C   UNL     1       8.979  -0.791   4.292  0.00  0.00    +0.327 C 
ATOM     33  O   UNL     1       8.696   0.303   3.865  0.00  0.00    -0.249 OA
BRANCH  32  34
ATOM     34  O   UNL     1       9.532  -0.914   5.509  0.00  0.00    -0.467 OA
ATOM     35  C   UNL     1       9.756   0.290   6.244  0.00  0.00    +0.280 C 
ENDBRANCH  32  34
ENDBRANCH  31  32
BRANCH  31  36
ATOM     36  C   UNL     1      10.030  -2.750   3.193  0.00  0.00    +0.034 C 
BRANCH  36  37
ATOM     37  C   UNL     1       9.746  -4.059   2.454  0.00  0.00    +0.010 C 
BRANCH  37  38
ATOM     38  C   UNL     1      11.063  -4.792   2.189  0.00  0.00    +0.068 C 
BRANCH  38  39
ATOM     39  C   UNL     1      10.783  -6.081   1.461  0.00  0.00    +0.063 C 
ATOM     40  N   UNL     1      10.559  -7.191   2.144  0.00  0.00    -0.391 N 
ATOM     41  N   UNL     1      10.762  -6.103   0.140  0.00  0.00    -0.348 N 
ATOM     42  H   UNL     1      10.379  -8.021   1.675  0.00  0.00    +0.157 HD
ATOM     43  H   UNL     1      10.927  -5.288  -0.361  0.00  0.00    +0.143 HD
ATOM     44  H   UNL     1      10.582  -6.933  -0.329  0.00  0.00    +0.143 HD
ATOM     45  H   UNL     1      10.574  -7.175   3.113  0.00  0.00    +0.157 HD
ENDBRANCH  38  39
ENDBRANCH  37  38
ENDBRANCH  36  37
ENDBRANCH  31  36
ENDBRANCH  29  31
ENDBRANCH  26  27
ENDBRANCH  25  26
ENDBRANCH   6  25
TORSDOF 12
