REMARK  Name = ZINC08627147
REMARK  9 active torsions:
REMARK  status: ('A' for Active; 'I' for Inactive)
REMARK    1  A    between atoms: C_4  and  N_7
REMARK    2  A    between atoms: C_8  and  C_10
REMARK    3  A    between atoms: C_10  and  C_11
REMARK    4  A    between atoms: C_13  and  O_29
REMARK    5  A    between atoms: C_15  and  O_28
REMARK    6  A    between atoms: C_17  and  C_20
REMARK    7  A    between atoms: C_20  and  N_48
REMARK    8  A    between atoms: C_21  and  C_22
REMARK    9  A    between atoms: C_21  and  N_48
REMARK                            x       y       z     vdW  Elec       q    Type
REMARK                         _______ _______ _______ _____ _____    ______ ____
ROOT
ATOM      1  C   UNL     1      -0.727   1.581   1.267  0.00  0.00    +0.158 C 
ATOM      2  C   UNL     1      -0.018   1.050   2.532  0.00  0.00    +0.174 C 
ATOM      3  C   UNL     1      -0.120   2.218   3.538  0.00  0.00    +0.172 C 
ATOM      4  C   UNL     1      -0.878   3.317   2.762  0.00  0.00    +0.133 C 
ATOM      5  O   UNL     1      -0.637   3.019   1.370  0.00  0.00    -0.369 OA
ENDROOT
BRANCH   3   6
ATOM      6  O   UNL     1      -0.859   1.820   4.694  0.00  0.00    -0.387 OA
ATOM      7  H   UNL     1      -0.428   1.131   5.219  0.00  0.00    +0.210 HD
ENDBRANCH   3   6
BRANCH   2   8
ATOM      8  O   UNL     1      -0.691  -0.105   3.036  0.00  0.00    -0.387 OA
ATOM      9  H   UNL     1      -0.288  -0.481   3.830  0.00  0.00    +0.210 HD
ENDBRANCH   2   8
BRANCH   1  10
ATOM     10  C   UNL     1      -0.009   1.091   0.008  0.00  0.00    +0.130 C 
BRANCH  10  12
ATOM     11  N   UNL     1      -0.288   1.272  -2.443  0.00  0.00    -0.285 N 
ATOM     12  C   UNL     1      -0.742   1.583  -1.213  0.00  0.00    +0.220 C 
ATOM     13  O   UNL     1      -1.742   2.260  -1.088  0.00  0.00    -0.275 OA
ATOM     14  H   UNL     1       0.546   0.789  -2.544  0.00  0.00    +0.155 HD
BRANCH  11  18
ATOM     15  C   UNL     1      -2.471   2.386  -5.812  0.00  0.00    +0.000 A 
ATOM     16  C   UNL     1      -2.445   3.212  -4.703  0.00  0.00    +0.002 A 
ATOM     17  C   UNL     1      -1.722   2.845  -3.585  0.00  0.00    +0.023 A 
ATOM     18  C   UNL     1      -1.022   1.646  -3.575  0.00  0.00    +0.033 A 
ATOM     19  C   UNL     1      -1.045   0.822  -4.692  0.00  0.00    +0.023 A 
ATOM     20  C   UNL     1      -1.774   1.192  -5.806  0.00  0.00    +0.002 A 
ENDBRANCH  11  18
ENDBRANCH  10  12
ENDBRANCH   1  10
BRANCH   4  21
ATOM     21  C   UNL     1      -0.324   4.698   3.115  0.00  0.00    -0.047 C 
BRANCH  21  22
ATOM     22  N   UNL     1      -1.095   5.728   2.394  0.00  0.00    +0.384 N 
ATOM     23  H   UNL     1      -2.082   5.667   2.671  0.00  0.00    -0.085 HD
ATOM     24  H   UNL     1      -1.013   5.567   1.384  0.00  0.00    -0.085 HD
BRANCH  22  25
ATOM     25  C   UNL     1      -0.581   7.073   2.717  0.00  0.00    -0.026 C 
BRANCH  25  26
ATOM     26  C   UNL     1      -1.387   8.102   1.967  0.00  0.00    +0.024 A 
ATOM     27  C   UNL     1      -2.462   8.713   2.587  0.00  0.00    +0.021 A 
ATOM     28  C   UNL     1      -3.193   9.662   1.891  0.00  0.00    +0.003 A 
ATOM     29  C   UNL     1      -2.822   9.956   0.587  0.00  0.00    +0.020 A 
ATOM     30  C   UNL     1      -1.739   9.301   0.032  0.00  0.00    +0.111 A 
ATOM     31  N   UNL     1      -1.063   8.406   0.726  0.00  0.00    -0.262 NA
ENDBRANCH  25  26
ENDBRANCH  22  25
ENDBRANCH  21  22
ENDBRANCH   4  21
TORSDOF 9
