REMARK  Name = ZINC15974118
REMARK  7 active torsions:
REMARK  status: ('A' for Active; 'I' for Inactive)
REMARK    1  A    between atoms: C_1  and  C_2
REMARK    2  A    between atoms: C_4  and  C_32
REMARK    3  A    between atoms: C_6  and  N_8
REMARK    4  A    between atoms: C_9  and  C_11
REMARK    5  A    between atoms: N_21  and  N_22
REMARK    6  A    between atoms: N_22  and  S_23
REMARK    7  A    between atoms: S_23  and  C_26
REMARK                            x       y       z     vdW  Elec       q    Type
REMARK                         _______ _______ _______ _____ _____    ______ ____
ROOT
ATOM      1  C   UNL     1       0.520  -2.958   4.746  0.00  0.00    +0.099 A 
ATOM      2  C   UNL     1       0.395  -2.247   5.916  0.00  0.00    +0.030 A 
ATOM      3  C   UNL     1       0.059  -2.995   7.133  0.00  0.00    +0.018 A 
ATOM      4  C   UNL     1      -0.346  -2.326   8.293  0.00  0.00    +0.011 A 
ATOM      5  C   UNL     1      -0.659  -3.051   9.423  0.00  0.00    +0.001 A 
ATOM      6  C   UNL     1      -0.576  -4.434   9.414  0.00  0.00    +0.004 A 
ATOM      7  C   UNL     1      -0.177  -5.107   8.275  0.00  0.00    +0.047 A 
ATOM      8  C   UNL     1       0.144  -4.399   7.129  0.00  0.00    +0.137 A 
ATOM      9  O   UNL     1       0.543  -5.046   6.005  0.00  0.00    -0.437 OA
ATOM     10  C   UNL     1       0.298  -4.420   4.815  0.00  0.00    +0.225 A 
ATOM     11  N   UNL     1      -0.114  -5.087   3.774  0.00  0.00    -0.260 N 
ATOM     12  H   UNL     1      -0.221  -4.638   2.921  0.00  0.00    +0.189 HD
ENDROOT
BRANCH   1  14
ATOM     13  N   UNL     1       0.930  -0.947   3.420  0.00  0.00    -0.281 N 
ATOM     14  C   UNL     1       0.854  -2.291   3.476  0.00  0.00    +0.253 C 
ATOM     15  O   UNL     1       1.062  -2.955   2.478  0.00  0.00    -0.270 OA
ATOM     16  H   UNL     1       0.855  -0.422   4.232  0.00  0.00    +0.155 HD
BRANCH  13  22
ATOM     17  C   UNL     1       0.182  -0.819  -1.437  0.00  0.00    +0.044 C 
ATOM     18  C   UNL     1       0.764  -0.224  -0.181  0.00  0.00    -0.048 A 
ATOM     19  C   UNL     1       1.482   0.957  -0.244  0.00  0.00    +0.006 A 
ATOM     20  C   UNL     1       2.017   1.506   0.907  0.00  0.00    -0.048 A 
ATOM     21  C   UNL     1       1.836   0.877   2.123  0.00  0.00    +0.026 A 
ATOM     22  C   UNL     1       1.115  -0.308   2.190  0.00  0.00    +0.034 A 
ATOM     23  C   UNL     1       0.575  -0.855   1.033  0.00  0.00    +0.026 A 
ATOM     24  C   UNL     1       2.799   2.792   0.833  0.00  0.00    +0.044 C 
ENDBRANCH  13  22
ENDBRANCH   1  14
BRANCH  11  25
ATOM     25  N   UNL     1      -0.402  -6.454   3.886  0.00  0.00    -0.157 N 
ATOM     26  H   UNL     1      -0.367  -6.887   4.753  0.00  0.00    +0.194 HD
BRANCH  25  27
ATOM     27  S   UNL     1      -0.803  -7.329   2.539  0.00  0.00    +0.085 S 
ATOM     28  O   UNL     1      -0.771  -8.698   2.920  0.00  0.00    -0.149 OA
ATOM     29  O   UNL     1      -1.962  -6.718   1.988  0.00  0.00    -0.149 OA
BRANCH  27  30
ATOM     30  C   UNL     1       0.492  -7.102   1.366  0.00  0.00    +0.110 A 
ATOM     31  C   UNL     1       0.480  -6.004   0.527  0.00  0.00    +0.029 A 
ATOM     32  C   UNL     1       1.496  -5.826  -0.393  0.00  0.00    +0.002 A 
ATOM     33  C   UNL     1       2.524  -6.746  -0.474  0.00  0.00    +0.000 A 
ATOM     34  C   UNL     1       2.537  -7.845   0.365  0.00  0.00    +0.002 A 
ATOM     35  C   UNL     1       1.523  -8.020   1.288  0.00  0.00    +0.029 A 
ENDBRANCH  27  30
ENDBRANCH  25  27
ENDBRANCH  11  25
TORSDOF 5
