REMARK  Name = ZINC34829670
REMARK  10 active torsions:
REMARK  status: ('A' for Active; 'I' for Inactive)
REMARK    1  A    between atoms: C_1  and  C_2
REMARK    2  A    between atoms: C_2  and  C_3
REMARK    3  A    between atoms: C_3  and  C_5
REMARK    4  A    between atoms: C_3  and  C_11
REMARK    5  A    between atoms: C_18  and  C_20
REMARK    6  A    between atoms: C_21  and  C_23
REMARK    7  A    between atoms: C_23  and  N_24
REMARK    8  A    between atoms: C_32  and  C_34
REMARK    9  A    between atoms: C_37  and  O_40
REMARK   10  A    between atoms: O_40  and  C_41
REMARK                            x       y       z     vdW  Elec       q    Type
REMARK                         _______ _______ _______ _____ _____    ______ ____
ROOT
ATOM      1  C   UNL     1      -1.538  -2.033   0.127  0.00  0.00    +0.223 C 
ATOM      2  O   UNL     1      -2.032  -2.677  -0.773  0.00  0.00    -0.275 OA
ATOM      3  N   UNL     1      -1.083  -2.657   1.232  0.00  0.00    -0.295 N 
ATOM      4  C   UNL     1      -0.590  -1.883   2.380  0.00  0.00    +0.127 C 
ATOM      5  C   UNL     1       0.835  -2.346   2.707  0.00  0.00    +0.126 C 
ATOM      6  N   UNL     1       0.846  -3.813   2.785  0.00  0.00    -0.300 N 
ATOM      7  C   UNL     1       0.353  -4.588   1.638  0.00  0.00    +0.130 C 
ATOM      8  C   UNL     1      -1.077  -4.125   1.312  0.00  0.00    +0.090 C 
ATOM      9  C   UNL     1      -2.033  -4.582   2.417  0.00  0.00    +0.029 C 
ATOM     10  C   UNL     1       1.300  -4.438   3.890  0.00  0.00    +0.199 C 
ATOM     11  O   UNL     1       1.304  -5.650   3.943  0.00  0.00    -0.278 OA
ENDROOT
BRANCH   1  12
ATOM     12  C   UNL     1      -1.431  -0.534   0.012  0.00  0.00    +0.105 C 
BRANCH  12  13
ATOM     13  C   UNL     1      -2.617   0.108   0.685  0.00  0.00    -0.036 A 
ATOM     14  C   UNL     1      -3.897  -0.176   0.247  0.00  0.00    +0.004 A 
ATOM     15  C   UNL     1      -4.985   0.413   0.865  0.00  0.00    +0.000 A 
ATOM     16  C   UNL     1      -4.792   1.284   1.920  0.00  0.00    +0.000 A 
ATOM     17  C   UNL     1      -3.512   1.567   2.359  0.00  0.00    +0.000 A 
ATOM     18  C   UNL     1      -2.425   0.975   1.744  0.00  0.00    +0.004 A 
ENDBRANCH  12  13
BRANCH  12  20
ATOM     19  C   UNL     1      -1.157   1.368  -1.585  0.00  0.00    +0.005 C 
ATOM     20  C   UNL     1      -1.407  -0.137  -1.466  0.00  0.00    +0.014 C 
ENDBRANCH  12  20
ENDBRANCH   1  12
BRANCH  10  21
ATOM     21  C   UNL     1       1.803  -3.631   5.059  0.00  0.00    +0.020 C 
BRANCH  21  22
ATOM     22  N   UNL     1       2.239  -4.538   6.129  0.00  0.00    +0.393 N 
ATOM     23  C   UNL     1       3.375  -5.338   5.652  0.00  0.00    -0.072 C 
ATOM     24  C   UNL     1       3.613  -6.499   6.633  0.00  0.00    +0.024 C 
ATOM     25  C   UNL     1       3.599  -5.931   8.014  0.00  0.00    -0.010 A 
ATOM     26  C   UNL     1       3.162  -4.692   8.375  0.00  0.00    -0.047 A 
ATOM     27  C   UNL     1       3.247  -4.372   9.728  0.00  0.00    +0.010 A 
ATOM     28  C   UNL     1       3.742  -5.275  10.607  0.00  0.00    +0.045 A 
ATOM     29  S   UNL     1       4.121  -6.658   9.541  0.00  0.00    -0.101 S 
ATOM     30  C   UNL     1       2.615  -3.749   7.308  0.00  0.00    -0.005 C 
ATOM     31  H   UNL     1       1.478  -5.155   6.371  0.00  0.00    -0.080 HD
BRANCH  30  32
ATOM     32  C   UNL     1       1.403  -3.029   7.842  0.00  0.00    -0.056 A 
ATOM     33  C   UNL     1       0.179  -3.672   7.878  0.00  0.00    +0.006 A 
ATOM     34  C   UNL     1      -0.933  -3.015   8.367  0.00  0.00    +0.046 A 
ATOM     35  C   UNL     1      -0.822  -1.709   8.822  0.00  0.00    +0.120 A 
ATOM     36  C   UNL     1       0.408  -1.066   8.784  0.00  0.00    +0.046 A 
ATOM     37  C   UNL     1       1.518  -1.730   8.300  0.00  0.00    +0.006 A 
BRANCH  35  38
ATOM     38  O   UNL     1      -1.915  -1.060   9.302  0.00  0.00    -0.495 OA
ATOM     39  C   UNL     1      -1.726   0.283   9.753  0.00  0.00    +0.277 C 
ENDBRANCH  35  38
ENDBRANCH  30  32
ENDBRANCH  21  22
ENDBRANCH  10  21
TORSDOF 7
