REMARK  Name = ZINC33769033
REMARK  10 active torsions:
REMARK  status: ('A' for Active; 'I' for Inactive)
REMARK    1  A    between atoms: C_1  and  C_2
REMARK    2  A    between atoms: C_2  and  O_3
REMARK    3  A    between atoms: O_3  and  C_4
REMARK    4  A    between atoms: C_4  and  C_6
REMARK    5  A    between atoms: C_10  and  N_11
REMARK    6  A    between atoms: C_12  and  C_14
REMARK    7  A    between atoms: C_21  and  C_27
REMARK    8  A    between atoms: C_21  and  C_28
REMARK    9  A    between atoms: C_23  and  C_25
REMARK   10  A    between atoms: C_23  and  C_26
REMARK                            x       y       z     vdW  Elec       q    Type
REMARK                         _______ _______ _______ _____ _____    ______ ____
ROOT
ATOM      1  C   UNL     1       1.316  -0.611  -0.021  0.00  0.00    +0.091 A 
ATOM      2  C   UNL     1       0.002  -0.004   0.002  0.00  0.00    -0.024 A 
ATOM      3  C   UNL     1      -0.016   1.349   0.009  0.00  0.00    -0.016 A 
ATOM      4  S   UNL     1       1.689   1.819  -0.004  0.00  0.00    -0.079 S 
ATOM      5  C   UNL     1       2.414   0.245  -0.027  0.00  0.00    +0.086 A 
ATOM      6  C   UNL     1      -1.229   2.221   0.017  0.00  0.00    -0.041 C 
ATOM      7  N   UNL     1      -2.449   1.451   0.234  0.00  0.00    +0.389 N 
ATOM      8  C   UNL     1      -2.327   0.118   0.799  0.00  0.00    -0.069 C 
ATOM      9  C   UNL     1      -1.327  -0.748   0.024  0.00  0.00    +0.024 C 
ATOM     10  C   UNL     1      -3.701  -0.574   0.729  0.00  0.00    -0.010 C 
ATOM     11  C   UNL     1      -1.906   0.180   2.270  0.00  0.00    -0.010 C 
ATOM     12  C   UNL     1      -1.076   3.295   1.103  0.00  0.00    -0.005 C 
ATOM     13  C   UNL     1      -1.322   2.933  -1.346  0.00  0.00    -0.005 C 
ATOM     14  H   UNL     1      -3.107   1.994   0.929  0.00  0.00    -0.084 HD
ATOM     15  H   UNL     1      -2.967   1.307  -0.725  0.00  0.00    -0.084 HD
ENDROOT
BRANCH   5  16
ATOM     16  N   UNL     1       3.759  -0.084  -0.047  0.00  0.00    -0.275 N 
ATOM     17  C   UNL     1       4.691   0.889  -0.050  0.00  0.00    +0.249 C 
ATOM     18  O   UNL     1       4.351   2.056  -0.035  0.00  0.00    -0.270 OA
ATOM     19  H   UNL     1       4.066  -1.140  -0.061  0.00  0.00    +0.156 HD
BRANCH  17  20
ATOM     20  C   UNL     1       6.126   0.538  -0.072  0.00  0.00    +0.037 A 
ATOM     21  C   UNL     1       6.519  -0.802  -0.084  0.00  0.00    +0.014 A 
ATOM     22  C   UNL     1       7.860  -1.123  -0.111  0.00  0.00    +0.016 A 
ATOM     23  C   UNL     1       8.815  -0.121  -0.113  0.00  0.00    +0.018 A 
ATOM     24  C   UNL     1       8.431   1.210  -0.095  0.00  0.00    +0.016 A 
ATOM     25  C   UNL     1       7.094   1.544  -0.075  0.00  0.00    +0.014 A 
ATOM     26 BR   UNL     1      10.652  -0.570  -0.141  0.00  0.00    -0.050 Br
ENDBRANCH  17  20
ENDBRANCH   5  16
BRANCH   1  27
ATOM     27  C   UNL     1       1.497  -2.064  -0.040  0.00  0.00    +0.342 C 
ATOM     28  O   UNL     1       1.559  -2.655  -1.101  0.00  0.00    -0.245 OA
BRANCH  27  29
ATOM     29  O   UNL     1       1.594  -2.747   1.119  0.00  0.00    -0.461 OA
BRANCH  29  31
ATOM     30  C   UNL     1       1.862  -4.781   2.430  0.00  0.00    +0.048 C 
ATOM     31  C   UNL     1       1.772  -4.185   1.024  0.00  0.00    +0.229 C 
ENDBRANCH  29  31
ENDBRANCH  27  29
ENDBRANCH   1  27
TORSDOF 5
