REMARK  Name = ZINC39652762
REMARK  10 active torsions:
REMARK  status: ('A' for Active; 'I' for Inactive)
REMARK    1  A    between atoms: C_1  and  C_2
REMARK    2  A    between atoms: C_2  and  O_3
REMARK    3  A    between atoms: O_3  and  C_4
REMARK    4  A    between atoms: C_9  and  C_10
REMARK    5  A    between atoms: C_10  and  C_11
REMARK    6  A    between atoms: C_11  and  N_12
REMARK    7  A    between atoms: C_13  and  C_15
REMARK    8  A    between atoms: C_26  and  C_28
REMARK    9  A    between atoms: C_31  and  O_34
REMARK   10  A    between atoms: O_34  and  C_35
REMARK                            x       y       z     vdW  Elec       q    Type
REMARK                         _______ _______ _______ _____ _____    ______ ____
ROOT
ATOM      1  C   UNL     1      -7.485   0.134  -2.561  0.00  0.00    +0.100 C 
ATOM      2  C   UNL     1      -8.859  -0.330  -2.026  0.00  0.00    +0.121 C 
ATOM      3  N   UNL     1      -9.848   0.371  -2.878  0.00  0.00    -0.296 N 
ATOM      4  C   UNL     1      -9.258   0.331  -4.237  0.00  0.00    +0.115 C 
ATOM      5  C   UNL     1      -7.752   0.566  -4.012  0.00  0.00    -0.004 C 
ATOM      6  C   UNL     1      -7.415   2.042  -4.194  0.00  0.00    -0.010 C 
ATOM      7  C   UNL     1      -7.634   2.434  -5.659  0.00  0.00    -0.082 C 
ATOM      8  N   UNL     1      -6.781   1.607  -6.521  0.00  0.00    +0.379 N 
ATOM      9  C   UNL     1      -7.173   0.197  -6.409  0.00  0.00    -0.082 C 
ATOM     10  C   UNL     1      -6.935  -0.289  -4.977  0.00  0.00    -0.010 C 
ATOM     11  C   UNL     1     -11.019   0.922  -2.501  0.00  0.00    +0.248 C 
ATOM     12  O   UNL     1     -11.308   0.990  -1.322  0.00  0.00    -0.270 OA
ATOM     13  H   UNL     1      -6.882   1.908  -7.479  0.00  0.00    -0.086 HD
ATOM     14  H   UNL     1      -5.818   1.711  -6.238  0.00  0.00    -0.086 HD
ENDROOT
BRANCH  11  15
ATOM     15  C   UNL     1     -11.951   1.442  -3.521  0.00  0.00    +0.055 A 
ATOM     16  C   UNL     1     -11.853   1.023  -4.856  0.00  0.00    +0.020 A 
ATOM     17  C   UNL     1     -12.747   1.538  -5.772  0.00  0.00    +0.068 A 
ATOM     18  C   UNL     1     -13.709   2.448  -5.346  0.00  0.00    +0.220 A 
ATOM     19  N   UNL     1     -13.776   2.825  -4.078  0.00  0.00    -0.220 NA
ATOM     20  C   UNL     1     -12.947   2.354  -3.170  0.00  0.00    +0.127 A 
BRANCH  18  21
ATOM     21  O   UNL     1     -14.590   2.957  -6.241  0.00  0.00    -0.438 OA
BRANCH  21  22
ATOM     22  C   UNL     1     -15.576   3.769  -5.775  0.00  0.00    +0.130 A 
ATOM     23  C   UNL     1     -15.302   5.097  -5.482  0.00  0.00    +0.046 A 
ATOM     24  C   UNL     1     -16.306   5.920  -5.009  0.00  0.00    +0.004 A 
ATOM     25  C   UNL     1     -17.582   5.421  -4.828  0.00  0.00    +0.000 A 
ATOM     26  C   UNL     1     -17.858   4.098  -5.119  0.00  0.00    +0.004 A 
ATOM     27  C   UNL     1     -16.859   3.272  -5.598  0.00  0.00    +0.046 A 
ENDBRANCH  21  22
ENDBRANCH  18  21
ENDBRANCH  11  15
BRANCH   1  29
ATOM     28  N   UNL     1      -5.182  -0.750  -2.376  0.00  0.00    -0.315 N 
ATOM     29  C   UNL     1      -6.497  -1.004  -2.525  0.00  0.00    +0.218 C 
ATOM     30  O   UNL     1      -6.886  -2.148  -2.630  0.00  0.00    -0.275 OA
ATOM     31  H   UNL     1      -4.871   0.165  -2.292  0.00  0.00    +0.149 HD
BRANCH  28  32
ATOM     32  C   UNL     1      -4.221  -1.855  -2.341  0.00  0.00    +0.109 C 
BRANCH  32  33
ATOM     33  C   UNL     1      -2.808  -1.298  -2.165  0.00  0.00    +0.057 C 
BRANCH  33  39
ATOM     34  C   UNL     1      -1.322  -2.960  -3.313  0.00  0.00    +0.124 A 
ATOM     35  C   UNL     1      -0.408  -4.003  -3.276  0.00  0.00    +0.046 A 
ATOM     36  C   UNL     1      -0.001  -4.521  -2.062  0.00  0.00    +0.004 A 
ATOM     37  C   UNL     1      -0.503  -4.000  -0.884  0.00  0.00    +0.000 A 
ATOM     38  C   UNL     1      -1.413  -2.960  -0.917  0.00  0.00    +0.007 A 
ATOM     39  C   UNL     1      -1.820  -2.435  -2.129  0.00  0.00    -0.004 A 
BRANCH  34  40
ATOM     40  O   UNL     1      -1.724  -2.449  -4.506  0.00  0.00    -0.492 OA
BRANCH  40  42
ATOM     41  C   UNL     1      -1.736  -2.336  -6.920  0.00  0.00    +0.048 C 
ATOM     42  C   UNL     1      -1.170  -3.038  -5.684  0.00  0.00    +0.225 C 
ENDBRANCH  40  42
ENDBRANCH  34  40
ENDBRANCH  33  39
ENDBRANCH  32  33
ENDBRANCH  28  32
ENDBRANCH   1  29
TORSDOF 9
