REMARK  Name = ZINC08672651
REMARK  6 active torsions:
REMARK  status: ('A' for Active; 'I' for Inactive)
REMARK    1  A    between atoms: C_1  and  C_2
REMARK    2  A    between atoms: C_5  and  C_8
REMARK    3  A    between atoms: C_15  and  N_66
REMARK    4  A    between atoms: C_27  and  N_29
REMARK    5  A    between atoms: N_29  and  S_30
REMARK    6  A    between atoms: S_30  and  C_33
REMARK                            x       y       z     vdW  Elec       q    Type
REMARK                         _______ _______ _______ _____ _____    ______ ____
ROOT
ATOM      1  C   UNL     1      -8.072   2.284   5.203  0.00  0.00    -0.014 C 
ATOM      2  C   UNL     1      -7.871   0.862   5.667  0.00  0.00    -0.051 A 
ATOM      3  C   UNL     1      -7.238   0.278   6.720  0.00  0.00    +0.003 A 
ATOM      4  C   UNL     1      -7.237  -1.111   6.862  0.00  0.00    +0.001 A 
ATOM      5  C   UNL     1      -7.857  -1.937   5.969  0.00  0.00    +0.008 A 
ATOM      6  C   UNL     1      -8.519  -1.369   4.869  0.00  0.00    -0.017 A 
ATOM      7  C   UNL     1      -8.507   0.032   4.746  0.00  0.00    -0.012 A 
ATOM      8  C   UNL     1      -9.129   0.700   3.697  0.00  0.00    -0.022 A 
ATOM      9  C   UNL     1      -9.773  -0.045   2.757  0.00  0.00    +0.006 A 
ATOM     10  C   UNL     1      -9.799  -1.439   2.859  0.00  0.00    +0.001 A 
ATOM     11  C   UNL     1      -9.193  -2.108   3.882  0.00  0.00    +0.008 A 
ATOM     12  C   UNL     1      -8.902   2.178   3.905  0.00  0.00    +0.098 C 
ENDROOT
BRANCH   1  20
ATOM     13  C   UNL     1      -2.706   2.942   4.742  0.00  0.00    +0.246 C 
ATOM     14  O   UNL     1      -2.095   3.047   5.788  0.00  0.00    -0.270 OA
ATOM     15  N   UNL     1      -4.019   3.245   4.696  0.00  0.00    -0.301 N 
ATOM     16  C   UNL     1      -4.805   3.012   3.475  0.00  0.00    +0.089 C 
ATOM     17  C   UNL     1      -6.062   2.213   3.856  0.00  0.00    -0.059 C 
ATOM     18  C   UNL     1      -5.961   2.999   6.149  0.00  0.00    -0.059 C 
ATOM     19  C   UNL     1      -4.702   3.824   5.863  0.00  0.00    +0.089 C 
ATOM     20  N   UNL     1      -6.783   2.946   4.920  0.00  0.00    +0.388 N 
ATOM     21  H   UNL     1      -6.964   3.905   4.599  0.00  0.00    -0.081 HD
BRANCH  13  26
ATOM     22  C   UNL     1       0.003   1.151  -0.008  0.00  0.00    +0.044 C 
ATOM     23  C   UNL     1      -0.707   1.620   1.236  0.00  0.00    -0.050 A 
ATOM     24  C   UNL     1      -1.641   2.638   1.154  0.00  0.00    +0.004 A 
ATOM     25  C   UNL     1      -2.298   3.068   2.288  0.00  0.00    +0.013 A 
ATOM     26  C   UNL     1      -2.010   2.482   3.522  0.00  0.00    +0.037 A 
ATOM     27  C   UNL     1      -1.063   1.460   3.598  0.00  0.00    +0.013 A 
ATOM     28  C   UNL     1      -0.418   1.035   2.456  0.00  0.00    +0.004 A 
ENDBRANCH  13  26
ENDBRANCH   1  20
BRANCH  12  29
ATOM     29  N   UNL     1     -10.182   2.873   4.061  0.00  0.00    -0.184 NA
ATOM     30  H   UNL     1     -10.635   2.867   4.919  0.00  0.00    +0.149 HD
BRANCH  29  31
ATOM     31  S   UNL     1     -10.855   3.669   2.775  0.00  0.00    +0.059 S 
ATOM     32  O   UNL     1     -12.087   4.210   3.231  0.00  0.00    -0.153 OA
ATOM     33  O   UNL     1      -9.829   4.477   2.215  0.00  0.00    -0.153 OA
BRANCH  31  34
ATOM     34  C   UNL     1     -11.256   2.454   1.563  0.00  0.00    +0.105 A 
ATOM     35  C   UNL     1     -10.330   2.110   0.596  0.00  0.00    +0.028 A 
ATOM     36  C   UNL     1     -10.643   1.153  -0.351  0.00  0.00    +0.002 A 
ATOM     37  C   UNL     1     -11.886   0.548  -0.338  0.00  0.00    +0.000 A 
ATOM     38  C   UNL     1     -12.814   0.896   0.626  0.00  0.00    +0.002 A 
ATOM     39  C   UNL     1     -12.499   1.849   1.576  0.00  0.00    +0.028 A 
ENDBRANCH  31  34
ENDBRANCH  29  31
ENDBRANCH  12  29
TORSDOF 5
