REMARK  Name = ZINC26608498
REMARK  5 active torsions:
REMARK  status: ('A' for Active; 'I' for Inactive)
REMARK    1  A    between atoms: C_1  and  C_2
REMARK    2  A    between atoms: C_6  and  C_8
REMARK    3  A    between atoms: C_8  and  N_9
REMARK    4  A    between atoms: C_11  and  C_18
REMARK    5  A    between atoms: C_28  and  C_30
REMARK                            x       y       z     vdW  Elec       q    Type
REMARK                         _______ _______ _______ _____ _____    ______ ____
ROOT
ATOM      1  C   UNL     1       1.481   7.085  -4.340  0.00  0.00    +0.026 C 
ATOM      2  C   UNL     1       2.609   7.822  -4.027  0.00  0.00    +0.081 C 
ATOM      3  C   UNL     1       3.023   8.061  -2.618  0.00  0.00    +0.153 C 
ATOM      4  N   UNL     1       2.173   8.188  -1.632  0.00  0.00    -0.283 NA
ATOM      5  N   UNL     1       4.422   8.136  -2.448  0.00  0.00    -0.152 N 
ATOM      6  C   UNL     1       5.181   8.457  -3.553  0.00  0.00    +0.181 C 
ATOM      7  N   UNL     1       4.766   8.638  -4.781  0.00  0.00    -0.152 NA
ATOM      8  C   UNL     1       3.473   8.409  -5.077  0.00  0.00    +0.273 C 
ATOM      9  O   UNL     1       3.025   8.683  -6.179  0.00  0.00    -0.268 OA
ATOM     10  S   UNL     1       6.821   8.514  -2.880  0.00  0.00    -0.033 S 
ATOM     11  C   UNL     1       6.401   8.075  -1.199  0.00  0.00    +0.131 C 
ATOM     12  N   UNL     1       5.100   7.931  -1.265  0.00  0.00    -0.164 NA
ATOM     13  H   UNL     1       2.538   8.364  -0.610  0.00  0.00    +0.188 HD
ENDROOT
BRANCH   1  16
ATOM     14  N   UNL     1       0.324   5.291  -1.442  0.00  0.00    -0.342 N 
ATOM     15  C   UNL     1       1.308   5.859  -2.167  0.00  0.00    +0.095 A 
ATOM     16  C   UNL     1       0.777   6.403  -3.321  0.00  0.00    +0.001 A 
ATOM     17  C   UNL     1      -0.673   6.128  -3.276  0.00  0.00    +0.007 A 
ATOM     18  C   UNL     1      -0.893   5.426  -2.080  0.00  0.00    +0.050 A 
ATOM     19  C   UNL     1      -2.184   5.019  -1.758  0.00  0.00    +0.026 A 
ATOM     20  C   UNL     1      -3.228   5.304  -2.610  0.00  0.00    +0.002 A 
ATOM     21  C   UNL     1      -3.008   5.994  -3.792  0.00  0.00    +0.001 A 
ATOM     22  C   UNL     1      -1.737   6.413  -4.125  0.00  0.00    +0.010 A 
BRANCH  14  23
ATOM     23  C   UNL     1       0.519   4.616  -0.157  0.00  0.00    +0.157 C 
BRANCH  23  29
ATOM     24  C   UNL     1       3.446   0.653  -1.037  0.00  0.00    +0.044 C 
ATOM     25  C   UNL     1       2.077   1.239  -0.807  0.00  0.00    -0.050 A 
ATOM     26  C   UNL     1       0.965   0.418  -0.805  0.00  0.00    +0.003 A 
ATOM     27  C   UNL     1      -0.291   0.956  -0.599  0.00  0.00    +0.001 A 
ATOM     28  C   UNL     1      -0.435   2.314  -0.385  0.00  0.00    +0.005 A 
ATOM     29  C   UNL     1       0.677   3.135  -0.386  0.00  0.00    -0.028 A 
ATOM     30  C   UNL     1       1.933   2.598  -0.597  0.00  0.00    +0.008 A 
ENDBRANCH  23  29
ENDBRANCH  14  23
ENDBRANCH   1  16
BRANCH  11  31
ATOM     31  C   UNL     1       7.295   7.914  -0.030  0.00  0.00    +0.027 A 
ATOM     32  C   UNL     1       8.669   8.107  -0.168  0.00  0.00    +0.012 A 
ATOM     33  C   UNL     1       9.497   7.960   0.927  0.00  0.00    +0.001 A 
ATOM     34  C   UNL     1       8.967   7.612   2.157  0.00  0.00    +0.001 A 
ATOM     35  C   UNL     1       7.606   7.414   2.300  0.00  0.00    +0.020 A 
ATOM     36  C   UNL     1       6.766   7.563   1.213  0.00  0.00    +0.051 A 
ATOM     37 CL   UNL     1       5.058   7.313   1.394  0.00  0.00    -0.083 Cl
ENDBRANCH  11  31
TORSDOF 4
