REMARK  Name = ZINC34997634
REMARK  11 active torsions:
REMARK  status: ('A' for Active; 'I' for Inactive)
REMARK    1  A    between atoms: C_1  and  C_2
REMARK    2  A    between atoms: C_6  and  C_39
REMARK    3  A    between atoms: C_7  and  N_8
REMARK    4  A    between atoms: N_14  and  C_17
REMARK    5  A    between atoms: C_17  and  C_18
REMARK    6  A    between atoms: C_18  and  N_19
REMARK    7  A    between atoms: N_19  and  C_20
REMARK    8  A    between atoms: C_20  and  C_21
REMARK    9  A    between atoms: C_29  and  C_30
REMARK   10  A    between atoms: C_29  and  C_31
REMARK   11  A    between atoms: C_32  and  C_34
REMARK                            x       y       z     vdW  Elec       q    Type
REMARK                         _______ _______ _______ _____ _____    ______ ____
ROOT
ATOM      1  C   UNL     1       1.329   1.857   7.895  0.00  0.00    -0.059 C 
ENDROOT
BRANCH   1   8
ATOM      2  N   UNL     1      -0.216   0.040   2.185  0.00  0.00    -0.269 N 
ATOM      3  C   UNL     1      -0.304  -0.609   3.363  0.00  0.00    +0.306 C 
ATOM      4  O   UNL     1      -0.308  -1.825   3.388  0.00  0.00    -0.252 OA
ATOM      5  N   UNL     1      -0.386   0.089   4.513  0.00  0.00    -0.289 N 
ATOM      6  C   UNL     1      -0.276   1.556   4.517  0.00  0.00    +0.091 C 
ATOM      7  C   UNL     1       0.762   1.962   5.568  0.00  0.00    -0.059 C 
ATOM      8  N   UNL     1       0.397   1.379   6.865  0.00  0.00    +0.383 N 
ATOM      9  C   UNL     1       0.463  -0.086   6.791  0.00  0.00    -0.059 C 
ATOM     10  C   UNL     1      -0.595  -0.594   5.799  0.00  0.00    +0.091 C 
ATOM     11  H   UNL     1      -0.163   1.009   2.168  0.00  0.00    +0.156 HD
ATOM     12  H   UNL     1      -0.541   1.660   7.108  0.00  0.00    -0.082 HD
BRANCH   2  19
ATOM     13  C   UNL     1       1.732   0.722   0.227  0.00  0.00    +0.045 C 
ATOM     14  C   UNL     1       0.731  -0.383   0.004  0.00  0.00    -0.029 A 
ATOM     15  C   UNL     1       0.746  -1.102  -1.175  0.00  0.00    +0.005 A 
ATOM     16  C   UNL     1      -0.172  -2.116  -1.379  0.00  0.00    +0.001 A 
ATOM     17  C   UNL     1      -1.107  -2.413  -0.405  0.00  0.00    +0.005 A 
ATOM     18  C   UNL     1      -1.127  -1.697   0.776  0.00  0.00    -0.029 A 
ATOM     19  C   UNL     1      -0.203  -0.683   0.987  0.00  0.00    +0.041 A 
ATOM     20  C   UNL     1      -2.148  -2.021   1.837  0.00  0.00    +0.045 C 
ENDBRANCH   2  19
ENDBRANCH   1   8
BRANCH   1  21
ATOM     21  C   UNL     1       0.878   1.351   9.267  0.00  0.00    +0.090 C 
BRANCH  21  22
ATOM     22  N   UNL     1       1.808   1.828  10.293  0.00  0.00    -0.293 N 
ATOM     23  C   UNL     1       2.920   1.121  10.577  0.00  0.00    +0.282 C 
ATOM     24  O   UNL     1       3.643   1.466  11.493  0.00  0.00    -0.267 OA
BRANCH  23  25
ATOM     25  C   UNL     1       3.258  -0.064   9.782  0.00  0.00    +0.189 A 
ATOM     26  C   UNL     1       4.286  -0.928  10.027  0.00  0.00    +0.054 A 
ATOM     27  C   UNL     1       4.238  -1.908   9.024  0.00  0.00    +0.042 A 
ATOM     28  C   UNL     1       3.195  -1.603   8.220  0.00  0.00    +0.196 A 
ATOM     29  O   UNL     1       2.604  -0.494   8.683  0.00  0.00    -0.458 OA
ENDBRANCH  23  25
BRANCH  22  30
ATOM     30  C   UNL     1       1.529   3.074  11.012  0.00  0.00    +0.138 C 
BRANCH  30  31
ATOM     31  C   UNL     1       0.718   2.772  12.245  0.00  0.00    -0.053 C 
ATOM     32  C   UNL     1       1.291   2.607  13.415  0.00  0.00    -0.025 C 
ATOM     33  C   UNL     1       0.441   2.314  14.628  0.00  0.00    +0.031 C 
ATOM     34  C   UNL     1      -1.030   2.184  14.210  0.00  0.00    -0.000 C 
ATOM     35  C   UNL     1      -1.217   1.331  12.943  0.00  0.00    +0.012 C 
ATOM     36  C   UNL     1      -0.795   2.652  12.184  0.00  0.00    +0.022 C 
ATOM     37  C   UNL     1      -1.465   3.390  13.353  0.00  0.00    -0.025 C 
ATOM     38  C   UNL     1      -0.772   4.701  13.731  0.00  0.00    +0.012 C 
ATOM     39  C   UNL     1      -2.982   3.533  13.208  0.00  0.00    +0.012 C 
ENDBRANCH  30  31
ENDBRANCH  22  30
ENDBRANCH  21  22
ENDBRANCH   1  21
TORSDOF 7
