REMARK  Name = ZINC34757345
REMARK  9 active torsions:
REMARK  status: ('A' for Active; 'I' for Inactive)
REMARK    1  A    between atoms: C_1  and  C_2
REMARK    2  A    between atoms: C_5  and  N_8
REMARK    3  A    between atoms: C_9  and  C_11
REMARK    4  A    between atoms: C_11  and  N_12
REMARK    5  A    between atoms: C_25  and  S_27
REMARK    6  A    between atoms: S_27  and  C_28
REMARK    7  A    between atoms: C_28  and  C_29
REMARK    8  A    between atoms: C_29  and  C_30
REMARK    9  A    between atoms: C_29  and  C_31
REMARK                            x       y       z     vdW  Elec       q    Type
REMARK                         _______ _______ _______ _____ _____    ______ ____
ROOT
ATOM      1  N   UNL     1       0.420  -6.846   2.499  0.00  0.00    +0.387 N 
ATOM      2  C   UNL     1       1.661  -6.342   3.101  0.00  0.00    -0.059 C 
ATOM      3  C   UNL     1       1.722  -6.764   4.573  0.00  0.00    +0.088 C 
ATOM      4  N   UNL     1       1.561  -8.225   4.646  0.00  0.00    -0.318 N 
ATOM      5  C   UNL     1       0.430  -8.834   3.930  0.00  0.00    +0.088 C 
ATOM      6  C   UNL     1       0.430  -8.314   2.489  0.00  0.00    -0.059 C 
ATOM      7  C   UNL     1       2.449  -9.003   5.366  0.00  0.00    +0.134 A 
ATOM      8  C   UNL     1       2.160  -9.369   6.710  0.00  0.00    +0.051 A 
ATOM      9  C   UNL     1       0.976  -9.025   7.517  0.00  0.00    -0.025 A 
ATOM     10  C   UNL     1       0.940  -9.496   8.773  0.00  0.00    -0.004 A 
ATOM     11  S   UNL     1       2.449 -10.417   8.966  0.00  0.00    -0.073 S 
ATOM     12  C   UNL     1       3.130 -10.161   7.349  0.00  0.00    +0.115 A 
ATOM     13  N   UNL     1       4.234 -10.535   6.731  0.00  0.00    -0.215 NA
ATOM     14  C   UNL     1       4.453 -10.165   5.476  0.00  0.00    +0.191 A 
ATOM     15  N   UNL     1       3.576  -9.421   4.813  0.00  0.00    -0.206 NA
ATOM     16  C   UNL     1      -0.310  -9.079   9.501  0.00  0.00    +0.043 C 
ATOM     17  C   UNL     1      -0.872  -7.907   8.665  0.00  0.00    +0.010 C 
ATOM     18  C   UNL     1      -0.302  -8.219   7.268  0.00  0.00    +0.037 C 
ATOM     19  H   UNL     1      -0.368  -6.520   3.038  0.00  0.00    -0.081 HD
ENDROOT
BRANCH   1  20
ATOM     20  C   UNL     1       0.309  -6.349   1.121  0.00  0.00    +0.019 C 
BRANCH  20  22
ATOM     21  N   UNL     1       0.059  -4.169  -0.020  0.00  0.00    -0.287 N 
ATOM     22  C   UNL     1       0.175  -4.848   1.138  0.00  0.00    +0.201 C 
ATOM     23  O   UNL     1       0.173  -4.251   2.194  0.00  0.00    -0.278 OA
ATOM     24  H   UNL     1      -0.007  -4.650  -0.860  0.00  0.00    +0.155 HD
BRANCH  21  29
ATOM     25  C   UNL     1      -0.048   1.503   0.016  0.00  0.00    +0.044 C 
ATOM     26  C   UNL     1      -0.020  -0.004   0.006  0.00  0.00    -0.050 A 
ATOM     27  C   UNL     1      -0.606  -0.711   1.040  0.00  0.00    +0.005 A 
ATOM     28  C   UNL     1      -0.582  -2.092   1.034  0.00  0.00    +0.023 A 
ATOM     29  C   UNL     1       0.032  -2.770  -0.012  0.00  0.00    +0.033 A 
ATOM     30  C   UNL     1       0.620  -2.056  -1.048  0.00  0.00    +0.023 A 
ATOM     31  C   UNL     1       0.588  -0.676  -1.038  0.00  0.00    +0.005 A 
ENDBRANCH  21  29
ENDBRANCH  20  22
ENDBRANCH   1  20
BRANCH  14  32
ATOM     32  S   UNL     1       5.935 -10.676   4.672  0.00  0.00    -0.086 S 
BRANCH  32  33
ATOM     33  C   UNL     1       6.803 -11.653   5.929  0.00  0.00    +0.080 C 
BRANCH  33  34
ATOM     34  C   UNL     1       8.125 -12.165   5.354  0.00  0.00    -0.007 C 
ATOM     35  C   UNL     1       9.045 -10.979   5.057  0.00  0.00    +0.008 C 
ATOM     36  C   UNL     1       8.798 -13.091   6.370  0.00  0.00    +0.008 C 
ENDBRANCH  33  34
ENDBRANCH  32  33
ENDBRANCH  14  32
TORSDOF 6
