REMARK  Name = ZINC20922078
REMARK  7 active torsions:
REMARK  status: ('A' for Active; 'I' for Inactive)
REMARK    1  A    between atoms: C_5  and  N_7
REMARK    2  A    between atoms: C_8  and  C_10
REMARK    3  A    between atoms: C_10  and  C_11
REMARK    4  A    between atoms: C_11  and  S_12
REMARK    5  A    between atoms: S_12  and  C_13
REMARK    6  A    between atoms: N_17  and  N_18
REMARK    7  A    between atoms: N_19  and  N_20
REMARK                            x       y       z     vdW  Elec       q    Type
REMARK                         _______ _______ _______ _____ _____    ______ ____
ROOT
ATOM      1  S   UNL     1      -3.178   1.510   0.323  0.00  0.00    -0.084 S 
ENDROOT
BRANCH   1   2
ATOM      2  C   UNL     1      -2.089   1.722  -1.046  0.00  0.00    +0.210 A 
ATOM      3  N   UNL     1      -2.420   2.177  -2.230  0.00  0.00    -0.119 NA
ATOM      4  N   UNL     1      -1.266   2.190  -3.025  0.00  0.00    -0.110 NA
ATOM      5  C   UNL     1      -0.268   1.750  -2.300  0.00  0.00    +0.248 A 
ATOM      6  N   UNL     1      -0.751   1.443  -1.059  0.00  0.00    -0.211 N 
ATOM      7  N   UNL     1       1.049   1.615  -2.719  0.00  0.00    -0.251 N 
ATOM      8  H   UNL     1       1.810   1.230  -2.025  0.00  0.00    +0.169 HD
BRANCH   6   9
ATOM      9  N   UNL     1      -0.023   0.950  -0.013  0.00  0.00    -0.294 N 
ATOM     10  H   UNL     1       1.054   0.761  -0.134  0.00  0.00    +0.163 HD
ATOM     11  H   UNL     1      -0.514   0.742   0.949  0.00  0.00    +0.163 HD
ENDBRANCH   6   9
BRANCH   7  12
ATOM     12  N   UNL     1       1.399   1.960  -3.994  0.00  0.00    -0.254 NA
ATOM     13  H   UNL     1       2.475   1.785  -4.139  0.00  0.00    +0.140 HD
ATOM     14  H   UNL     1       0.828   1.349  -4.708  0.00  0.00    +0.140 HD
ENDBRANCH   7  12
ENDBRANCH   1   2
BRANCH   1  15
ATOM     15  C   UNL     1      -4.789   2.055  -0.309  0.00  0.00    +0.086 C 
BRANCH  15  16
ATOM     16  C   UNL     1      -5.841   1.921   0.794  0.00  0.00    +0.107 C 
BRANCH  16  18
ATOM     17  N   UNL     1      -8.262   2.345   1.070  0.00  0.00    -0.285 N 
ATOM     18  C   UNL     1      -7.179   2.375   0.269  0.00  0.00    +0.218 C 
ATOM     19  O   UNL     1      -7.281   2.766  -0.874  0.00  0.00    -0.275 OA
ATOM     20  H   UNL     1      -8.186   1.921   2.083  0.00  0.00    +0.155 HD
BRANCH  17  25
ATOM     21  C   UNL     1     -11.045   3.220  -1.168  0.00  0.00    +0.002 A 
ATOM     22  C   UNL     1     -11.899   3.858  -0.288  0.00  0.00    +0.001 A 
ATOM     23  C   UNL     1     -11.549   3.996   1.043  0.00  0.00    +0.017 A 
ATOM     24  C   UNL     1     -10.344   3.495   1.496  0.00  0.00    +0.039 A 
ATOM     25  C   UNL     1      -9.484   2.853   0.614  0.00  0.00    +0.047 A 
ATOM     26  C   UNL     1      -9.837   2.721  -0.722  0.00  0.00    +0.024 A 
ATOM     27 BR   UNL     1      -9.865   3.684   3.316  0.00  0.00    -0.048 Br
ENDBRANCH  17  25
ENDBRANCH  16  18
ENDBRANCH  15  16
ENDBRANCH   1  15
TORSDOF 7
