REMARK  Name = ZINC16481165
REMARK  6 active torsions:
REMARK  status: ('A' for Active; 'I' for Inactive)
REMARK    1  A    between atoms: C_1  and  C_2
REMARK    2  A    between atoms: C_2  and  C_4
REMARK    3  A    between atoms: C_2  and  N_47
REMARK    4  A    between atoms: N_6  and  C_7
REMARK    5  A    between atoms: N_17  and  C_20
REMARK    6  A    between atoms: C_25  and  O_26
REMARK                            x       y       z     vdW  Elec       q    Type
REMARK                         _______ _______ _______ _____ _____    ______ ____
ROOT
ATOM      1  C   UNL     1       1.762   1.657  -0.555  0.00  0.00    -0.059 C 
ATOM      2  C   UNL     1       2.613   1.105   0.591  0.00  0.00    +0.086 C 
ATOM      3  N   UNL     1       2.402  -0.345   0.700  0.00  0.00    -0.331 N 
ATOM      4  C   UNL     1       0.987  -0.650   0.953  0.00  0.00    +0.086 C 
ATOM      5  C   UNL     1       0.136  -0.098  -0.193  0.00  0.00    -0.059 C 
ATOM      6  N   UNL     1       0.341   1.363  -0.277  0.00  0.00    +0.389 N 
ATOM      7  H   UNL     1       0.081   1.789   0.620  0.00  0.00    -0.081 HD
ENDROOT
BRANCH   3   8
ATOM      8  C   UNL     1       3.220  -0.898   1.692  0.00  0.00    +0.072 A 
ATOM      9  C   UNL     1       3.925  -0.070   2.553  0.00  0.00    +0.027 A 
ATOM     10  C   UNL     1       4.728  -0.619   3.535  0.00  0.00    +0.002 A 
ATOM     11  C   UNL     1       4.839  -1.991   3.655  0.00  0.00    +0.004 A 
ATOM     12  C   UNL     1       4.144  -2.823   2.797  0.00  0.00    +0.047 A 
ATOM     13  C   UNL     1       3.333  -2.281   1.813  0.00  0.00    +0.138 A 
BRANCH  13  14
ATOM     14  O   UNL     1       2.649  -3.098   0.967  0.00  0.00    -0.505 OA
ATOM     15  H   UNL     1       3.162  -3.389   0.201  0.00  0.00    +0.292 HD
ENDBRANCH  13  14
ENDBRANCH   3   8
BRANCH   6  17
ATOM     16  C   UNL     1      -0.102   1.379  -2.709  0.00  0.00    -0.004 C 
ATOM     17  C   UNL     1      -0.511   1.933  -1.343  0.00  0.00    +0.017 C 
BRANCH  17  18
ATOM     18  C   UNL     1      -0.358   3.432  -1.343  0.00  0.00    +0.203 C 
ATOM     19  O   UNL     1       0.392   3.964  -0.552  0.00  0.00    -0.277 OA
ATOM     20  N   UNL     1      -1.055   4.181  -2.220  0.00  0.00    -0.286 N 
ATOM     21  H   UNL     1      -1.714   3.764  -2.797  0.00  0.00    +0.155 HD
BRANCH  20  22
ATOM     22  C   UNL     1      -0.828   5.560  -2.298  0.00  0.00    +0.047 A 
ATOM     23  C   UNL     1       0.352   6.100  -1.805  0.00  0.00    +0.025 A 
ATOM     24  C   UNL     1       0.574   7.461  -1.883  0.00  0.00    +0.017 A 
ATOM     25  C   UNL     1      -0.380   8.287  -2.452  0.00  0.00    +0.019 A 
ATOM     26  C   UNL     1      -1.557   7.752  -2.944  0.00  0.00    +0.032 A 
ATOM     27  C   UNL     1      -1.782   6.391  -2.873  0.00  0.00    +0.040 A 
ATOM     28 BR   UNL     1      -3.387   5.659  -3.554  0.00  0.00    -0.048 Br
ATOM     29 BR   UNL     1      -0.072  10.150  -2.558  0.00  0.00    -0.050 Br
ENDBRANCH  20  22
ENDBRANCH  17  18
ENDBRANCH   6  17
TORSDOF 5
