REMARK  Name = ZINC43525130
REMARK  9 active torsions:
REMARK  status: ('A' for Active; 'I' for Inactive)
REMARK    1  A    between atoms: C_1  and  C_2
REMARK    2  A    between atoms: C_2  and  C_3
REMARK    3  A    between atoms: C_12  and  C_14
REMARK    4  A    between atoms: C_14  and  N_15
REMARK    5  A    between atoms: C_16  and  C_18
REMARK    6  A    between atoms: N_20  and  C_21
REMARK    7  A    between atoms: C_21  and  C_22
REMARK    8  A    between atoms: C_31  and  C_33
REMARK    9  A    between atoms: C_33  and  C_34
REMARK                            x       y       z     vdW  Elec       q    Type
REMARK                         _______ _______ _______ _____ _____    ______ ____
ROOT
ATOM      1  N   UNL     1       5.166  -2.770  -2.315  0.00  0.00    -0.309 N 
ATOM      2  C   UNL     1       6.172  -3.667  -2.300  0.00  0.00    +0.299 C 
ATOM      3  O   UNL     1       5.934  -4.848  -2.448  0.00  0.00    -0.265 OA
ATOM      4  H   UNL     1       5.356  -1.826  -2.197  0.00  0.00    +0.149 HD
ENDROOT
BRANCH   2   5
ATOM      5  C   UNL     1       7.580  -3.207  -2.102  0.00  0.00    +0.299 C 
ATOM      6  O   UNL     1       7.818  -2.026  -1.955  0.00  0.00    -0.265 OA
ATOM      7  N   UNL     1       8.586  -4.104  -2.088  0.00  0.00    -0.309 N 
ATOM      8  H   UNL     1       8.396  -5.048  -2.206  0.00  0.00    +0.149 HD
BRANCH   7   9
ATOM      9  C   UNL     1       9.967  -3.653  -1.893  0.00  0.00    +0.089 C 
BRANCH   9  10
ATOM     10  C   UNL     1      10.906  -4.861  -1.918  0.00  0.00    -0.051 C 
ATOM     11  C   UNL     1      12.330  -4.403  -1.597  0.00  0.00    -0.010 C 
ATOM     12  C   UNL     1      12.813  -5.134  -0.337  0.00  0.00    -0.013 C 
ATOM     13  C   UNL     1      11.862  -4.788   0.817  0.00  0.00    -0.015 C 
ATOM     14  C   UNL     1      10.444  -5.215   0.432  0.00  0.00    -0.078 C 
ATOM     15  N   UNL     1      10.461  -5.843  -0.926  0.00  0.00    +0.383 N 
ATOM     16  C   UNL     1      11.320  -7.029  -0.954  0.00  0.00    -0.075 C 
ATOM     17  C   UNL     1      12.757  -6.644  -0.602  0.00  0.00    -0.025 C 
ATOM     18  H   UNL     1       9.523  -6.131  -1.161  0.00  0.00    -0.081 HD
BRANCH  17  19
ATOM     19  C   UNL     1      13.197  -7.401   0.652  0.00  0.00    -0.002 C 
ATOM     20  C   UNL     1      13.261  -8.899   0.347  0.00  0.00    +0.004 C 
ENDBRANCH  17  19
ENDBRANCH   9  10
ENDBRANCH   7   9
ENDBRANCH   2   5
BRANCH   1  21
ATOM     21  C   UNL     1       3.786  -3.221  -2.509  0.00  0.00    +0.089 C 
BRANCH  21  29
ATOM     22  C   UNL     1       0.718  -0.497  -1.257  0.00  0.00    -0.025 C 
ATOM     23  C   UNL     1       2.190  -0.080  -1.207  0.00  0.00    -0.075 C 
ATOM     24  N   UNL     1       3.049  -1.266  -1.241  0.00  0.00    +0.383 N 
ATOM     25  C   UNL     1       2.796  -2.120  -0.078  0.00  0.00    -0.078 C 
ATOM     26  C   UNL     1       1.344  -2.605  -0.091  0.00  0.00    -0.015 C 
ATOM     27  C   UNL     1       0.637  -2.028  -1.328  0.00  0.00    -0.013 C 
ATOM     28  C   UNL     1       1.394  -2.495  -2.578  0.00  0.00    -0.010 C 
ATOM     29  C   UNL     1       2.847  -2.013  -2.484  0.00  0.00    -0.051 C 
ATOM     30  H   UNL     1       4.011  -0.964  -1.203  0.00  0.00    -0.081 HD
BRANCH  22  32
ATOM     31  C   UNL     1      -0.019   1.526   0.010  0.00  0.00    +0.004 C 
ATOM     32  C   UNL     1       0.002  -0.004   0.002  0.00  0.00    -0.002 C 
ENDBRANCH  22  32
ENDBRANCH  21  29
ENDBRANCH   1  21
TORSDOF 7
