REMARK  Name = ZINC59170659
REMARK  8 active torsions:
REMARK  status: ('A' for Active; 'I' for Inactive)
REMARK    1  A    between atoms: C_1  and  C_2
REMARK    2  A    between atoms: C_2  and  C_3
REMARK    3  A    between atoms: C_8  and  N_9
REMARK    4  A    between atoms: C_10  and  C_12
REMARK    5  A    between atoms: N_26  and  N_27
REMARK    6  A    between atoms: N_27  and  S_28
REMARK    7  A    between atoms: S_28  and  C_31
REMARK    8  A    between atoms: C_34  and  C_37
REMARK                            x       y       z     vdW  Elec       q    Type
REMARK                         _______ _______ _______ _____ _____    ______ ____
ROOT
ATOM      1  C   UNL     1       4.430  -0.482   1.090  0.00  0.00    +0.099 A 
ATOM      2  C   UNL     1       5.816  -0.451   1.090  0.00  0.00    +0.030 A 
ATOM      3  C   UNL     1       6.473   0.111   2.211  0.00  0.00    +0.026 A 
ATOM      4  C   UNL     1       7.912   0.374   2.178  0.00  0.00    -0.007 A 
ATOM      5  C   UNL     1       8.688   0.066   1.056  0.00  0.00    +0.009 A 
ATOM      6  C   UNL     1      10.027   0.329   1.068  0.00  0.00    +0.001 A 
ATOM      7  C   UNL     1      10.632   0.902   2.184  0.00  0.00    +0.001 A 
ATOM      8  C   UNL     1       9.905   1.215   3.292  0.00  0.00    +0.008 A 
ATOM      9  C   UNL     1       8.524   0.957   3.314  0.00  0.00    -0.017 A 
ATOM     10  C   UNL     1       7.740   1.268   4.441  0.00  0.00    +0.012 A 
ATOM     11  C   UNL     1       6.406   1.008   4.459  0.00  0.00    +0.047 A 
ATOM     12  C   UNL     1       5.756   0.429   3.369  0.00  0.00    +0.138 A 
ATOM     13  O   UNL     1       4.428   0.150   3.441  0.00  0.00    -0.437 OA
ATOM     14  C   UNL     1       3.742   0.115   2.259  0.00  0.00    +0.225 A 
ATOM     15  N   UNL     1       2.529   0.584   2.163  0.00  0.00    -0.260 N 
ATOM     16  H   UNL     1       2.044   0.507   1.327  0.00  0.00    +0.189 HD
ENDROOT
BRANCH   1  18
ATOM     17  N   UNL     1       4.332  -1.657  -1.048  0.00  0.00    -0.281 N 
ATOM     18  C   UNL     1       3.676  -1.077  -0.023  0.00  0.00    +0.253 C 
ATOM     19  O   UNL     1       2.459  -1.046  -0.019  0.00  0.00    -0.270 OA
ATOM     20  H   UNL     1       5.299  -1.610  -1.093  0.00  0.00    +0.155 HD
BRANCH  17  26
ATOM     21  C   UNL     1       4.204  -3.381  -2.734  0.00  0.00    -0.026 A 
ATOM     22  C   UNL     1       3.494  -4.044  -3.715  0.00  0.00    +0.005 A 
ATOM     23  C   UNL     1       2.201  -3.656  -4.016  0.00  0.00    +0.000 A 
ATOM     24  C   UNL     1       1.615  -2.604  -3.337  0.00  0.00    +0.002 A 
ATOM     25  C   UNL     1       2.320  -1.937  -2.354  0.00  0.00    +0.023 A 
ATOM     26  C   UNL     1       3.617  -2.327  -2.046  0.00  0.00    +0.037 A 
BRANCH  21  28
ATOM     27  C   UNL     1       5.613  -4.615  -1.108  0.00  0.00    +0.009 C 
ATOM     28  C   UNL     1       5.613  -3.804  -2.406  0.00  0.00    +0.033 C 
ENDBRANCH  21  28
ENDBRANCH  17  26
ENDBRANCH   1  18
BRANCH  15  29
ATOM     29  N   UNL     1       1.926   1.198   3.269  0.00  0.00    -0.157 N 
ATOM     30  H   UNL     1       2.436   1.342   4.081  0.00  0.00    +0.194 HD
BRANCH  29  31
ATOM     31  S   UNL     1       0.343   1.677   3.188  0.00  0.00    +0.085 S 
ATOM     32  O   UNL     1      -0.053   1.995   4.516  0.00  0.00    -0.149 OA
ATOM     33  O   UNL     1       0.256   2.613   2.123  0.00  0.00    -0.149 OA
BRANCH  31  34
ATOM     34  C   UNL     1      -0.603   0.272   2.703  0.00  0.00    +0.110 A 
ATOM     35  C   UNL     1      -0.744  -0.038   1.363  0.00  0.00    +0.029 A 
ATOM     36  C   UNL     1      -1.486  -1.140   0.983  0.00  0.00    +0.005 A 
ATOM     37  C   UNL     1      -2.086  -1.934   1.943  0.00  0.00    -0.050 A 
ATOM     38  C   UNL     1      -1.944  -1.625   3.283  0.00  0.00    +0.005 A 
ATOM     39  C   UNL     1      -1.199  -0.525   3.663  0.00  0.00    +0.029 A 
ATOM     40  C   UNL     1      -2.896  -3.135   1.528  0.00  0.00    +0.044 C 
ENDBRANCH  31  34
ENDBRANCH  29  31
ENDBRANCH  15  29
TORSDOF 6
