REMARK  Name = ZINC63491760
REMARK  12 active torsions:
REMARK  status: ('A' for Active; 'I' for Inactive)
REMARK    1  A    between atoms: C_1  and  C_2
REMARK    2  A    between atoms: C_2  and  O_3
REMARK    3  A    between atoms: O_3  and  C_4
REMARK    4  A    between atoms: C_8  and  C_10
REMARK    5  A    between atoms: C_25  and  C_27
REMARK    6  A    between atoms: C_27  and  C_28
REMARK    7  A    between atoms: C_32  and  O_37
REMARK    8  A    between atoms: C_33  and  O_34
REMARK    9  A    between atoms: O_34  and  C_35
REMARK   10  A    between atoms: C_35  and  C_36
REMARK   11  A    between atoms: O_37  and  C_38
REMARK   12  A    between atoms: C_38  and  C_39
REMARK                            x       y       z     vdW  Elec       q    Type
REMARK                         _______ _______ _______ _____ _____    ______ ____
ROOT
ATOM      1  C   UNL     1       2.222  -4.257  -3.827  0.00  0.00    +0.133 C 
ATOM      2  C   UNL     1       3.682  -4.573  -3.485  0.00  0.00    +0.131 C 
ATOM      3  C   UNL     1       3.659  -5.780  -2.555  0.00  0.00    -0.035 C 
ATOM      4  C   UNL     1       4.309  -5.418  -1.455  0.00  0.00    -0.001 A 
ATOM      5  C   UNL     1       4.671  -6.167  -0.241  0.00  0.00    +0.010 A 
ATOM      6  C   UNL     1       5.341  -5.470   0.715  0.00  0.00    +0.001 A 
ATOM      7  C   UNL     1       5.682  -4.120   0.587  0.00  0.00    +0.002 A 
ATOM      8  C   UNL     1       5.393  -3.356  -0.497  0.00  0.00    +0.026 A 
ATOM      9  C   UNL     1       4.695  -3.979  -1.572  0.00  0.00    +0.043 A 
ATOM     10  N   UNL     1       4.314  -3.485  -2.737  0.00  0.00    -0.375 N 
ATOM     11  C   UNL     1       2.933  -7.056  -2.902  0.00  0.00    +0.052 C 
ATOM     12  C   UNL     1       1.507  -6.654  -3.321  0.00  0.00    +0.113 C 
ATOM     13  N   UNL     1       1.572  -5.511  -4.239  0.00  0.00    -0.292 N 
ATOM     14  C   UNL     1       1.033  -5.610  -5.470  0.00  0.00    +0.221 C 
ATOM     15  O   UNL     1       1.086  -4.668  -6.232  0.00  0.00    -0.275 OA
ATOM     16  H   UNL     1       4.424  -2.572  -3.047  0.00  0.00    +0.160 HD
ENDROOT
BRANCH   1  21
ATOM     17  C   UNL     1       0.771  -3.939  -0.353  0.00  0.00    +0.121 A 
ATOM     18  C   UNL     1       0.242  -2.656  -0.393  0.00  0.00    +0.045 A 
ATOM     19  C   UNL     1       0.356  -1.899  -1.542  0.00  0.00    +0.004 A 
ATOM     20  C   UNL     1       0.998  -2.417  -2.652  0.00  0.00    +0.006 A 
ATOM     21  C   UNL     1       1.525  -3.695  -2.615  0.00  0.00    -0.021 A 
ATOM     22  C   UNL     1       1.418  -4.454  -1.466  0.00  0.00    +0.051 A 
BRANCH  17  23
ATOM     23  O   UNL     1       0.660  -4.686   0.777  0.00  0.00    -0.492 OA
BRANCH  23  25
ATOM     24  C   UNL     1      -0.045  -5.074   3.056  0.00  0.00    +0.048 C 
ATOM     25  C   UNL     1      -0.020  -4.090   1.885  0.00  0.00    +0.225 C 
ENDBRANCH  23  25
ENDBRANCH  17  23
ENDBRANCH   1  21
BRANCH  14  26
ATOM     26  C   UNL     1       0.366  -6.891  -5.899  0.00  0.00    +0.135 C 
BRANCH  26  27
ATOM     27  C   UNL     1      -0.149  -6.741  -7.308  0.00  0.00    +0.007 A 
ATOM     28  C   UNL     1      -1.462  -6.364  -7.527  0.00  0.00    +0.008 A 
ATOM     29  C   UNL     1      -1.937  -6.226  -8.818  0.00  0.00    +0.004 A 
ATOM     30  C   UNL     1      -1.103  -6.465  -9.895  0.00  0.00    +0.049 A 
ATOM     31  C   UNL     1       0.212  -6.843  -9.681  0.00  0.00    +0.162 A 
ATOM     32  C   UNL     1       0.693  -6.976  -8.382  0.00  0.00    +0.165 A 
BRANCH  32  33
ATOM     33  O   UNL     1       1.985  -7.341  -8.168  0.00  0.00    -0.488 OA
BRANCH  33  34
ATOM     34  C   UNL     1       2.256  -8.741  -8.069  0.00  0.00    +0.226 C 
ATOM     35  C   UNL     1       3.752  -8.955  -7.829  0.00  0.00    +0.048 C 
ENDBRANCH  33  34
ENDBRANCH  32  33
BRANCH  31  36
ATOM     36  O   UNL     1       1.034  -7.078 -10.739  0.00  0.00    -0.489 OA
BRANCH  36  37
ATOM     37  C   UNL     1       0.474  -6.916 -12.044  0.00  0.00    +0.226 C 
ATOM     38  C   UNL     1       1.540  -7.221 -13.098  0.00  0.00    +0.048 C 
ENDBRANCH  36  37
ENDBRANCH  31  36
ENDBRANCH  26  27
ENDBRANCH  14  26
TORSDOF 9
