REMARK  Name = ZINC08843242
REMARK  9 active torsions:
REMARK  status: ('A' for Active; 'I' for Inactive)
REMARK    1  A    between atoms: C_4  and  C_7
REMARK    2  A    between atoms: C_7  and  C_8
REMARK    3  A    between atoms: C_7  and  C_14
REMARK    4  A    between atoms: C_7  and  O_38
REMARK    5  A    between atoms: N_16  and  N_17
REMARK    6  A    between atoms: C_18  and  C_19
REMARK    7  A    between atoms: C_22  and  O_25
REMARK    8  A    between atoms: O_25  and  C_26
REMARK    9  A    between atoms: C_26  and  C_28
REMARK                            x       y       z     vdW  Elec       q    Type
REMARK                         _______ _______ _______ _____ _____    ______ ____
ROOT
ATOM      1  N   UNL     1      -6.210  -1.969  -0.532  0.00  0.00    -0.188 NA
ATOM      2  C   UNL     1      -6.357  -0.698  -0.747  0.00  0.00    +0.138 C 
ENDROOT
BRANCH   2   3
ATOM      3  C   UNL     1      -5.175   0.180  -0.817  0.00  0.00    -0.005 A 
ATOM      4  C   UNL     1      -5.331   1.549  -1.049  0.00  0.00    +0.013 A 
ATOM      5  C   UNL     1      -4.223   2.366  -1.113  0.00  0.00    +0.047 A 
ATOM      6  C   UNL     1      -2.953   1.830  -0.947  0.00  0.00    +0.132 A 
ATOM      7  C   UNL     1      -2.792   0.469  -0.722  0.00  0.00    +0.047 A 
ATOM      8  C   UNL     1      -3.895  -0.355  -0.651  0.00  0.00    +0.013 A 
BRANCH   6   9
ATOM      9  O   UNL     1      -1.863   2.639  -1.011  0.00  0.00    -0.422 OA
BRANCH   9  10
ATOM     10  C   UNL     1      -1.619   3.424   0.058  0.00  0.00    +0.345 C 
ATOM     11  O   UNL     1      -2.301   3.316   1.058  0.00  0.00    -0.245 OA
BRANCH  10  12
ATOM     12  C   UNL     1      -0.523   4.406   0.015  0.00  0.00    +0.067 A 
ATOM     13  C   UNL     1       0.353   4.446  -1.063  0.00  0.00    +0.015 A 
ATOM     14  C   UNL     1       1.382   5.377  -1.103  0.00  0.00    +0.001 A 
ATOM     15  C   UNL     1       1.580   6.271  -0.096  0.00  0.00    +0.008 A 
ATOM     16  C   UNL     1       0.737   6.285   1.027  0.00  0.00    -0.017 A 
ATOM     17  C   UNL     1      -0.330   5.357   1.108  0.00  0.00    -0.004 A 
ATOM     18  C   UNL     1      -1.173   5.366   2.227  0.00  0.00    +0.009 A 
ATOM     19  C   UNL     1      -0.957   6.269   3.224  0.00  0.00    +0.001 A 
ATOM     20  C   UNL     1       0.091   7.184   3.148  0.00  0.00    +0.001 A 
ATOM     21  C   UNL     1       0.929   7.202   2.075  0.00  0.00    +0.008 A 
ENDBRANCH  10  12
ENDBRANCH   9  10
ENDBRANCH   6   9
ENDBRANCH   2   3
BRANCH   1  24
ATOM     22  C   UNL     1      -7.181  -4.123  -0.242  0.00  0.00    +0.273 C 
ATOM     23  O   UNL     1      -6.070  -4.590  -0.098  0.00  0.00    -0.270 OA
ATOM     24  N   UNL     1      -7.334  -2.803  -0.466  0.00  0.00    -0.204 N 
ATOM     25  H   UNL     1      -8.222  -2.431  -0.581  0.00  0.00    +0.177 HD
BRANCH  22  26
ATOM     26  C   UNL     1      -8.389  -5.021  -0.171  0.00  0.00    +0.194 C 
BRANCH  26  30
ATOM     27  C   UNL     1      -9.496  -6.234  -4.114  0.00  0.00    +0.000 A 
ATOM     28  C   UNL     1     -10.456  -6.147  -3.123  0.00  0.00    +0.000 A 
ATOM     29  C   UNL     1     -10.098  -5.755  -1.846  0.00  0.00    +0.007 A 
ATOM     30  C   UNL     1      -8.780  -5.449  -1.562  0.00  0.00    -0.003 A 
ATOM     31  C   UNL     1      -7.822  -5.529  -2.555  0.00  0.00    +0.007 A 
ATOM     32  C   UNL     1      -8.179  -5.927  -3.830  0.00  0.00    +0.000 A 
ENDBRANCH  26  30
BRANCH  26  33
ATOM     33  C   UNL     1      -8.063  -6.238   0.656  0.00  0.00    -0.003 A 
ATOM     34  C   UNL     1      -7.409  -7.310   0.080  0.00  0.00    +0.007 A 
ATOM     35  C   UNL     1      -7.106  -8.424   0.840  0.00  0.00    +0.000 A 
ATOM     36  C   UNL     1      -7.466  -8.470   2.174  0.00  0.00    +0.000 A 
ATOM     37  C   UNL     1      -8.126  -7.400   2.748  0.00  0.00    +0.000 A 
ATOM     38  C   UNL     1      -8.424  -6.284   1.990  0.00  0.00    +0.007 A 
ENDBRANCH  26  33
BRANCH  26  39
ATOM     39  O   UNL     1      -9.474  -4.312   0.432  0.00  0.00    -0.371 OA
ATOM     40  H   UNL     1      -9.293  -4.005   1.331  0.00  0.00    +0.212 HD
ENDBRANCH  26  39
ENDBRANCH  22  26
ENDBRANCH   1  24
TORSDOF 9
