REMARK  Name = ZINC23428719
REMARK  10 active torsions:
REMARK  status: ('A' for Active; 'I' for Inactive)
REMARK    1  A    between atoms: C_1  and  C_2
REMARK    2  A    between atoms: C_2  and  C_4
REMARK    3  A    between atoms: C_2  and  N_12
REMARK    4  A    between atoms: C_7  and  O_10
REMARK    5  A    between atoms: O_10  and  C_11
REMARK    6  A    between atoms: C_18  and  N_21
REMARK    7  A    between atoms: C_23  and  C_26
REMARK    8  A    between atoms: C_26  and  C_27
REMARK    9  A    between atoms: C_26  and  C_28
REMARK   10  A    between atoms: C_26  and  N_29
REMARK                            x       y       z     vdW  Elec       q    Type
REMARK                         _______ _______ _______ _____ _____    ______ ____
ROOT
ATOM      1  N   UNL     1      -4.259  -6.493  -1.025  0.00  0.00    -0.293 N 
ATOM      2  C   UNL     1      -4.910  -5.639  -1.839  0.00  0.00    +0.303 C 
ATOM      3  O   UNL     1      -5.270  -6.005  -2.941  0.00  0.00    -0.253 OA
ATOM      4  N   UNL     1      -5.162  -4.379  -1.432  0.00  0.00    -0.285 N 
ATOM      5  C   UNL     1      -5.772  -3.405  -2.347  0.00  0.00    +0.111 C 
ATOM      6  C   UNL     1      -4.891  -2.153  -2.393  0.00  0.00    +0.046 C 
ATOM      7  C   UNL     1      -4.678  -1.631  -0.970  0.00  0.00    +0.112 C 
ATOM      8  C   UNL     1      -3.961  -2.696  -0.137  0.00  0.00    +0.046 C 
ATOM      9  C   UNL     1      -4.832  -3.954  -0.065  0.00  0.00    +0.111 C 
ATOM     10  H   UNL     1      -4.006  -6.189   0.002  0.00  0.00    +0.151 HD
ENDROOT
BRANCH   7  11
ATOM     11  N   UNL     1      -3.862  -0.415  -1.013  0.00  0.00    -0.248 N 
ATOM     12  C   UNL     1      -2.510  -0.367  -1.046  0.00  0.00    +0.132 A 
ATOM     13  C   UNL     1      -2.180   0.945  -1.080  0.00  0.00    +0.071 A 
ATOM     14  N   UNL     1      -3.330   1.627  -1.061  0.00  0.00    -0.136 NA
ATOM     15  N   UNL     1      -4.309   0.792  -1.027  0.00  0.00    -0.065 NA
BRANCH  13  16
ATOM     16  C   UNL     1      -0.789   1.524  -1.124  0.00  0.00    -0.030 C 
ATOM     17  C   UNL     1      -0.868   3.048  -1.027  0.00  0.00    -0.004 C 
ATOM     18  C   UNL     1      -0.114   1.130  -2.439  0.00  0.00    -0.004 C 
BRANCH  16  19
ATOM     19  N   UNL     1      -0.005   1.001   0.004  0.00  0.00    +0.385 N 
ATOM     20  H   UNL     1       1.010   1.424  -0.029  0.00  0.00    -0.089 HD
ATOM     21  H   UNL     1       0.051  -0.095  -0.066  0.00  0.00    -0.089 HD
ATOM     22  H   UNL     1      -0.490   1.284   0.950  0.00  0.00    -0.089 HD
ENDBRANCH  16  19
ENDBRANCH  13  16
ENDBRANCH   7  11
BRANCH   1  24
ATOM     23  C   UNL     1      -5.066  -8.782  -1.324  0.00  0.00    +0.033 C 
ATOM     24  C   UNL     1      -3.886  -7.825  -1.507  0.00  0.00    +0.102 C 
BRANCH  24  25
ATOM     25  C   UNL     1      -2.703  -8.331  -0.723  0.00  0.00    -0.027 A 
ATOM     26  C   UNL     1      -2.628  -8.100   0.639  0.00  0.00    +0.009 A 
ATOM     27  C   UNL     1      -1.548  -8.568   1.361  0.00  0.00    +0.046 A 
ATOM     28  C   UNL     1      -0.531  -9.259   0.718  0.00  0.00    +0.120 A 
ATOM     29  C   UNL     1      -0.606  -9.484  -0.649  0.00  0.00    +0.046 A 
ATOM     30  C   UNL     1      -1.692  -9.020  -1.366  0.00  0.00    +0.009 A 
BRANCH  28  31
ATOM     31  O   UNL     1       0.536  -9.714   1.425  0.00  0.00    -0.495 OA
ATOM     32  C   UNL     1       0.546  -9.446   2.829  0.00  0.00    +0.277 C 
ENDBRANCH  28  31
ENDBRANCH  24  25
ENDBRANCH   1  24
TORSDOF 6
