REMARK  Name = ZINC28851896
REMARK  10 active torsions:
REMARK  status: ('A' for Active; 'I' for Inactive)
REMARK    1  A    between atoms: C_1  and  C_2
REMARK    2  A    between atoms: C_2  and  C_3
REMARK    3  A    between atoms: C_3  and  C_4
REMARK    4  A    between atoms: C_4  and  N_5
REMARK    5  A    between atoms: N_5  and  C_6
REMARK    6  A    between atoms: N_5  and  C_7
REMARK    7  A    between atoms: C_7  and  C_8
REMARK    8  A    between atoms: C_8  and  C_9
REMARK    9  A    between atoms: N_11  and  C_12
REMARK   10  A    between atoms: C_13  and  C_21
REMARK                            x       y       z     vdW  Elec       q    Type
REMARK                         _______ _______ _______ _____ _____    ______ ____
ROOT
ATOM      1  C   UNL     1       2.354   1.221  -0.014  0.00  0.00    +0.084 A 
ATOM      2  C   UNL     1       3.637   1.749  -0.029  0.00  0.00    +0.068 A 
ATOM      3  C   UNL     1       4.748   0.813  -0.039  0.00  0.00    -0.023 A 
ATOM      4  C   UNL     1       4.401  -0.492  -0.044  0.00  0.00    -0.004 A 
ATOM      5  S   UNL     1       2.630  -0.489  -0.026  0.00  0.00    -0.077 S 
ATOM      6  C   UNL     1       5.323  -1.672  -0.060  0.00  0.00    +0.043 C 
ATOM      7  C   UNL     1       6.726  -1.184  -0.449  0.00  0.00    +0.005 C 
ATOM      8  C   UNL     1       7.070   0.049   0.392  0.00  0.00    +0.005 C 
ATOM      9  C   UNL     1       6.212   1.236  -0.050  0.00  0.00    +0.037 C 
ENDROOT
BRANCH   2  10
ATOM     10  C   UNL     1       3.863   3.198  -0.031  0.00  0.00    +0.244 C 
ATOM     11  O   UNL     1       3.970   3.799   1.023  0.00  0.00    -0.270 OA
ATOM     12  N   UNL     1       3.952   3.865  -1.199  0.00  0.00    -0.325 N 
ATOM     13  H   UNL     1       4.122   4.952  -1.200  0.00  0.00    +0.145 HD
ATOM     14  H   UNL     1       3.856   3.322  -2.151  0.00  0.00    +0.145 HD
ENDBRANCH   2  10
BRANCH   1  17
ATOM     15  C   UNL     1      -0.014   1.209   0.009  0.00  0.00    +0.216 C 
ATOM     16  O   UNL     1       0.002  -0.004   0.002  0.00  0.00    -0.276 OA
ATOM     17  N   UNL     1       1.143   1.898   0.001  0.00  0.00    -0.279 N 
ATOM     18  H   UNL     1       1.129   2.998   0.007  0.00  0.00    +0.155 HD
BRANCH  15  19
ATOM     19  C   UNL     1      -1.330   1.944   0.019  0.00  0.00    +0.077 C 
BRANCH  19  20
ATOM     20  C   UNL     1      -2.479   0.934   0.019  0.00  0.00    -0.070 C 
BRANCH  20  21
ATOM     21  N   UNL     1      -3.761   1.651   0.029  0.00  0.00    +0.378 N 
ATOM     22  C   UNL     1      -3.954   2.401  -1.220  0.00  0.00    -0.096 C 
ATOM     23  H   UNL     1      -3.737   2.375   0.857  0.00  0.00    -0.082 HD
BRANCH  21  24
ATOM     24  C   UNL     1      -4.879   0.729   0.267  0.00  0.00    -0.079 C 
BRANCH  24  25
ATOM     25  C   UNL     1      -6.157   1.530   0.519  0.00  0.00    -0.019 C 
BRANCH  25  27
ATOM     26  C   UNL     1      -8.600   1.370   1.018  0.00  0.00    +0.004 C 
ATOM     27  C   UNL     1      -7.321   0.569   0.767  0.00  0.00    -0.005 C 
ENDBRANCH  25  27
ENDBRANCH  24  25
ENDBRANCH  21  24
ENDBRANCH  20  21
ENDBRANCH  19  20
ENDBRANCH  15  19
ENDBRANCH   1  17
TORSDOF 8
