REMARK  Name = ZINC19219276
REMARK  7 active torsions:
REMARK  status: ('A' for Active; 'I' for Inactive)
REMARK    1  A    between atoms: C_1  and  C_2
REMARK    2  A    between atoms: C_8  and  O_33
REMARK    3  A    between atoms: N_15  and  C_18
REMARK    4  A    between atoms: C_18  and  C_19
REMARK    5  A    between atoms: C_19  and  C_21
REMARK    6  A    between atoms: C_19  and  O_32
REMARK    7  A    between atoms: C_28  and  C_31
REMARK                            x       y       z     vdW  Elec       q    Type
REMARK                         _______ _______ _______ _____ _____    ______ ____
ROOT
ATOM      1  C   UNL     1      -4.632  -5.821   3.967  0.00  0.00    +0.044 C 
ATOM      2  C   UNL     1      -3.513  -5.009   3.369  0.00  0.00    -0.050 A 
ATOM      3  C   UNL     1      -2.926  -3.994   4.102  0.00  0.00    +0.007 A 
ATOM      4  C   UNL     1      -1.899  -3.254   3.554  0.00  0.00    +0.046 A 
ATOM      5  C   UNL     1      -1.452  -3.523   2.264  0.00  0.00    +0.127 A 
ATOM      6  C   UNL     1      -2.045  -4.535   1.530  0.00  0.00    +0.023 A 
ATOM      7  C   UNL     1      -3.074  -5.278   2.087  0.00  0.00    +0.013 A 
ATOM      8  C   UNL     1      -1.603  -4.850   0.124  0.00  0.00    +0.152 C 
ATOM      9  C   UNL     1      -0.219  -4.246  -0.130  0.00  0.00    +0.084 C 
ATOM     10  C   UNL     1      -0.232  -2.791   0.349  0.00  0.00    +0.110 C 
ATOM     11  O   UNL     1      -0.435  -2.776   1.761  0.00  0.00    -0.485 OA
ATOM     12  C   UNL     1      -1.365  -2.034  -0.345  0.00  0.00    +0.029 C 
ATOM     13  C   UNL     1      -1.333  -0.566   0.089  0.00  0.00    -0.075 C 
ATOM     14  N   UNL     1      -0.035   0.022  -0.264  0.00  0.00    +0.382 N 
ATOM     15  C   UNL     1       1.064  -0.659   0.434  0.00  0.00    -0.075 C 
ATOM     16  C   UNL     1       1.105  -2.129   0.010  0.00  0.00    +0.029 C 
ATOM     17  H   UNL     1       0.115  -0.121  -1.344  0.00  0.00    -0.082 HD
ENDROOT
BRANCH   8  18
ATOM     18  O   UNL     1      -1.542  -6.267  -0.049  0.00  0.00    -0.387 OA
ATOM     19  H   UNL     1      -1.236  -6.690  -1.017  0.00  0.00    +0.210 HD
ENDBRANCH   8  18
BRANCH  14  20
ATOM     20  C   UNL     1      -0.018   1.465   0.010  0.00  0.00    -0.042 C 
BRANCH  20  21
ATOM     21  C   UNL     1       1.377   2.023  -0.280  0.00  0.00    +0.128 C 
BRANCH  21  22
ATOM     22  C   UNL     1       1.386   3.509  -0.028  0.00  0.00    -0.020 A 
ATOM     23  C   UNL     1       0.885   4.377  -0.981  0.00  0.00    +0.009 A 
ATOM     24  C   UNL     1       0.889   5.738  -0.755  0.00  0.00    +0.046 A 
ATOM     25  C   UNL     1       1.410   6.250   0.431  0.00  0.00    +0.124 A 
ATOM     26  C   UNL     1       1.909   5.368   1.381  0.00  0.00    -0.002 A 
ATOM     27  C   UNL     1       1.901   4.009   1.154  0.00  0.00    +0.013 A 
ATOM     28  C   UNL     1       2.385   6.201   2.555  0.00  0.00    +0.083 C 
ATOM     29  C   UNL     1       1.710   7.565   2.273  0.00  0.00    +0.175 C 
ATOM     30  O   UNL     1       1.528   7.541   0.847  0.00  0.00    -0.488 OA
ATOM     31  C   UNL     1       0.362   7.661   2.990  0.00  0.00    +0.052 C 
ENDBRANCH  21  22
BRANCH  21  32
ATOM     32  O   UNL     1       1.717   1.769  -1.645  0.00  0.00    -0.389 OA
ATOM     33  H   UNL     1       2.689   2.100  -2.040  0.00  0.00    +0.210 HD
ENDBRANCH  21  32
ENDBRANCH  20  21
ENDBRANCH  14  20
TORSDOF 5
