REMARK  Name = ZINC31160312
REMARK  12 active torsions:
REMARK  status: ('A' for Active; 'I' for Inactive)
REMARK    1  A    between atoms: C_3  and  O_18
REMARK    2  A    between atoms: C_4  and  O_17
REMARK    3  A    between atoms: C_6  and  C_7
REMARK    4  A    between atoms: C_8  and  C_9
REMARK    5  A    between atoms: C_11  and  O_16
REMARK    6  A    between atoms: C_13  and  O_15
REMARK    7  A    between atoms: O_18  and  C_19
REMARK    8  A    between atoms: C_21  and  O_34
REMARK    9  A    between atoms: C_23  and  O_33
REMARK   10  A    between atoms: C_25  and  O_32
REMARK   11  A    between atoms: C_27  and  C_30
REMARK   12  A    between atoms: C_30  and  O_31
REMARK                            x       y       z     vdW  Elec       q    Type
REMARK                         _______ _______ _______ _____ _____    ______ ____
ROOT
ATOM      1  C   UNL     1      -0.017   1.393   0.010  0.00  0.00    +0.012 A 
ATOM      2  C   UNL     1       1.168   2.099   0.002  0.00  0.00    +0.050 A 
ATOM      3  C   UNL     1       2.380   1.425  -0.013  0.00  0.00    +0.165 A 
ATOM      4  C   UNL     1       2.407   0.031  -0.021  0.00  0.00    +0.159 A 
ATOM      5  C   UNL     1       1.224  -0.683  -0.014  0.00  0.00    +0.057 A 
ATOM      6  C   UNL     1       0.002  -0.004   0.002  0.00  0.00    -0.021 A 
ENDROOT
BRANCH   6   7
ATOM      7  C   UNL     1      -1.263  -0.760   0.011  0.00  0.00    +0.008 C 
ATOM      8  C   UNL     1      -2.435  -0.106   0.026  0.00  0.00    +0.009 C 
BRANCH   8   9
ATOM      9  C   UNL     1      -3.700  -0.863   0.034  0.00  0.00    -0.018 A 
ATOM     10  C   UNL     1      -3.682  -2.259   0.032  0.00  0.00    +0.053 A 
ATOM     11  C   UNL     1      -4.873  -2.965   0.041  0.00  0.00    +0.121 A 
ATOM     12  C   UNL     1      -6.084  -2.287   0.051  0.00  0.00    +0.090 A 
ATOM     13  C   UNL     1      -6.108  -0.900   0.052  0.00  0.00    +0.121 A 
ATOM     14  C   UNL     1      -4.922  -0.185   0.050  0.00  0.00    +0.053 A 
BRANCH  13  15
ATOM     15  O   UNL     1      -7.297  -0.241   0.061  0.00  0.00    -0.507 OA
ATOM     16  H   UNL     1      -7.634  -0.052   0.947  0.00  0.00    +0.292 HD
ENDBRANCH  13  15
BRANCH  11  17
ATOM     17  O   UNL     1      -4.857  -4.324   0.039  0.00  0.00    -0.507 OA
ATOM     18  H   UNL     1      -4.845  -4.718   0.922  0.00  0.00    +0.292 HD
ENDBRANCH  11  17
ENDBRANCH   8   9
ENDBRANCH   6   7
BRANCH   4  19
ATOM     19  O   UNL     1       3.598  -0.626  -0.036  0.00  0.00    -0.503 OA
ATOM     20  H   UNL     1       3.951  -0.821   0.843  0.00  0.00    +0.292 HD
ENDBRANCH   4  19
BRANCH   3  21
ATOM     21  O   UNL     1       3.545   2.125  -0.021  0.00  0.00    -0.457 OA
BRANCH  21  22
ATOM     22  C   UNL     1       3.446   3.550  -0.013  0.00  0.00    +0.339 C 
ATOM     23  C   UNL     1       4.845   4.160   0.102  0.00  0.00    +0.214 C 
ATOM     24  C   UNL     1       4.735   5.687   0.050  0.00  0.00    +0.180 C 
ATOM     25  C   UNL     1       4.029   6.092  -1.248  0.00  0.00    +0.177 C 
ATOM     26  C   UNL     1       2.660   5.408  -1.310  0.00  0.00    +0.179 C 
ATOM     27  O   UNL     1       2.833   3.992  -1.226  0.00  0.00    -0.331 OA
BRANCH  25  28
ATOM     28  O   UNL     1       3.857   7.511  -1.275  0.00  0.00    -0.386 OA
ATOM     29  H   UNL     1       4.685   8.008  -1.234  0.00  0.00    +0.210 HD
ENDBRANCH  25  28
BRANCH  24  30
ATOM     30  O   UNL     1       6.042   6.262   0.084  0.00  0.00    -0.386 OA
ATOM     31  H   UNL     1       6.549   6.040   0.877  0.00  0.00    +0.210 HD
ENDBRANCH  24  30
BRANCH  23  32
ATOM     32  O   UNL     1       5.438   3.765   1.341  0.00  0.00    -0.383 OA
ATOM     33  H   UNL     1       5.534   2.808   1.444  0.00  0.00    +0.210 HD
ENDBRANCH  23  32
BRANCH  26  34
ATOM     34  C   UNL     1       1.974   5.761  -2.631  0.00  0.00    +0.190 C 
BRANCH  34  35
ATOM     35  O   UNL     1       0.651   5.219  -2.640  0.00  0.00    -0.392 OA
ATOM     36  H   UNL     1       0.156   5.404  -3.450  0.00  0.00    +0.210 HD
ENDBRANCH  34  35
ENDBRANCH  26  34
ENDBRANCH  21  22
ENDBRANCH   3  21
TORSDOF 12
