REMARK  Name = ZINC09357826
REMARK  7 active torsions:
REMARK  status: ('A' for Active; 'I' for Inactive)
REMARK    1  A    between atoms: C_1  and  O_2
REMARK    2  A    between atoms: O_2  and  C_3
REMARK    3  A    between atoms: C_3  and  C_5
REMARK    4  A    between atoms: C_5  and  C_35
REMARK    5  A    between atoms: C_6  and  C_28
REMARK    6  A    between atoms: C_8  and  C_20
REMARK    7  A    between atoms: C_20  and  C_22
REMARK                            x       y       z     vdW  Elec       q    Type
REMARK                         _______ _______ _______ _____ _____    ______ ____
ROOT
ATOM      1  C   UNL     1      -3.369   1.331   1.269  0.00  0.00    +0.183 C 
ATOM      2  C   UNL     1      -2.514   0.979   0.019  0.00  0.00    +0.078 C 
ATOM      3  C   UNL     1      -3.435   1.440  -1.138  0.00  0.00    +0.138 C 
ATOM      4  C   UNL     1      -4.791   0.993   0.791  0.00  0.00    +0.119 C 
ATOM      5  C   UNL     1      -5.805   1.936   1.383  0.00  0.00    -0.019 A 
ATOM      6  C   UNL     1      -5.671   2.414   2.666  0.00  0.00    +0.006 A 
ATOM      7  C   UNL     1      -6.614   3.288   3.181  0.00  0.00    +0.000 A 
ATOM      8  C   UNL     1      -7.692   3.685   2.409  0.00  0.00    +0.001 A 
ATOM      9  C   UNL     1      -7.839   3.211   1.122  0.00  0.00    +0.008 A 
ATOM     10  C   UNL     1      -6.895   2.328   0.596  0.00  0.00    -0.019 A 
ATOM     11  C   UNL     1      -7.046   1.811  -0.780  0.00  0.00    +0.022 C 
ATOM     12  C   UNL     1      -5.980   1.267  -1.402  0.00  0.00    +0.054 C 
ATOM     13  N   UNL     1      -4.730   0.871  -0.645  0.00  0.00    -0.383 NA
ATOM     14  H   UNL     1      -4.655  -0.139  -0.814  0.00  0.00    +0.127 HD
ENDROOT
BRANCH   2  15
ATOM     15  C   UNL     1      -1.219   1.751   0.017  0.00  0.00    -0.040 A 
ATOM     16  C   UNL     1      -1.236   3.129   0.123  0.00  0.00    +0.005 A 
ATOM     17  C   UNL     1      -0.049   3.836   0.127  0.00  0.00    +0.015 A 
ATOM     18  C   UNL     1       1.156   3.166   0.020  0.00  0.00    +0.018 A 
ATOM     19  C   UNL     1       1.173   1.787  -0.091  0.00  0.00    +0.015 A 
ATOM     20  C   UNL     1      -0.015   1.080  -0.095  0.00  0.00    +0.005 A 
ATOM     21 BR   UNL     1       2.781   4.133   0.026  0.00  0.00    -0.050 Br
ENDBRANCH   2  15
BRANCH   1  22
ATOM     22  C   UNL     1      -2.978   0.475   2.446  0.00  0.00    +0.330 C 
ATOM     23  O   UNL     1      -2.103  -0.349   2.330  0.00  0.00    -0.249 OA
BRANCH  22  25
ATOM     24  C   UNL     1      -3.176  -0.231   4.714  0.00  0.00    +0.280 C 
ATOM     25  O   UNL     1      -3.604   0.628   3.624  0.00  0.00    -0.467 OA
ENDBRANCH  22  25
ENDBRANCH   1  22
BRANCH   3  26
ATOM     26  C   UNL     1      -3.215   2.903  -1.426  0.00  0.00    +0.182 C 
ATOM     27  O   UNL     1      -3.988   3.730  -0.990  0.00  0.00    -0.290 OA
BRANCH  26  28
ATOM     28  C   UNL     1      -2.063   3.328  -2.236  0.00  0.00    +0.019 A 
ATOM     29  C   UNL     1      -1.166   2.379  -2.736  0.00  0.00    +0.011 A 
ATOM     30  C   UNL     1      -0.091   2.785  -3.498  0.00  0.00    +0.001 A 
ATOM     31  C   UNL     1       0.107   4.129  -3.760  0.00  0.00    +0.000 A 
ATOM     32  C   UNL     1      -0.773   5.075  -3.265  0.00  0.00    +0.001 A 
ATOM     33  C   UNL     1      -1.855   4.685  -2.506  0.00  0.00    +0.011 A 
ENDBRANCH  26  28
ENDBRANCH   3  26
BRANCH   1  34
ATOM     34  C   UNL     1      -3.252   2.761   1.600  0.00  0.00    +0.084 C 
ATOM     35  N   UNL     1      -3.161   3.864   1.855  0.00  0.00    -0.195 NA
ENDBRANCH   1  34
TORSDOF 6
