REMARK  Name = ZINC49596346
REMARK  6 active torsions:
REMARK  status: ('A' for Active; 'I' for Inactive)
REMARK    1  A    between atoms: C_1  and  O_2
REMARK    2  A    between atoms: O_2  and  C_3
REMARK    3  A    between atoms: C_5  and  C_19
REMARK    4  A    between atoms: C_8  and  O_9
REMARK    5  A    between atoms: O_9  and  C_10
REMARK    6  A    between atoms: C_10  and  C_11
REMARK                            x       y       z     vdW  Elec       q    Type
REMARK                         _______ _______ _______ _____ _____    ______ ____
ROOT
ATOM      1  C   UNL     1      -1.201  -0.638   0.010  0.00  0.00    +0.162 A 
ATOM      2  C   UNL     1      -2.370   0.099   0.019  0.00  0.00    +0.060 A 
ATOM      3  C   UNL     1      -3.604  -0.555   0.028  0.00  0.00    +0.016 A 
ATOM      4  C   UNL     1      -3.651  -1.951   0.027  0.00  0.00    +0.015 A 
ATOM      5  C   UNL     1      -2.482  -2.680   0.018  0.00  0.00    +0.050 A 
ATOM      6  C   UNL     1      -1.255  -2.031   0.003  0.00  0.00    +0.162 A 
ENDROOT
BRANCH   3   7
ATOM      7  C   UNL     1      -4.857   0.228   0.038  0.00  0.00    +0.094 C 
ATOM      8  N   UNL     1      -6.034  -0.398   0.046  0.00  0.00    -0.387 N 
ATOM      9  N   UNL     1      -4.810   1.559   0.040  0.00  0.00    -0.345 N 
ATOM     10  H   UNL     1      -6.067  -1.367   0.045  0.00  0.00    +0.157 HD
ATOM     11  H   UNL     1      -3.954   2.015   0.034  0.00  0.00    +0.144 HD
ATOM     12  H   UNL     1      -5.633   2.073   0.047  0.00  0.00    +0.144 HD
ATOM     13  H   UNL     1      -6.856   0.116   0.053  0.00  0.00    +0.157 HD
ENDBRANCH   3   7
BRANCH   1  15
ATOM     14  C   UNL     1      -0.017   1.425   0.010  0.00  0.00    +0.277 C 
ATOM     15  O   UNL     1       0.002  -0.004   0.002  0.00  0.00    -0.491 OA
ENDBRANCH   1  15
BRANCH   6  16
ATOM     16  O   UNL     1      -0.106  -2.754  -0.012  0.00  0.00    -0.484 OA
BRANCH  16  17
ATOM     17  C   UNL     1      -0.234  -4.177  -0.019  0.00  0.00    +0.264 C 
BRANCH  17  18
ATOM     18  C   UNL     1       1.136  -4.805  -0.036  0.00  0.00    -0.009 A 
ATOM     19  C   UNL     1       1.754  -5.081  -1.241  0.00  0.00    +0.010 A 
ATOM     20  C   UNL     1       3.010  -5.657  -1.258  0.00  0.00    +0.040 A 
ATOM     21  C   UNL     1       3.650  -5.957  -0.068  0.00  0.00    +0.137 A 
ATOM     22  C   UNL     1       3.030  -5.680   1.139  0.00  0.00    +0.053 A 
ATOM     23  C   UNL     1       1.775  -5.099   1.154  0.00  0.00    +0.025 A 
ATOM     24 BR   UNL     1       3.902  -6.089   2.767  0.00  0.00    -0.047 Br
ATOM     25  F   UNL     1       4.878  -6.520  -0.084  0.00  0.00    -0.204 F 
ENDBRANCH  17  18
ENDBRANCH  16  17
ENDBRANCH   6  16
TORSDOF 5
