REMARK  Name = ZINC11786028
REMARK  12 active torsions:
REMARK  status: ('A' for Active; 'I' for Inactive)
REMARK    1  A    between atoms: C_1  and  C_2
REMARK    2  A    between atoms: C_6  and  C_9
REMARK    3  A    between atoms: C_7  and  C_8
REMARK    4  A    between atoms: N_11  and  C_12
REMARK    5  A    between atoms: C_16  and  C_25
REMARK    6  A    between atoms: C_20  and  C_21
REMARK    7  A    between atoms: C_21  and  O_23
REMARK    8  A    between atoms: O_23  and  C_24
REMARK    9  A    between atoms: C_25  and  N_64
REMARK   10  A    between atoms: C_30  and  C_32
REMARK   11  A    between atoms: C_32  and  O_34
REMARK   12  A    between atoms: O_34  and  C_35
REMARK                            x       y       z     vdW  Elec       q    Type
REMARK                         _______ _______ _______ _____ _____    ______ ____
ROOT
ATOM      1  C   UNL     1       4.261   0.173   2.099  0.00  0.00    +0.064 A 
ATOM      2  C   UNL     1       2.954  -0.128   2.660  0.00  0.00    +0.030 A 
ATOM      3  C   UNL     1       2.091   0.720   3.400  0.00  0.00    +0.014 A 
ATOM      4  C   UNL     1       0.887   0.225   3.841  0.00  0.00    +0.022 A 
ATOM      5  C   UNL     1       0.524  -1.085   3.565  0.00  0.00    +0.026 A 
ATOM      6  N   UNL     1       1.329  -1.871   2.877  0.00  0.00    -0.246 NA
ATOM      7  C   UNL     1       2.491  -1.444   2.434  0.00  0.00    +0.111 A 
ATOM      8  S   UNL     1       3.798  -2.201   1.500  0.00  0.00    -0.060 S 
ATOM      9  C   UNL     1       4.922  -0.821   1.411  0.00  0.00    +0.120 A 
ENDROOT
BRANCH   1  12
ATOM     10  C   UNL     1       4.094   2.537   2.016  0.00  0.00    +0.249 C 
ATOM     11  O   UNL     1       2.909   2.436   1.765  0.00  0.00    -0.270 OA
ATOM     12  N   UNL     1       4.830   1.433   2.252  0.00  0.00    -0.280 N 
ATOM     13  H   UNL     1       5.755   1.516   2.528  0.00  0.00    +0.155 HD
BRANCH  10  19
ATOM     14  C   UNL     1       3.821   7.474   1.341  0.00  0.00    +0.044 C 
ATOM     15  C   UNL     1       4.601   6.248   1.740  0.00  0.00    -0.047 A 
ATOM     16  C   UNL     1       5.916   6.371   2.154  0.00  0.00    +0.003 A 
ATOM     17  C   UNL     1       6.640   5.251   2.523  0.00  0.00    +0.001 A 
ATOM     18  C   UNL     1       6.054   4.003   2.481  0.00  0.00    +0.013 A 
ATOM     19  C   UNL     1       4.728   3.871   2.064  0.00  0.00    +0.040 A 
ATOM     20  C   UNL     1       4.005   5.005   1.688  0.00  0.00    -0.035 A 
ATOM     21  C   UNL     1       2.576   4.872   1.231  0.00  0.00    +0.045 C 
ENDBRANCH  10  19
ENDBRANCH   1  12
BRANCH   9  22
ATOM     22  C   UNL     1       6.191  -0.760   0.783  0.00  0.00    +0.348 C 
ATOM     23  O   UNL     1       6.878   0.238   0.894  0.00  0.00    -0.244 OA
BRANCH  22  24
ATOM     24  O   UNL     1       6.638  -1.810   0.062  0.00  0.00    -0.464 OA
ATOM     25  C   UNL     1       7.926  -1.680  -0.543  0.00  0.00    +0.280 C 
ENDBRANCH  22  24
ENDBRANCH   9  22
BRANCH   5  26
ATOM     26  C   UNL     1      -0.800  -1.614   4.055  0.00  0.00    -0.021 C 
BRANCH  26  32
ATOM     27  C   UNL     1      -1.266  -1.927   1.700  0.00  0.00    -0.077 C 
ATOM     28  C   UNL     1      -2.284  -1.639   0.595  0.00  0.00    -0.019 C 
ATOM     29  C   UNL     1      -3.591  -2.374   0.907  0.00  0.00    -0.003 C 
ATOM     30  C   UNL     1      -4.105  -1.925   2.278  0.00  0.00    -0.004 C 
ATOM     31  C   UNL     1      -3.034  -2.205   3.335  0.00  0.00    +0.043 C 
ATOM     32  N   UNL     1      -1.810  -1.450   2.990  0.00  0.00    +0.392 N 
ATOM     33  H   UNL     1      -2.046  -0.455   2.904  0.00  0.00    -0.080 HD
BRANCH  31  34
ATOM     34  C   UNL     1      -3.527  -1.747   4.683  0.00  0.00    +0.293 C 
ATOM     35  O   UNL     1      -3.321  -0.615   5.049  0.00  0.00    -0.253 OA
BRANCH  34  36
ATOM     36  O   UNL     1      -4.196  -2.598   5.477  0.00  0.00    -0.469 OA
ATOM     37  C   UNL     1      -4.642  -2.088   6.762  0.00  0.00    +0.280 C 
ENDBRANCH  34  36
ENDBRANCH  31  34
ENDBRANCH  26  32
ENDBRANCH   5  26
TORSDOF 8
