REMARK  Name = ZINC19300955
REMARK  14 active torsions:
REMARK  status: ('A' for Active; 'I' for Inactive)
REMARK    1  A    between atoms: C_1  and  C_2
REMARK    2  A    between atoms: C_2  and  C_3
REMARK    3  A    between atoms: C_2  and  C_4
REMARK    4  A    between atoms: C_2  and  N_5
REMARK    5  A    between atoms: N_5  and  C_6
REMARK    6  A    between atoms: C_6  and  C_8
REMARK    7  A    between atoms: C_6  and  N_12
REMARK    8  A    between atoms: N_15  and  C_16
REMARK    9  A    between atoms: C_16  and  C_18
REMARK   10  A    between atoms: C_16  and  N_22
REMARK   11  A    between atoms: N_22  and  C_23
REMARK   12  A    between atoms: C_23  and  C_24
REMARK   13  A    between atoms: C_23  and  C_25
REMARK   14  A    between atoms: C_23  and  C_26
REMARK                            x       y       z     vdW  Elec       q    Type
REMARK                         _______ _______ _______ _____ _____    ______ ____
ROOT
ATOM      1  N   UNL     1       2.061  -0.067   0.267  0.00  0.00    -0.280 N 
ATOM      2  C   UNL     1       3.174   0.676   0.430  0.00  0.00    +0.302 C 
ATOM      3  O   UNL     1       3.281   1.743  -0.143  0.00  0.00    -0.253 OA
ATOM      4  N   UNL     1       4.167   0.237   1.228  0.00  0.00    -0.280 N 
ATOM      5  H   UNL     1       1.987  -1.057   0.741  0.00  0.00    +0.152 HD
ATOM      6  H   UNL     1       4.114  -0.770   1.669  0.00  0.00    +0.152 HD
ENDROOT
BRANCH   1   7
ATOM      7  C   UNL     1       0.951   0.444  -0.541  0.00  0.00    +0.194 C 
BRANCH   7   8
ATOM      8  C   UNL     1      -0.338   0.407   0.282  0.00  0.00    +0.222 C 
ATOM      9 CL   UNL     1      -0.143   1.433   1.751  0.00  0.00    -0.080 Cl
ATOM     10 CL   UNL     1      -1.704   1.035  -0.713  0.00  0.00    -0.080 Cl
ATOM     11 CL   UNL     1      -0.686  -1.291   0.777  0.00  0.00    -0.080 Cl
ENDBRANCH   7   8
BRANCH   7  12
ATOM     12  N   UNL     1       0.792  -0.393  -1.738  0.00  0.00    -0.290 NA
ATOM     13  H   UNL     1      -0.271  -0.651  -1.849  0.00  0.00    +0.124 HD
BRANCH  12  15
ATOM     14  C   UNL     1       2.754   0.584  -2.831  0.00  0.00    +0.027 C 
ATOM     15  C   UNL     1       1.252   0.316  -2.940  0.00  0.00    +0.012 C 
ATOM     16  C   UNL     1       0.975  -0.544  -4.176  0.00  0.00    +0.027 C 
ATOM     17  C   UNL     1       0.504   1.645  -3.066  0.00  0.00    +0.027 C 
ENDBRANCH  12  15
ENDBRANCH   7  12
ENDBRANCH   1   7
BRANCH   4  18
ATOM     18  C   UNL     1       5.316   1.101   1.510  0.00  0.00    +0.194 C 
BRANCH  18  19
ATOM     19  C   UNL     1       6.611   0.318   1.279  0.00  0.00    +0.222 C 
ATOM     20 CL   UNL     1       6.680  -0.235  -0.436  0.00  0.00    -0.080 Cl
ATOM     21 CL   UNL     1       8.025   1.381   1.626  0.00  0.00    -0.080 Cl
ATOM     22 CL   UNL     1       6.651  -1.114   2.374  0.00  0.00    -0.080 Cl
ENDBRANCH  18  19
BRANCH  18  23
ATOM     23  N   UNL     1       5.260   1.551   2.907  0.00  0.00    -0.290 NA
ATOM     24  H   UNL     1       4.509   0.960   3.453  0.00  0.00    +0.124 HD
BRANCH  23  25
ATOM     25  C   UNL     1       4.891   2.971   2.988  0.00  0.00    +0.012 C 
ATOM     26  C   UNL     1       3.480   3.164   2.430  0.00  0.00    +0.027 C 
ATOM     27  C   UNL     1       4.928   3.425   4.449  0.00  0.00    +0.027 C 
ATOM     28  C   UNL     1       5.881   3.802   2.171  0.00  0.00    +0.027 C 
ENDBRANCH  23  25
ENDBRANCH  18  23
ENDBRANCH   4  18
TORSDOF 8
