REMARK  Name = ZINC19219622
REMARK  9 active torsions:
REMARK  status: ('A' for Active; 'I' for Inactive)
REMARK    1  A    between atoms: C_1  and  C_2
REMARK    2  A    between atoms: C_10  and  C_35
REMARK    3  A    between atoms: C_11  and  C_12
REMARK    4  A    between atoms: C_12  and  C_14
REMARK    5  A    between atoms: C_12  and  O_34
REMARK    6  A    between atoms: C_14  and  N_15
REMARK    7  A    between atoms: C_22  and  O_33
REMARK    8  A    between atoms: C_27  and  O_31
REMARK    9  A    between atoms: O_31  and  C_32
REMARK                            x       y       z     vdW  Elec       q    Type
REMARK                         _______ _______ _______ _____ _____    ______ ____
ROOT
ATOM      1  N   UNL     1      -4.176  -1.803  -1.383  0.00  0.00    +0.382 N 
ATOM      2  C   UNL     1      -3.082  -2.759  -1.173  0.00  0.00    -0.075 C 
ATOM      3  C   UNL     1      -3.655  -4.171  -1.038  0.00  0.00    +0.029 C 
ATOM      4  C   UNL     1      -4.436  -4.524  -2.305  0.00  0.00    +0.110 C 
ATOM      5  C   UNL     1      -5.536  -3.485  -2.531  0.00  0.00    +0.029 C 
ATOM      6  C   UNL     1      -4.906  -2.093  -2.623  0.00  0.00    -0.075 C 
ATOM      7  C   UNL     1      -5.067  -5.912  -2.147  0.00  0.00    +0.084 C 
ATOM      8  C   UNL     1      -3.955  -6.910  -1.813  0.00  0.00    +0.152 C 
ATOM      9  C   UNL     1      -2.803  -6.726  -2.768  0.00  0.00    +0.023 A 
ATOM     10  C   UNL     1      -1.873  -7.745  -2.893  0.00  0.00    +0.013 A 
ATOM     11  C   UNL     1      -0.803  -7.613  -3.755  0.00  0.00    +0.046 A 
ATOM     12  C   UNL     1      -0.655  -6.452  -4.502  0.00  0.00    +0.124 A 
ATOM     13  C   UNL     1      -1.583  -5.431  -4.380  0.00  0.00    +0.091 A 
ATOM     14  C   UNL     1      -2.661  -5.567  -3.512  0.00  0.00    +0.130 A 
ATOM     15  O   UNL     1      -3.555  -4.548  -3.427  0.00  0.00    -0.485 OA
ATOM     16  H   UNL     1      -4.881  -1.912  -0.545  0.00  0.00    -0.082 HD
ENDROOT
BRANCH  12  17
ATOM     17  O   UNL     1       0.397  -6.318  -5.351  0.00  0.00    -0.495 OA
ATOM     18  C   UNL     1       1.314  -7.411  -5.425  0.00  0.00    +0.277 C 
ENDBRANCH  12  17
BRANCH   8  19
ATOM     19  O   UNL     1      -4.460  -8.242  -1.928  0.00  0.00    -0.387 OA
ATOM     20  H   UNL     1      -3.803  -9.099  -1.725  0.00  0.00    +0.210 HD
ENDBRANCH   8  19
BRANCH   1  21
ATOM     21  C   UNL     1      -3.677  -0.421  -1.377  0.00  0.00    -0.042 C 
BRANCH  21  22
ATOM     22  C   UNL     1      -3.146  -0.076   0.016  0.00  0.00    +0.130 C 
BRANCH  22  33
ATOM     23  C   UNL     1       2.455   3.920   0.000  0.00  0.00    +0.044 C 
ATOM     24  C   UNL     1       1.151   3.166   0.008  0.00  0.00    -0.048 A 
ATOM     25  C   UNL     1       1.160   1.777   0.001  0.00  0.00    +0.004 A 
ATOM     26  C   UNL     1      -0.013   1.076   0.008  0.00  0.00    +0.010 A 
ATOM     27  C   UNL     1      -1.230   1.760   0.017  0.00  0.00    +0.005 A 
ATOM     28  C   UNL     1      -1.244   3.167   0.031  0.00  0.00    +0.047 A 
ATOM     29  C   UNL     1      -0.038   3.861   0.023  0.00  0.00    +0.029 A 
ATOM     30  N   UNL     1      -2.564   3.559   0.046  0.00  0.00    -0.358 N 
ATOM     31  H   UNL     1      -2.819   4.629   0.066  0.00  0.00    +0.166 HD
ATOM     32  C   UNL     1      -3.377   2.458   0.031  0.00  0.00    +0.019 A 
ATOM     33  C   UNL     1      -2.633   1.341   0.022  0.00  0.00    +0.007 A 
ATOM     34  C   UNL     1      -4.883   2.495   0.039  0.00  0.00    +0.063 C 
ENDBRANCH  22  33
BRANCH  22  35
ATOM     35  O   UNL     1      -4.199  -0.206   0.973  0.00  0.00    -0.389 OA
ATOM     36  H   UNL     1      -4.699  -1.176   1.112  0.00  0.00    +0.210 HD
ENDBRANCH  22  35
ENDBRANCH  21  22
ENDBRANCH   1  21
TORSDOF 6
