REMARK  Name = ZINC31160523
REMARK  17 active torsions:
REMARK  status: ('A' for Active; 'I' for Inactive)
REMARK    1  A    between atoms: C_1  and  C_2
REMARK    2  A    between atoms: C_2  and  C_3
REMARK    3  A    between atoms: C_2  and  C_12
REMARK    4  A    between atoms: C_2  and  O_14
REMARK    5  A    between atoms: C_3  and  C_4
REMARK    6  A    between atoms: C_4  and  C_5
REMARK    7  A    between atoms: C_5  and  C_7
REMARK    8  A    between atoms: C_5  and  O_11
REMARK    9  A    between atoms: C_7  and  C_8
REMARK   10  A    between atoms: C_7  and  C_9
REMARK   11  A    between atoms: C_7  and  O_10
REMARK   12  A    between atoms: O_14  and  C_15
REMARK   13  A    between atoms: C_17  and  O_30
REMARK   14  A    between atoms: C_19  and  O_29
REMARK   15  A    between atoms: C_21  and  O_28
REMARK   16  A    between atoms: C_23  and  C_26
REMARK   17  A    between atoms: C_26  and  O_27
REMARK                            x       y       z     vdW  Elec       q    Type
REMARK                         _______ _______ _______ _____ _____    ______ ____
ROOT
ATOM      1  O   UNL     1      -1.284  -0.701  -0.071  0.00  0.00    -0.338 OA
ENDROOT
BRANCH   1   2
ATOM      2  C   UNL     1      -2.080  -0.623   1.112  0.00  0.00    +0.283 C 
ATOM      3  C   UNL     1      -3.398  -1.369   0.891  0.00  0.00    +0.201 C 
ATOM      4  C   UNL     1      -4.220  -1.333   2.183  0.00  0.00    +0.179 C 
ATOM      5  C   UNL     1      -3.392  -1.940   3.320  0.00  0.00    +0.177 C 
ATOM      6  C   UNL     1      -2.074  -1.171   3.447  0.00  0.00    +0.178 C 
ATOM      7  O   UNL     1      -1.374  -1.219   2.202  0.00  0.00    -0.340 OA
BRANCH   5   8
ATOM      8  O   UNL     1      -4.121  -1.846   4.545  0.00  0.00    -0.386 OA
ATOM      9  H   UNL     1      -4.970  -2.308   4.534  0.00  0.00    +0.210 HD
ENDBRANCH   5   8
BRANCH   4  10
ATOM     10  O   UNL     1      -5.420  -2.088   2.008  0.00  0.00    -0.386 OA
ATOM     11  H   UNL     1      -5.991  -1.761   1.299  0.00  0.00    +0.210 HD
ENDBRANCH   4  10
BRANCH   3  12
ATOM     12  O   UNL     1      -4.133  -0.740  -0.161  0.00  0.00    -0.384 OA
ATOM     13  H   UNL     1      -3.669  -0.724  -1.009  0.00  0.00    +0.210 HD
ENDBRANCH   3  12
BRANCH   6  14
ATOM     14  C   UNL     1      -1.215  -1.809   4.541  0.00  0.00    +0.190 C 
BRANCH  14  15
ATOM     15  O   UNL     1      -0.037  -1.024   4.740  0.00  0.00    -0.392 OA
ATOM     16  H   UNL     1       0.555  -1.370   5.421  0.00  0.00    +0.210 HD
ENDBRANCH  14  15
ENDBRANCH   6  14
ENDBRANCH   1   2
BRANCH   1  18
ATOM     17  C   UNL     1      -0.696   1.633   0.147  0.00  0.00    +0.046 C 
ATOM     18  C   UNL     1      -0.184   0.211  -0.093  0.00  0.00    +0.088 C 
BRANCH  18  19
ATOM     19  C   UNL     1       0.498   0.144  -1.436  0.00  0.00    -0.000 C 
ATOM     20  C   UNL     1      -0.016  -0.585  -2.395  0.00  0.00    +0.007 C 
ENDBRANCH  18  19
BRANCH  18  21
ATOM     21  C   UNL     1       0.812  -0.165   1.005  0.00  0.00    +0.041 C 
BRANCH  21  22
ATOM     22  C   UNL     1       1.315  -1.591   0.771  0.00  0.00    +0.037 C 
BRANCH  22  23
ATOM     23  C   UNL     1       2.312  -1.967   1.869  0.00  0.00    +0.146 C 
BRANCH  23  24
ATOM     24  C   UNL     1       2.720  -3.433   1.707  0.00  0.00    +0.086 C 
ATOM     25  C   UNL     1       3.716  -3.809   2.805  0.00  0.00    +0.043 C 
ATOM     26  C   UNL     1       1.479  -4.322   1.817  0.00  0.00    +0.043 C 
BRANCH  24  27
ATOM     27  O   UNL     1       3.328  -3.620   0.428  0.00  0.00    -0.387 OA
ATOM     28  H   UNL     1       4.121  -3.086   0.288  0.00  0.00    +0.210 HD
ENDBRANCH  24  27
ENDBRANCH  23  24
BRANCH  23  29
ATOM     29  O   UNL     1       3.470  -1.136   1.766  0.00  0.00    -0.389 OA
ATOM     30  H   UNL     1       3.934  -1.212   0.921  0.00  0.00    +0.210 HD
ENDBRANCH  23  29
ENDBRANCH  22  23
ENDBRANCH  21  22
ENDBRANCH  18  21
ENDBRANCH   1  18
TORSDOF 14
