REMARK  Name = ZINC39671691
REMARK  9 active torsions:
REMARK  status: ('A' for Active; 'I' for Inactive)
REMARK    1  A    between atoms: C_1  and  C_2
REMARK    2  A    between atoms: C_4  and  C_37
REMARK    3  A    between atoms: N_5  and  C_7
REMARK    4  A    between atoms: C_7  and  C_8
REMARK    5  A    between atoms: C_8  and  C_9
REMARK    6  A    between atoms: C_9  and  N_10
REMARK    7  A    between atoms: C_11  and  C_13
REMARK    8  A    between atoms: C_24  and  C_26
REMARK    9  A    between atoms: C_29  and  C_33
REMARK                            x       y       z     vdW  Elec       q    Type
REMARK                         _______ _______ _______ _____ _____    ______ ____
ROOT
ATOM      1  C   UNL     1       5.298  -6.732   3.985  0.00  0.00    +0.100 C 
ATOM      2  C   UNL     1       5.713  -5.444   4.731  0.00  0.00    +0.121 C 
ATOM      3  N   UNL     1       5.531  -5.767   6.165  0.00  0.00    -0.296 N 
ATOM      4  C   UNL     1       5.998  -7.169   6.290  0.00  0.00    +0.115 C 
ATOM      5  C   UNL     1       5.490  -7.862   5.011  0.00  0.00    -0.004 C 
ATOM      6  C   UNL     1       4.160  -8.560   5.283  0.00  0.00    -0.010 C 
ATOM      7  C   UNL     1       4.387  -9.715   6.262  0.00  0.00    -0.082 C 
ATOM      8  N   UNL     1       5.352 -10.662   5.689  0.00  0.00    +0.379 N 
ATOM      9  C   UNL     1       6.654 -10.007   5.517  0.00  0.00    -0.082 C 
ATOM     10  C   UNL     1       6.523  -8.864   4.506  0.00  0.00    -0.010 C 
ATOM     11  C   UNL     1       5.049  -4.968   7.138  0.00  0.00    +0.247 C 
ATOM     12  O   UNL     1       4.586  -3.880   6.856  0.00  0.00    -0.270 OA
ATOM     13  H   UNL     1       5.453 -11.452   6.309  0.00  0.00    -0.086 HD
ATOM     14  H   UNL     1       5.016 -10.981   4.793  0.00  0.00    -0.086 HD
ENDROOT
BRANCH  11  15
ATOM     15  C   UNL     1       5.084  -5.414   8.547  0.00  0.00    +0.040 A 
ATOM     16  C   UNL     1       5.970  -6.417   8.943  0.00  0.00    +0.014 A 
ATOM     17  C   UNL     1       5.998  -6.830  10.259  0.00  0.00    +0.016 A 
ATOM     18  C   UNL     1       5.152  -6.251  11.187  0.00  0.00    +0.090 A 
ATOM     19  C   UNL     1       4.269  -5.255  10.802  0.00  0.00    +0.136 A 
ATOM     20  C   UNL     1       4.235  -4.829   9.487  0.00  0.00    +0.052 A 
ATOM     21  F   UNL     1       3.444  -4.695  11.714  0.00  0.00    -0.205 F 
BRANCH  18  22
ATOM     22  C   UNL     1       5.189  -6.707  12.623  0.00  0.00    +0.420 C 
ATOM     23  F   UNL     1       6.150  -7.713  12.768  0.00  0.00    -0.166 F 
ATOM     24  F   UNL     1       5.518  -5.625  13.447  0.00  0.00    -0.166 F 
ATOM     25  F   UNL     1       3.933  -7.205  12.987  0.00  0.00    -0.166 F 
ENDBRANCH  18  22
ENDBRANCH  11  15
BRANCH   1  27
ATOM     26  N   UNL     1       3.414  -7.392   2.524  0.00  0.00    -0.315 N 
ATOM     27  C   UNL     1       3.855  -6.649   3.559  0.00  0.00    +0.218 C 
ATOM     28  O   UNL     1       3.090  -5.915   4.147  0.00  0.00    -0.275 OA
ATOM     29  H   UNL     1       4.026  -7.980   2.054  0.00  0.00    +0.149 HD
BRANCH  26  30
ATOM     30  C   UNL     1       2.011  -7.312   2.110  0.00  0.00    +0.106 C 
BRANCH  30  31
ATOM     31  C   UNL     1       1.775  -8.248   0.923  0.00  0.00    +0.042 C 
BRANCH  31  32
ATOM     32  C   UNL     1       0.310  -8.164   0.490  0.00  0.00    +0.145 C 
BRANCH  32  37
ATOM     33  C   UNL     1      -0.050  -9.864  -4.219  0.00  0.00    +0.067 C 
ATOM     34  C   UNL     1      -0.067  -9.783  -2.714  0.00  0.00    +0.060 A 
ATOM     35  C   UNL     1      -0.388 -10.826  -1.840  0.00  0.00    +0.047 A 
ATOM     36  C   UNL     1      -0.287 -10.355  -0.575  0.00  0.00    +0.036 A 
ATOM     37  N   UNL     1       0.085  -9.060  -0.647  0.00  0.00    -0.268 N 
ATOM     38  N   UNL     1       0.222  -8.725  -2.000  0.00  0.00    -0.176 NA
ATOM     39  C   UNL     1      -0.544 -11.137   0.687  0.00  0.00    +0.065 C 
ENDBRANCH  32  37
ENDBRANCH  31  32
ENDBRANCH  30  31
ENDBRANCH  26  30
ENDBRANCH   1  27
TORSDOF 7
