REMARK  Name = ZINC45222353
REMARK  10 active torsions:
REMARK  status: ('A' for Active; 'I' for Inactive)
REMARK    1  A    between atoms: C_1  and  C_2
REMARK    2  A    between atoms: C_2  and  C_4
REMARK    3  A    between atoms: C_2  and  O_15
REMARK    4  A    between atoms: N_6  and  C_7
REMARK    5  A    between atoms: C_12  and  O_13
REMARK    6  A    between atoms: O_13  and  C_14
REMARK    7  A    between atoms: O_15  and  C_16
REMARK    8  A    between atoms: C_16  and  C_18
REMARK    9  A    between atoms: C_31  and  C_32
REMARK   10  A    between atoms: C_35  and  O_38
REMARK                            x       y       z     vdW  Elec       q    Type
REMARK                         _______ _______ _______ _____ _____    ______ ____
ROOT
ATOM      1  C   UNL     1       0.781  -1.206  -3.160  0.00  0.00    +0.073 A 
ATOM      2  C   UNL     1       0.934  -2.629  -3.463  0.00  0.00    +0.015 A 
ATOM      3  C   UNL     1       0.521  -3.618  -2.565  0.00  0.00    +0.011 A 
ATOM      4  C   UNL     1       0.682  -4.933  -2.889  0.00  0.00    +0.001 A 
ATOM      5  C   UNL     1       1.254  -5.302  -4.104  0.00  0.00    +0.002 A 
ATOM      6  C   UNL     1       1.666  -4.365  -5.001  0.00  0.00    +0.028 A 
ATOM      7  C   UNL     1       1.516  -2.998  -4.702  0.00  0.00    +0.072 A 
ATOM      8  N   UNL     1       1.909  -2.059  -5.559  0.00  0.00    -0.247 NA
ATOM      9  C   UNL     1       1.785  -0.758  -5.314  0.00  0.00    +0.072 A 
ATOM     10  C   UNL     1       1.214  -0.297  -4.116  0.00  0.00    -0.007 A 
ATOM     11  C   UNL     1       1.191   1.211  -4.109  0.00  0.00    +0.043 C 
ATOM     12  C   UNL     1       1.806   1.657  -5.442  0.00  0.00    +0.042 C 
ATOM     13  C   UNL     1       2.174   0.384  -6.163  0.00  0.00    -0.021 C 
ATOM     14  C   UNL     1       2.743   0.303  -7.379  0.00  0.00    +0.013 C 
ENDROOT
BRANCH  14  15
ATOM     15  C   UNL     1       3.200   1.526  -8.060  0.00  0.00    -0.024 A 
ATOM     16  C   UNL     1       3.942   1.435  -9.242  0.00  0.00    +0.011 A 
ATOM     17  C   UNL     1       4.367   2.582  -9.876  0.00  0.00    +0.046 A 
ATOM     18  C   UNL     1       4.059   3.828  -9.343  0.00  0.00    +0.117 A 
ATOM     19  C   UNL     1       3.321   3.923  -8.170  0.00  0.00    +0.046 A 
ATOM     20  C   UNL     1       2.887   2.782  -7.531  0.00  0.00    +0.011 A 
BRANCH  18  21
ATOM     21  O   UNL     1       4.481   4.955  -9.972  0.00  0.00    -0.507 OA
ATOM     22  H   UNL     1       3.856   5.299 -10.625  0.00  0.00    +0.292 HD
ENDBRANCH  18  21
ENDBRANCH  14  15
BRANCH   1  23
ATOM     23  C   UNL     1       0.183  -0.753  -1.887  0.00  0.00    +0.341 C 
ATOM     24  O   UNL     1      -1.016  -0.579  -1.808  0.00  0.00    -0.245 OA
BRANCH  23  25
ATOM     25  O   UNL     1       0.968  -0.532  -0.815  0.00  0.00    -0.449 OA
BRANCH  25  27
ATOM     26  C   UNL     1       0.264   1.433   0.402  0.00  0.00    +0.062 C 
ATOM     27  C   UNL     1       0.322  -0.096   0.383  0.00  0.00    +0.259 C 
BRANCH  27  28
ATOM     28  C   UNL     1       1.098  -0.584   1.579  0.00  0.00    +0.258 C 
ATOM     29  O   UNL     1       2.152  -1.163   1.422  0.00  0.00    -0.271 OA
ATOM     30  N   UNL     1       0.621  -0.378   2.822  0.00  0.00    -0.280 N 
ATOM     31  H   UNL     1      -0.189   0.141   2.951  0.00  0.00    +0.155 HD
BRANCH  30  32
ATOM     32  C   UNL     1       1.294  -0.912   3.929  0.00  0.00    +0.076 A 
ATOM     33  C   UNL     1       2.678  -1.008   3.922  0.00  0.00    +0.027 A 
ATOM     34  C   UNL     1       3.339  -1.535   5.014  0.00  0.00    +0.002 A 
ATOM     35  C   UNL     1       2.625  -1.969   6.116  0.00  0.00    +0.004 A 
ATOM     36  C   UNL     1       1.246  -1.877   6.130  0.00  0.00    +0.047 A 
ATOM     37  C   UNL     1       0.575  -1.345   5.041  0.00  0.00    +0.141 A 
BRANCH  37  38
ATOM     38  O   UNL     1      -0.781  -1.248   5.056  0.00  0.00    -0.493 OA
ATOM     39  C   UNL     1      -1.451  -1.711   6.230  0.00  0.00    +0.277 C 
ENDBRANCH  37  38
ENDBRANCH  30  32
ENDBRANCH  27  28
ENDBRANCH  25  27
ENDBRANCH  23  25
ENDBRANCH   1  23
TORSDOF 8
