REMARK  Name = ZINC64496710
REMARK  8 active torsions:
REMARK  status: ('A' for Active; 'I' for Inactive)
REMARK    1  A    between atoms: C_1  and  O_2
REMARK    2  A    between atoms: O_2  and  C_3
REMARK    3  A    between atoms: C_11  and  C_13
REMARK    4  A    between atoms: N_15  and  N_16
REMARK    5  A    between atoms: N_19  and  C_20
REMARK    6  A    between atoms: C_20  and  C_21
REMARK    7  A    between atoms: C_21  and  C_22
REMARK    8  A    between atoms: C_22  and  N_23
REMARK                            x       y       z     vdW  Elec       q    Type
REMARK                         _______ _______ _______ _____ _____    ______ ____
ROOT
ATOM      1  C   UNL     1       3.246  -4.643  -5.360  0.00  0.00    +0.236 C 
ATOM      2  O   UNL     1       3.277  -4.039  -6.411  0.00  0.00    -0.274 OA
ATOM      3  N   UNL     1       3.566  -5.951  -5.324  0.00  0.00    -0.233 N 
ATOM      4  H   UNL     1       3.541  -6.434  -4.483  0.00  0.00    +0.173 HD
ENDROOT
BRANCH   1  13
ATOM      5  C   UNL     1       0.606  -0.607  -1.056  0.00  0.00    +0.124 A 
ATOM      6  C   UNL     1       1.173   0.161  -2.063  0.00  0.00    +0.046 A 
ATOM      7  C   UNL     1       1.784  -0.455  -3.136  0.00  0.00    +0.011 A 
ATOM      8  C   UNL     1       1.836  -1.837  -3.215  0.00  0.00    -0.005 A 
ATOM      9  C   UNL     1       1.275  -2.608  -2.211  0.00  0.00    +0.127 A 
ATOM     10  C   UNL     1       0.661  -1.989  -1.128  0.00  0.00    +0.091 A 
ATOM     11  O   UNL     1       1.314  -3.965  -2.244  0.00  0.00    -0.491 OA
ATOM     12  C   UNL     1       1.604  -4.595  -3.493  0.00  0.00    +0.242 C 
ATOM     13  C   UNL     1       2.849  -3.929  -4.093  0.00  0.00    +0.118 C 
ATOM     14  C   UNL     1       2.509  -2.470  -4.407  0.00  0.00    +0.055 C 
BRANCH   5  16
ATOM     15  C   UNL     1      -0.017   1.425   0.010  0.00  0.00    +0.277 C 
ATOM     16  O   UNL     1       0.002  -0.004   0.002  0.00  0.00    -0.495 OA
ENDBRANCH   5  16
ENDBRANCH   1  13
BRANCH   3  17
ATOM     17  N   UNL     1       3.935  -6.614  -6.502  0.00  0.00    -0.218 N 
ATOM     18  C   UNL     1       4.255  -7.923  -6.466  0.00  0.00    +0.316 C 
ATOM     19  O   UNL     1       4.575  -8.499  -7.488  0.00  0.00    -0.251 OA
ATOM     20  N   UNL     1       4.220  -8.594  -5.298  0.00  0.00    -0.298 N 
ATOM     21  H   UNL     1       3.960  -6.132  -7.343  0.00  0.00    +0.174 HD
ATOM     22  H   UNL     1       3.965  -8.135  -4.482  0.00  0.00    +0.150 HD
BRANCH  20  23
ATOM     23  C   UNL     1       4.568 -10.017  -5.259  0.00  0.00    +0.107 C 
BRANCH  23  24
ATOM     24  C   UNL     1       4.448 -10.532  -3.823  0.00  0.00    +0.040 C 
BRANCH  24  25
ATOM     25  C   UNL     1       4.812 -12.018  -3.783  0.00  0.00    +0.124 C 
BRANCH  25  26
ATOM     26  N   UNL     1       4.697 -12.511  -2.408  0.00  0.00    -0.338 N 
ATOM     27  C   UNL     1       5.686 -12.517  -1.462  0.00  0.00    +0.104 A 
ATOM     28  C   UNL     1       5.155 -13.053  -0.347  0.00  0.00    +0.101 A 
ATOM     29  N   UNL     1       3.877 -13.367  -0.605  0.00  0.00    -0.352 N 
ATOM     30  C   UNL     1       3.594 -13.041  -1.836  0.00  0.00    +0.173 A 
ATOM     31  H   UNL     1       3.260 -13.770   0.025  0.00  0.00    +0.166 HD
ENDBRANCH  25  26
ENDBRANCH  24  25
ENDBRANCH  23  24
ENDBRANCH  20  23
ENDBRANCH   3  17
TORSDOF 7
