REMARK  Name = ZINC22788446
REMARK  7 active torsions:
REMARK  status: ('A' for Active; 'I' for Inactive)
REMARK    1  A    between atoms: C_6  and  N_11
REMARK    2  A    between atoms: C_7  and  C_8
REMARK    3  A    between atoms: C_12  and  C_14
REMARK    4  A    between atoms: C_14  and  N_15
REMARK    5  A    between atoms: N_18  and  C_21
REMARK    6  A    between atoms: C_21  and  C_22
REMARK    7  A    between atoms: N_24  and  C_25
REMARK                            x       y       z     vdW  Elec       q    Type
REMARK                         _______ _______ _______ _____ _____    ______ ____
ROOT
ATOM      1  N   UNL     1      -0.862   3.273   1.472  0.00  0.00    -0.278 N 
ATOM      2  C   UNL     1      -0.723   1.951   1.250  0.00  0.00    +0.232 C 
ATOM      3  O   UNL     1      -1.166   1.152   2.048  0.00  0.00    -0.274 OA
ATOM      4  H   UNL     1      -0.461   3.997   0.748  0.00  0.00    +0.155 HD
ENDROOT
BRANCH   1  10
ATOM      5  C   UNL     1      -3.993   5.863   6.069  0.00  0.00    +0.010 C 
ATOM      6  C   UNL     1      -2.939   6.425   5.095  0.00  0.00    +0.037 C 
ATOM      7  C   UNL     1      -2.464   5.227   4.271  0.00  0.00    -0.023 A 
ATOM      8  C   UNL     1      -2.816   4.100   4.916  0.00  0.00    -0.004 A 
ATOM      9  S   UNL     1      -2.219   2.784   3.884  0.00  0.00    -0.077 S 
ATOM     10  C   UNL     1      -1.511   3.720   2.612  0.00  0.00    +0.084 A 
ATOM     11  C   UNL     1      -1.745   5.024   3.014  0.00  0.00    +0.068 A 
ATOM     12  C   UNL     1      -3.547   4.389   6.199  0.00  0.00    +0.043 C 
BRANCH  11  13
ATOM     13  C   UNL     1      -1.292   6.161   2.206  0.00  0.00    +0.244 C 
ATOM     14  O   UNL     1      -2.022   6.628   1.351  0.00  0.00    -0.270 OA
ATOM     15  N   UNL     1      -0.069   6.688   2.410  0.00  0.00    -0.325 N 
ATOM     16  H   UNL     1       0.271   7.540   1.803  0.00  0.00    +0.145 HD
ATOM     17  H   UNL     1       0.590   6.265   3.182  0.00  0.00    +0.145 HD
ENDBRANCH  11  13
ENDBRANCH   1  10
BRANCH   2  18
ATOM     18  C   UNL     1      -0.018   1.465   0.010  0.00  0.00    +0.180 C 
BRANCH  18  19
ATOM     19  N   UNL     1       0.002  -0.004   0.002  0.00  0.00    -0.298 NA
ATOM     20  C   UNL     1       0.830  -0.526   1.099  0.00  0.00    +0.066 C 
ATOM     21  C   UNL     1       0.761  -2.054   1.104  0.00  0.00    -0.063 C 
ATOM     22  N   UNL     1       1.225  -2.568  -0.193  0.00  0.00    +0.387 N 
ATOM     23  C   UNL     1       0.397  -2.046  -1.289  0.00  0.00    -0.063 C 
ATOM     24  C   UNL     1       0.466  -0.517  -1.294  0.00  0.00    +0.066 C 
ATOM     25  H   UNL     1       2.255  -2.216  -0.348  0.00  0.00    -0.081 HD
BRANCH  22  26
ATOM     26  C   UNL     1       1.245  -4.037  -0.201  0.00  0.00    +0.019 C 
BRANCH  26  27
ATOM     27  C   UNL     1       2.286  -4.530   0.770  0.00  0.00    +0.197 C 
ATOM     28  O   UNL     1       2.947  -3.737   1.406  0.00  0.00    -0.278 OA
ATOM     29  N   UNL     1       2.483  -5.854   0.931  0.00  0.00    -0.314 N 
ATOM     30  H   UNL     1       1.884  -6.573   0.355  0.00  0.00    +0.149 HD
BRANCH  29  31
ATOM     31  C   UNL     1       3.496  -6.333   1.875  0.00  0.00    +0.073 C 
ATOM     32  C   UNL     1       4.402  -7.479   1.418  0.00  0.00    +0.024 C 
ATOM     33  C   UNL     1       3.309  -7.735   2.459  0.00  0.00    +0.024 C 
ENDBRANCH  29  31
ENDBRANCH  26  27
ENDBRANCH  22  26
ENDBRANCH  18  19
ENDBRANCH   2  18
TORSDOF 7
