REMARK  Name = ZINC39677916
REMARK  9 active torsions:
REMARK  status: ('A' for Active; 'I' for Inactive)
REMARK    1  A    between atoms: C_1  and  C_2
REMARK    2  A    between atoms: C_2  and  C_3
REMARK    3  A    between atoms: C_3  and  C_5
REMARK    4  A    between atoms: C_3  and  C_11
REMARK    5  A    between atoms: C_15  and  C_24
REMARK    6  A    between atoms: N_26  and  C_27
REMARK    7  A    between atoms: C_27  and  C_28
REMARK    8  A    between atoms: N_31  and  C_35
REMARK    9  A    between atoms: C_35  and  C_36
REMARK                            x       y       z     vdW  Elec       q    Type
REMARK                         _______ _______ _______ _____ _____    ______ ____
ROOT
ATOM      1  C   UNL     1       0.657  -2.161  -1.300  0.00  0.00    +0.223 C 
ATOM      2  O   UNL     1       1.654  -2.849  -1.365  0.00  0.00    -0.275 OA
ATOM      3  N   UNL     1      -0.562  -2.730  -1.386  0.00  0.00    -0.300 N 
ATOM      4  C   UNL     1      -1.883  -2.060  -1.333  0.00  0.00    +0.121 C 
ATOM      5  C   UNL     1      -2.738  -2.801  -2.386  0.00  0.00    +0.100 C 
ATOM      6  C   UNL     1      -2.078  -4.184  -2.525  0.00  0.00    -0.004 C 
ATOM      7  C   UNL     1      -0.883  -4.167  -1.560  0.00  0.00    +0.115 C 
ATOM      8  C   UNL     1      -1.591  -4.396  -3.955  0.00  0.00    -0.010 C 
ATOM      9  C   UNL     1      -0.990  -5.798  -4.082  0.00  0.00    -0.082 C 
ATOM     10  N   UNL     1      -2.006  -6.801  -3.736  0.00  0.00    +0.379 N 
ATOM     11  C   UNL     1      -2.401  -6.648  -2.330  0.00  0.00    -0.082 C 
ATOM     12  C   UNL     1      -3.061  -5.281  -2.129  0.00  0.00    -0.010 C 
ATOM     13  H   UNL     1      -2.814  -6.676  -4.327  0.00  0.00    -0.086 HD
ATOM     14  H   UNL     1      -1.627  -7.725  -3.879  0.00  0.00    -0.086 HD
ENDROOT
BRANCH   5  15
ATOM     15  C   UNL     1      -4.158  -2.942  -1.903  0.00  0.00    +0.218 C 
ATOM     16  O   UNL     1      -4.389  -3.034  -0.716  0.00  0.00    -0.275 OA
ATOM     17  N   UNL     1      -5.173  -2.964  -2.791  0.00  0.00    -0.313 N 
ATOM     18  H   UNL     1      -4.988  -2.890  -3.740  0.00  0.00    +0.149 HD
BRANCH  17  19
ATOM     19  C   UNL     1      -6.554  -3.100  -2.322  0.00  0.00    +0.137 C 
BRANCH  19  20
ATOM     20  C   UNL     1      -7.503  -3.098  -3.522  0.00  0.00    +0.149 C 
ATOM     21  C   UNL     1      -8.951  -3.116  -3.028  0.00  0.00    +0.118 C 
ATOM     22  N   UNL     1      -9.857  -3.192  -4.184  0.00  0.00    -0.293 NA
ATOM     23  C   UNL     1      -9.581  -4.394  -4.984  0.00  0.00    +0.113 C 
ATOM     24  C   UNL     1      -8.126  -4.363  -5.458  0.00  0.00    +0.175 C 
ATOM     25  O   UNL     1      -7.261  -4.257  -4.323  0.00  0.00    -0.372 OA
BRANCH  22  26
ATOM     26  C   UNL     1     -11.261  -3.155  -3.756  0.00  0.00    +0.119 C 
BRANCH  26  27
ATOM     27  C   UNL     1     -12.150  -2.987  -4.961  0.00  0.00    -0.033 A 
ATOM     28  C   UNL     1     -12.486  -1.720  -5.401  0.00  0.00    +0.005 A 
ATOM     29  C   UNL     1     -13.301  -1.566  -6.507  0.00  0.00    +0.000 A 
ATOM     30  C   UNL     1     -13.779  -2.678  -7.173  0.00  0.00    +0.000 A 
ATOM     31  C   UNL     1     -13.443  -3.945  -6.734  0.00  0.00    +0.000 A 
ATOM     32  C   UNL     1     -12.624  -4.099  -5.631  0.00  0.00    +0.005 A 
ENDBRANCH  26  27
ENDBRANCH  22  26
ENDBRANCH  19  20
ENDBRANCH  17  19
ENDBRANCH   5  15
BRANCH   1  33
ATOM     33  C   UNL     1       0.781  -0.669  -1.121  0.00  0.00    +0.105 C 
BRANCH  33  34
ATOM     34  C   UNL     1       2.238  -0.291  -1.054  0.00  0.00    -0.036 A 
ATOM     35  C   UNL     1       3.044  -0.819  -0.063  0.00  0.00    +0.004 A 
ATOM     36  C   UNL     1       4.381  -0.472  -0.001  0.00  0.00    +0.000 A 
ATOM     37  C   UNL     1       4.912   0.403  -0.931  0.00  0.00    +0.000 A 
ATOM     38  C   UNL     1       4.106   0.929  -1.923  0.00  0.00    +0.000 A 
ATOM     39  C   UNL     1       2.770   0.579  -1.987  0.00  0.00    +0.004 A 
ENDBRANCH  33  34
BRANCH  33  41
ATOM     40  C   UNL     1       0.102   1.274   0.294  0.00  0.00    +0.005 C 
ATOM     41  C   UNL     1       0.085  -0.251   0.175  0.00  0.00    +0.014 C 
ENDBRANCH  33  41
ENDBRANCH   1  33
TORSDOF 8
