REMARK  Name = ZINC59446227
REMARK  11 active torsions:
REMARK  status: ('A' for Active; 'I' for Inactive)
REMARK    1  A    between atoms: C_1  and  C_2
REMARK    2  A    between atoms: C_5  and  N_9
REMARK    3  A    between atoms: C_6  and  C_8
REMARK    4  A    between atoms: C_13  and  S_17
REMARK    5  A    between atoms: S_17  and  C_18
REMARK    6  A    between atoms: N_19  and  C_20
REMARK    7  A    between atoms: C_23  and  O_26
REMARK    8  A    between atoms: O_26  and  C_27
REMARK    9  A    between atoms: N_28  and  C_29
REMARK   10  A    between atoms: C_29  and  C_30
REMARK   11  A    between atoms: C_30  and  C_31
REMARK                            x       y       z     vdW  Elec       q    Type
REMARK                         _______ _______ _______ _____ _____    ______ ____
ROOT
ATOM      1  C   UNL     1       3.186  -7.064  -1.147  0.00  0.00    +0.133 C 
ATOM      2  N   UNL     1       3.915  -7.444  -2.251  0.00  0.00    -0.296 N 
ATOM      3  N   UNL     1       3.794  -6.795  -0.025  0.00  0.00    -0.367 N 
ATOM      4  H   UNL     1       4.764  -6.776   0.009  0.00  0.00    +0.161 HD
ATOM      5  H   UNL     1       3.565  -7.285  -3.142  0.00  0.00    +0.154 HD
ENDROOT
BRANCH   2   6
ATOM      6  C   UNL     1       5.162  -8.061  -2.088  0.00  0.00    +0.033 A 
ATOM      7  C   UNL     1       5.429  -8.798  -0.943  0.00  0.00    +0.027 A 
ATOM      8  C   UNL     1       6.658  -9.406  -0.783  0.00  0.00    +0.047 A 
ATOM      9  C   UNL     1       7.627  -9.280  -1.768  0.00  0.00    +0.120 A 
ATOM     10  C   UNL     1       7.362  -8.543  -2.913  0.00  0.00    +0.047 A 
ATOM     11  C   UNL     1       6.131  -7.939  -3.076  0.00  0.00    +0.027 A 
BRANCH   9  12
ATOM     12  O   UNL     1       8.838  -9.878  -1.610  0.00  0.00    -0.495 OA
ATOM     13  C   UNL     1       9.789  -9.707  -2.663  0.00  0.00    +0.277 C 
ENDBRANCH   9  12
ENDBRANCH   2   6
BRANCH   1  14
ATOM     14  S   UNL     1       1.431  -6.939  -1.249  0.00  0.00    -0.079 S 
BRANCH  14  19
ATOM     15  N   UNL     1      -0.079 -10.122  -2.172  0.00  0.00    -0.209 N 
ATOM     16  C   UNL     1      -1.066  -9.337  -2.620  0.00  0.00    +0.228 C 
ATOM     17  O   UNL     1      -2.223  -9.673  -2.758  0.00  0.00    -0.275 OA
ATOM     18  C   UNL     1      -0.510  -7.964  -2.928  0.00  0.00    +0.120 C 
ATOM     19  C   UNL     1       0.986  -8.094  -2.576  0.00  0.00    +0.149 C 
ATOM     20  C   UNL     1       1.117  -9.524  -2.100  0.00  0.00    +0.240 C 
ATOM     21  O   UNL     1       2.142 -10.047  -1.718  0.00  0.00    -0.274 OA
BRANCH  15  26
ATOM     22  C   UNL     1      -0.901 -15.534  -0.671  0.00  0.00    +0.044 C 
ATOM     23  C   UNL     1      -0.683 -14.097  -1.070  0.00  0.00    -0.050 A 
ATOM     24  C   UNL     1      -0.754 -13.098  -0.116  0.00  0.00    +0.005 A 
ATOM     25  C   UNL     1      -0.554 -11.781  -0.478  0.00  0.00    +0.024 A 
ATOM     26  C   UNL     1      -0.282 -11.459  -1.801  0.00  0.00    +0.047 A 
ATOM     27  C   UNL     1      -0.211 -12.464  -2.756  0.00  0.00    -0.028 A 
ATOM     28  C   UNL     1      -0.407 -13.781  -2.387  0.00  0.00    +0.008 A 
ATOM     29  C   UNL     1       0.084 -12.119  -4.193  0.00  0.00    +0.046 C 
ENDBRANCH  15  26
ENDBRANCH  14  19
ENDBRANCH   1  14
BRANCH   3  30
ATOM     30  C   UNL     1       3.014  -6.523   1.185  0.00  0.00    +0.119 C 
BRANCH  30  31
ATOM     31  C   UNL     1       3.958  -6.130   2.324  0.00  0.00    +0.056 C 
BRANCH  31  32
ATOM     32  C   UNL     1       3.168  -5.967   3.597  0.00  0.00    -0.046 A 
ATOM     33  C   UNL     1       2.545  -4.765   3.875  0.00  0.00    +0.004 A 
ATOM     34  C   UNL     1       1.821  -4.616   5.043  0.00  0.00    +0.000 A 
ATOM     35  C   UNL     1       1.720  -5.669   5.933  0.00  0.00    +0.000 A 
ATOM     36  C   UNL     1       2.342  -6.871   5.654  0.00  0.00    +0.000 A 
ATOM     37  C   UNL     1       3.063  -7.022   4.484  0.00  0.00    +0.004 A 
ENDBRANCH  31  32
ENDBRANCH  30  31
ENDBRANCH   3  30
TORSDOF 8
