REMARK  Name = ZINC39446057
REMARK  7 active torsions:
REMARK  status: ('A' for Active; 'I' for Inactive)
REMARK    1  A    between atoms: C_1  and  C_2
REMARK    2  A    between atoms: C_5  and  N_8
REMARK    3  A    between atoms: C_9  and  C_26
REMARK    4  A    between atoms: C_17  and  C_19
REMARK    5  A    between atoms: C_29  and  C_32
REMARK    6  A    between atoms: C_32  and  O_34
REMARK    7  A    between atoms: O_34  and  C_35
REMARK                            x       y       z     vdW  Elec       q    Type
REMARK                         _______ _______ _______ _____ _____    ______ ____
ROOT
ATOM      1  N   UNL     1       0.059  -4.169  -0.021  0.00  0.00    -0.255 N 
ATOM      2  C   UNL     1       0.071  -5.042   1.161  0.00  0.00    +0.143 C 
ATOM      3  C   UNL     1       0.090  -6.447   0.634  0.00  0.00    +0.015 C 
ATOM      4  C   UNL     1       0.089  -6.381  -0.716  0.00  0.00    +0.149 C 
ATOM      5  C   UNL     1       0.064  -4.956  -1.111  0.00  0.00    +0.272 C 
ATOM      6  O   UNL     1       0.053  -4.554  -2.259  0.00  0.00    -0.268 OA
ATOM      7  N   UNL     1       0.106  -7.648  -1.229  0.00  0.00    -0.173 NA
ATOM      8  N   UNL     1       0.119  -8.546  -0.386  0.00  0.00    -0.297 N 
ATOM      9  C   UNL     1       0.110  -7.922   0.949  0.00  0.00    +0.159 C 
ATOM     10  H   UNL     1       0.131  -9.498  -0.569  0.00  0.00    +0.183 HD
ENDROOT
BRANCH   1  15
ATOM     11  C   UNL     1      -0.018   1.503   0.010  0.00  0.00    +0.044 C 
ATOM     12  C   UNL     1       0.002  -0.004   0.002  0.00  0.00    -0.050 A 
ATOM     13  C   UNL     1       0.006  -0.687  -1.200  0.00  0.00    +0.005 A 
ATOM     14  C   UNL     1       0.025  -2.068  -1.211  0.00  0.00    +0.024 A 
ATOM     15  C   UNL     1       0.041  -2.771  -0.013  0.00  0.00    +0.038 A 
ATOM     16  C   UNL     1       0.037  -2.081   1.192  0.00  0.00    +0.024 A 
ATOM     17  C   UNL     1       0.023  -0.700   1.197  0.00  0.00    +0.005 A 
ENDBRANCH   1  15
BRANCH   9  18
ATOM     18  C   UNL     1       1.355  -8.287   1.715  0.00  0.00    -0.019 A 
ATOM     19  C   UNL     1       2.553  -8.459   1.046  0.00  0.00    +0.007 A 
ATOM     20  C   UNL     1       3.695  -8.793   1.748  0.00  0.00    +0.015 A 
ATOM     21  C   UNL     1       3.641  -8.954   3.121  0.00  0.00    +0.018 A 
ATOM     22  C   UNL     1       2.443  -8.782   3.790  0.00  0.00    +0.015 A 
ATOM     23  C   UNL     1       1.302  -8.443   3.088  0.00  0.00    +0.007 A 
ATOM     24 BR   UNL     1       5.204  -9.412   4.082  0.00  0.00    -0.050 Br
ENDBRANCH   9  18
BRANCH   2  25
ATOM     25  C   UNL     1      -1.167  -4.812   1.989  0.00  0.00    -0.022 A 
ATOM     26  C   UNL     1      -2.382  -4.596   1.365  0.00  0.00    +0.006 A 
ATOM     27  C   UNL     1      -3.520  -4.386   2.116  0.00  0.00    +0.015 A 
ATOM     28  C   UNL     1      -3.442  -4.390   3.510  0.00  0.00    +0.059 A 
ATOM     29  C   UNL     1      -2.212  -4.609   4.134  0.00  0.00    +0.015 A 
ATOM     30  C   UNL     1      -1.083  -4.824   3.370  0.00  0.00    +0.006 A 
BRANCH  28  31
ATOM     31  C   UNL     1      -4.655  -4.165   4.322  0.00  0.00    +0.339 C 
ATOM     32  O   UNL     1      -5.724  -3.975   3.777  0.00  0.00    -0.245 OA
BRANCH  31  33
ATOM     33  O   UNL     1      -4.577  -4.170   5.667  0.00  0.00    -0.464 OA
ATOM     34  C   UNL     1      -5.790  -3.945   6.389  0.00  0.00    +0.280 C 
ENDBRANCH  31  33
ENDBRANCH  28  31
ENDBRANCH   2  25
TORSDOF 5
