REMARK  Name = ZINC13942736
REMARK  9 active torsions:
REMARK  status: ('A' for Active; 'I' for Inactive)
REMARK    1  A    between atoms: C_1  and  C_2
REMARK    2  A    between atoms: C_3  and  C_12
REMARK    3  A    between atoms: N_10  and  C_11
REMARK    4  A    between atoms: N_22  and  C_23
REMARK    5  A    between atoms: C_23  and  C_24
REMARK    6  A    between atoms: N_26  and  C_27
REMARK    7  A    between atoms: C_28  and  C_40
REMARK    8  A    between atoms: N_29  and  C_39
REMARK    9  A    between atoms: N_30  and  C_33
REMARK                            x       y       z     vdW  Elec       q    Type
REMARK                         _______ _______ _______ _____ _____    ______ ____
ROOT
ATOM      1  C   UNL     1       4.077   3.556  -0.004  0.00  0.00    +0.140 C 
ATOM      2  C   UNL     1       3.717   4.279   1.270  0.00  0.00    -0.010 A 
ATOM      3  C   UNL     1       4.041   4.078   2.591  0.00  0.00    +0.006 A 
ATOM      4  C   UNL     1       3.546   4.932   3.562  0.00  0.00    +0.000 A 
ATOM      5  C   UNL     1       2.726   5.989   3.208  0.00  0.00    +0.001 A 
ATOM      6  C   UNL     1       2.395   6.199   1.885  0.00  0.00    +0.013 A 
ATOM      7  C   UNL     1       2.890   5.343   0.900  0.00  0.00    +0.042 A 
ATOM      8  C   UNL     1       2.719   5.309  -0.565  0.00  0.00    +0.248 C 
ATOM      9  O   UNL     1       2.055   6.101  -1.205  0.00  0.00    -0.270 OA
ATOM     10  N   UNL     1       3.404   4.278  -1.090  0.00  0.00    -0.278 N 
ENDROOT
BRANCH   1  13
ATOM     11  C   UNL     1       5.831   1.036   0.447  0.00  0.00    +0.064 C 
ATOM     12  C   UNL     1       4.337   1.037   0.247  0.00  0.00    +0.022 A 
ATOM     13  C   UNL     1       3.587   2.132   0.052  0.00  0.00    +0.006 A 
ATOM     14  C   UNL     1       2.200   1.681  -0.094  0.00  0.00    +0.005 A 
ATOM     15  C   UNL     1       0.986   2.334  -0.313  0.00  0.00    +0.010 A 
ATOM     16  C   UNL     1      -0.168   1.607  -0.405  0.00  0.00    +0.001 A 
ATOM     17  C   UNL     1      -0.142   0.224  -0.283  0.00  0.00    +0.002 A 
ATOM     18  C   UNL     1       1.046  -0.440  -0.067  0.00  0.00    +0.026 A 
ATOM     19  C   UNL     1       2.232   0.281   0.030  0.00  0.00    +0.049 A 
ATOM     20  N   UNL     1       3.545  -0.079   0.236  0.00  0.00    -0.347 N 
ATOM     21  C   UNL     1       4.023  -1.452   0.418  0.00  0.00    +0.149 C 
ENDBRANCH   1  13
BRANCH  10  22
ATOM     22  C   UNL     1       3.467   3.933  -2.513  0.00  0.00    +0.205 C 
BRANCH  22  23
ATOM     23  C   UNL     1       4.697   4.551  -3.125  0.00  0.00    +0.235 C 
ATOM     24  O   UNL     1       5.494   5.139  -2.424  0.00  0.00    -0.274 OA
ATOM     25  N   UNL     1       4.912   4.452  -4.452  0.00  0.00    -0.278 N 
ATOM     26  H   UNL     1       4.310   3.927  -5.003  0.00  0.00    +0.155 HD
BRANCH  25  27
ATOM     27  C   UNL     1       6.010   5.111  -5.040  0.00  0.00    +0.121 A 
ATOM     28  C   UNL     1       6.279   5.199  -6.362  0.00  0.00    +0.059 A 
ATOM     29  N   UNL     1       7.432   5.919  -6.526  0.00  0.00    -0.282 N 
ATOM     30  N   UNL     1       7.916   6.304  -5.271  0.00  0.00    -0.216 N 
ATOM     31  C   UNL     1       7.068   5.833  -4.333  0.00  0.00    +0.293 A 
ATOM     32  O   UNL     1       7.167   5.979  -3.128  0.00  0.00    -0.264 OA
ATOM     33  C   UNL     1       8.060   6.236  -7.812  0.00  0.00    +0.171 C 
ATOM     34  C   UNL     1       5.448   4.604  -7.469  0.00  0.00    +0.067 C 
BRANCH  30  35
ATOM     35  C   UNL     1       9.073   7.053  -5.031  0.00  0.00    +0.067 A 
ATOM     36  C   UNL     1      10.286   6.654  -5.578  0.00  0.00    +0.028 A 
ATOM     37  C   UNL     1      11.425   7.398  -5.343  0.00  0.00    +0.002 A 
ATOM     38  C   UNL     1      11.361   8.533  -4.555  0.00  0.00    +0.000 A 
ATOM     39  C   UNL     1      10.157   8.929  -4.003  0.00  0.00    +0.002 A 
ATOM     40  C   UNL     1       9.012   8.192  -4.239  0.00  0.00    +0.028 A 
ENDBRANCH  30  35
ENDBRANCH  25  27
ENDBRANCH  22  23
ENDBRANCH  10  22
TORSDOF 5
