REMARK  Name = ZINC49026087
REMARK  10 active torsions:
REMARK  status: ('A' for Active; 'I' for Inactive)
REMARK    1  A    between atoms: C_1  and  C_2
REMARK    2  A    between atoms: C_2  and  C_3
REMARK    3  A    between atoms: C_3  and  N_4
REMARK    4  A    between atoms: C_5  and  C_7
REMARK    5  A    between atoms: C_7  and  N_8
REMARK    6  A    between atoms: N_8  and  C_9
REMARK    7  A    between atoms: N_8  and  C_10
REMARK    8  A    between atoms: C_10  and  C_11
REMARK    9  A    between atoms: N_13  and  C_14
REMARK   10  A    between atoms: C_17  and  N_21
REMARK                            x       y       z     vdW  Elec       q    Type
REMARK                         _______ _______ _______ _____ _____    ______ ____
ROOT
ATOM      1  C   UNL     1       3.057  -6.590   4.503  0.00  0.00    +0.201 C 
ATOM      2  O   UNL     1       3.498  -5.797   5.309  0.00  0.00    -0.278 OA
ATOM      3  N   UNL     1       3.304  -7.907   4.649  0.00  0.00    -0.286 N 
ATOM      4  H   UNL     1       2.886  -8.547   4.052  0.00  0.00    +0.155 HD
ENDROOT
BRANCH   3   5
ATOM      5  C   UNL     1       4.165  -8.351   5.662  0.00  0.00    +0.048 A 
ATOM      6  C   UNL     1       5.139  -7.500   6.167  0.00  0.00    +0.026 A 
ATOM      7  C   UNL     1       5.987  -7.937   7.165  0.00  0.00    +0.024 A 
ATOM      8  C   UNL     1       5.866  -9.228   7.665  0.00  0.00    +0.026 A 
ATOM      9  C   UNL     1       4.892 -10.079   7.160  0.00  0.00    +0.039 A 
ATOM     10  C   UNL     1       4.039  -9.639   6.165  0.00  0.00    +0.041 A 
ATOM     11 BR   UNL     1       2.708 -10.795   5.482  0.00  0.00    -0.048 Br
BRANCH   8  12
ATOM     12  N   UNL     1       6.726  -9.670   8.675  0.00  0.00    -0.358 N 
ATOM     13  H   UNL     1       7.406  -9.076   9.028  0.00  0.00    +0.142 HD
ATOM     14  H   UNL     1       6.641 -10.571   9.024  0.00  0.00    +0.142 HD
ENDBRANCH   8  12
ENDBRANCH   3   5
BRANCH   1  15
ATOM     15  C   UNL     1       2.232  -6.102   3.340  0.00  0.00    +0.019 C 
BRANCH  15  16
ATOM     16  N   UNL     1       2.109  -4.639   3.407  0.00  0.00    +0.389 N 
ATOM     17  C   UNL     1       1.347  -4.267   4.607  0.00  0.00    -0.095 C 
ATOM     18  H   UNL     1       3.028  -4.226   3.450  0.00  0.00    -0.081 HD
BRANCH  16  19
ATOM     19  C   UNL     1       1.408  -4.152   2.211  0.00  0.00    +0.019 C 
BRANCH  19  21
ATOM     20  N   UNL     1       0.796  -1.973   1.213  0.00  0.00    -0.317 N 
ATOM     21  C   UNL     1       1.389  -2.645   2.219  0.00  0.00    +0.196 C 
ATOM     22  O   UNL     1       1.908  -2.037   3.131  0.00  0.00    -0.278 OA
ATOM     23  H   UNL     1       0.381  -2.460   0.483  0.00  0.00    +0.149 HD
BRANCH  20  24
ATOM     24  C   UNL     1       0.777  -0.508   1.221  0.00  0.00    +0.104 C 
BRANCH  24  26
ATOM     25  C   UNL     1       0.029   1.529  -0.017  0.00  0.00    +0.005 C 
ATOM     26  C   UNL     1       0.048  -0.001  -0.025  0.00  0.00    +0.015 C 
ENDBRANCH  24  26
ENDBRANCH  20  24
ENDBRANCH  19  21
ENDBRANCH  16  19
ENDBRANCH  15  16
ENDBRANCH   1  15
TORSDOF 8
