REMARK  Name = ZINC40917563
REMARK  11 active torsions:
REMARK  status: ('A' for Active; 'I' for Inactive)
REMARK    1  A    between atoms: C_1  and  C_2
REMARK    2  A    between atoms: C_5  and  N_9
REMARK    3  A    between atoms: C_6  and  C_8
REMARK    4  A    between atoms: C_10  and  C_12
REMARK    5  A    between atoms: C_13  and  C_38
REMARK    6  A    between atoms: C_20  and  C_22
REMARK    7  A    between atoms: C_25  and  O_30
REMARK    8  A    between atoms: C_26  and  O_28
REMARK    9  A    between atoms: O_28  and  C_29
REMARK   10  A    between atoms: O_30  and  C_31
REMARK   11  A    between atoms: C_31  and  C_32
REMARK                            x       y       z     vdW  Elec       q    Type
REMARK                         _______ _______ _______ _____ _____    ______ ____
ROOT
ATOM      1  C   UNL     1       0.727  -8.076  -2.442  0.00  0.00    +0.060 C 
ATOM      2  C   UNL     1       0.899  -8.626  -3.654  0.00  0.00    +0.018 C 
ATOM      3  N   UNL     1       1.352  -9.912  -3.818  0.00  0.00    -0.286 N 
ATOM      4  C   UNL     1       1.388 -10.724  -2.694  0.00  0.00    +0.240 A 
ATOM      5  N   UNL     1       1.558 -12.009  -2.575  0.00  0.00    -0.092 NA
ATOM      6  N   UNL     1       1.514 -12.353  -1.333  0.00  0.00    -0.021 NA
ATOM      7  N   UNL     1       1.316 -11.316  -0.585  0.00  0.00    -0.042 NA
ATOM      8  N   UNL     1       1.230 -10.220  -1.442  0.00  0.00    -0.201 N 
ATOM      9  C   UNL     1       1.029  -8.803  -1.159  0.00  0.00    +0.179 C 
ATOM     10  C   UNL     1       0.584  -7.803  -4.877  0.00  0.00    +0.061 C 
ATOM     11  H   UNL     1       1.636 -10.239  -4.686  0.00  0.00    +0.155 HD
ENDROOT
BRANCH   9  12
ATOM     12  C   UNL     1       2.275  -8.228  -0.537  0.00  0.00    -0.015 A 
ATOM     13  C   UNL     1       3.489  -8.348  -1.187  0.00  0.00    +0.010 A 
ATOM     14  C   UNL     1       4.635  -7.822  -0.621  0.00  0.00    +0.050 A 
ATOM     15  C   UNL     1       4.569  -7.172   0.602  0.00  0.00    +0.162 A 
ATOM     16  C   UNL     1       3.347  -7.051   1.256  0.00  0.00    +0.162 A 
ATOM     17  C   UNL     1       2.201  -7.577   0.680  0.00  0.00    +0.055 A 
BRANCH  16  18
ATOM     18  O   UNL     1       3.276  -6.415   2.456  0.00  0.00    -0.491 OA
ATOM     19  C   UNL     1       1.990  -6.335   3.073  0.00  0.00    +0.277 C 
ENDBRANCH  16  18
BRANCH  15  20
ATOM     20  O   UNL     1       5.695  -6.655   1.160  0.00  0.00    -0.484 OA
BRANCH  20  21
ATOM     21  C   UNL     1       6.914  -6.817   0.432  0.00  0.00    +0.264 C 
BRANCH  21  22
ATOM     22  C   UNL     1       8.046  -6.185   1.200  0.00  0.00    -0.010 A 
ATOM     23  C   UNL     1       8.364  -4.855   0.994  0.00  0.00    +0.007 A 
ATOM     24  C   UNL     1       9.402  -4.275   1.699  0.00  0.00    +0.000 A 
ATOM     25  C   UNL     1      10.123  -5.025   2.610  0.00  0.00    +0.000 A 
ATOM     26  C   UNL     1       9.804  -6.354   2.817  0.00  0.00    +0.000 A 
ATOM     27  C   UNL     1       8.763  -6.933   2.115  0.00  0.00    +0.007 A 
ENDBRANCH  21  22
ENDBRANCH  20  21
ENDBRANCH  15  20
ENDBRANCH   9  12
BRANCH   1  29
ATOM     28  N   UNL     1       1.067  -5.715  -2.634  0.00  0.00    -0.281 N 
ATOM     29  C   UNL     1       0.244  -6.748  -2.367  0.00  0.00    +0.248 C 
ATOM     30  O   UNL     1      -0.916  -6.539  -2.062  0.00  0.00    -0.270 OA
ATOM     31  H   UNL     1       1.961  -5.883  -2.971  0.00  0.00    +0.155 HD
BRANCH  28  36
ATOM     32  C   UNL     1      -0.696  -0.391  -1.787  0.00  0.00    +0.044 C 
ATOM     33  C   UNL     1      -0.227  -1.806  -2.012  0.00  0.00    -0.050 A 
ATOM     34  C   UNL     1      -1.139  -2.789  -2.348  0.00  0.00    +0.005 A 
ATOM     35  C   UNL     1      -0.714  -4.086  -2.555  0.00  0.00    +0.024 A 
ATOM     36  C   UNL     1       0.633  -4.403  -2.425  0.00  0.00    +0.037 A 
ATOM     37  C   UNL     1       1.546  -3.413  -2.087  0.00  0.00    -0.029 A 
ATOM     38  C   UNL     1       1.114  -2.116  -1.887  0.00  0.00    +0.008 A 
ATOM     39  C   UNL     1       3.008  -3.752  -1.945  0.00  0.00    +0.045 C 
ENDBRANCH  28  36
ENDBRANCH   1  29
TORSDOF 7
