REMARK  Name = ZINC41069999
REMARK  6 active torsions:
REMARK  status: ('A' for Active; 'I' for Inactive)
REMARK    1  A    between atoms: C_1  and  C_2
REMARK    2  A    between atoms: C_5  and  N_8
REMARK    3  A    between atoms: N_8  and  S_9
REMARK    4  A    between atoms: S_9  and  C_12
REMARK    5  A    between atoms: C_17  and  N_18
REMARK    6  A    between atoms: N_18  and  N_19
REMARK                            x       y       z     vdW  Elec       q    Type
REMARK                         _______ _______ _______ _____ _____    ______ ____
ROOT
ATOM      1  S   UNL     1       1.068  -4.902   1.073  0.00  0.00    +0.076 S 
ATOM      2  O   UNL     1       1.008  -6.313   0.920  0.00  0.00    -0.150 OA
ATOM      3  O   UNL     1       2.280  -4.171   0.938  0.00  0.00    -0.150 OA
ENDROOT
BRANCH   1   4
ATOM      4  C   UNL     1       0.439  -4.541   2.679  0.00  0.00    +0.150 A 
ATOM      5  C   UNL     1       0.051  -5.564   3.525  0.00  0.00    +0.049 A 
ATOM      6  C   UNL     1      -0.440  -5.234   4.782  0.00  0.00    +0.038 A 
ATOM      7  C   UNL     1      -0.524  -3.904   5.147  0.00  0.00    +0.128 A 
ATOM      8  N   UNL     1      -0.146  -2.950   4.318  0.00  0.00    -0.236 NA
ATOM      9  C   UNL     1       0.332  -3.224   3.114  0.00  0.00    +0.159 A 
ATOM     10 BR   UNL     1      -0.986  -6.590   5.981  0.00  0.00    -0.049 Br
BRANCH   9  11
ATOM     11  N   UNL     1       0.725  -2.187   2.276  0.00  0.00    -0.266 N 
ATOM     12  H   UNL     1       1.138  -2.385   1.421  0.00  0.00    +0.167 HD
BRANCH  11  13
ATOM     13  N   UNL     1       0.530  -0.890   2.657  0.00  0.00    -0.255 NA
ATOM     14  H   UNL     1       1.036  -0.682   3.504  0.00  0.00    +0.140 HD
ATOM     15  H   UNL     1       0.787  -0.254   1.917  0.00  0.00    +0.140 HD
ENDBRANCH  11  13
ENDBRANCH   9  11
ENDBRANCH   1   4
BRANCH   1  16
ATOM     16  N   UNL     1       0.005  -4.262  -0.024  0.00  0.00    -0.216 N 
ATOM     17  H   UNL     1       0.301  -3.574  -0.642  0.00  0.00    +0.174 HD
BRANCH  16  22
ATOM     18  C   UNL     1      -5.361  -6.089  -0.173  0.00  0.00    +0.044 C 
ATOM     19  C   UNL     1      -3.935  -5.603  -0.134  0.00  0.00    -0.050 A 
ATOM     20  C   UNL     1      -3.667  -4.247  -0.164  0.00  0.00    +0.005 A 
ATOM     21  C   UNL     1      -2.361  -3.799  -0.128  0.00  0.00    +0.025 A 
ATOM     22  C   UNL     1      -1.316  -4.712  -0.061  0.00  0.00    +0.048 A 
ATOM     23  C   UNL     1      -1.589  -6.074  -0.030  0.00  0.00    +0.025 A 
ATOM     24  C   UNL     1      -2.897  -6.515  -0.061  0.00  0.00    +0.005 A 
ENDBRANCH  16  22
ENDBRANCH   1  16
TORSDOF 5
