REMARK  Name = ZINC17956768
REMARK  11 active torsions:
REMARK  status: ('A' for Active; 'I' for Inactive)
REMARK    1  A    between atoms: C_1  and  C_2
REMARK    2  A    between atoms: C_3  and  C_26
REMARK    3  A    between atoms: C_5  and  N_19
REMARK    4  A    between atoms: C_6  and  C_7
REMARK    5  A    between atoms: C_7  and  O_9
REMARK    6  A    between atoms: O_9  and  C_10
REMARK    7  A    between atoms: C_10  and  C_11
REMARK    8  A    between atoms: C_20  and  C_22
REMARK    9  A    between atoms: C_22  and  C_23
REMARK   10  A    between atoms: C_22  and  C_24
REMARK   11  A    between atoms: C_22  and  C_25
REMARK                            x       y       z     vdW  Elec       q    Type
REMARK                         _______ _______ _______ _____ _____    ______ ____
ROOT
ATOM      1  C   UNL     1       1.077   5.325   1.565  0.00  0.00    +0.342 C 
ATOM      2  O   UNL     1       1.056   6.071   0.604  0.00  0.00    -0.245 OA
ENDROOT
BRANCH   1   8
ATOM      3  C   UNL     1       3.653   5.938   2.971  0.00  0.00    +0.045 C 
ATOM      4  C   UNL     1       2.312   6.179   3.614  0.00  0.00    -0.025 A 
ATOM      5  C   UNL     1       2.209   6.688   4.854  0.00  0.00    -0.008 A 
ATOM      6  S   UNL     1       0.451   6.762   5.124  0.00  0.00    -0.078 S 
ATOM      7  C   UNL     1      -0.101   6.133   3.608  0.00  0.00    +0.086 A 
ATOM      8  C   UNL     1       1.081   5.878   2.921  0.00  0.00    +0.091 A 
ATOM      9  C   UNL     1       3.317   7.094   5.792  0.00  0.00    +0.052 C 
BRANCH   7  10
ATOM     10  N   UNL     1      -1.405   5.933   3.183  0.00  0.00    -0.279 N 
ATOM     11  C   UNL     1      -2.434   6.242   3.996  0.00  0.00    +0.223 C 
ATOM     12  O   UNL     1      -2.220   6.696   5.099  0.00  0.00    -0.275 OA
ATOM     13  H   UNL     1      -1.577   5.569   2.300  0.00  0.00    +0.155 HD
BRANCH  11  14
ATOM     14  C   UNL     1      -3.852   6.025   3.533  0.00  0.00    +0.039 C 
ATOM     15  C   UNL     1      -4.821   6.454   4.637  0.00  0.00    +0.020 C 
ATOM     16  C   UNL     1      -4.111   6.856   2.275  0.00  0.00    +0.020 C 
ATOM     17  C   UNL     1      -4.064   4.543   3.217  0.00  0.00    +0.020 C 
ENDBRANCH  11  14
ENDBRANCH   7  10
ENDBRANCH   1   8
BRANCH   1  18
ATOM     18  O   UNL     1       1.098   3.989   1.381  0.00  0.00    -0.453 OA
BRANCH  18  19
ATOM     19  C   UNL     1       1.093   3.512   0.010  0.00  0.00    +0.308 C 
BRANCH  19  20
ATOM     20  C   UNL     1       1.118   2.005   0.002  0.00  0.00    +0.173 A 
ATOM     21  N   UNL     1      -0.016   1.327   0.009  0.00  0.00    -0.196 NA
ATOM     22  C   UNL     1       0.002  -0.004   0.002  0.00  0.00    +0.217 A 
ATOM     23  N   UNL     1       1.163  -0.651  -0.013  0.00  0.00    -0.181 NA
ATOM     24  C   UNL     1       2.301   0.034  -0.020  0.00  0.00    +0.217 A 
ATOM     25  N   UNL     1       2.275   1.365  -0.012  0.00  0.00    -0.196 NA
ATOM     26  N   UNL     1       3.509  -0.633  -0.034  0.00  0.00    -0.327 N 
ATOM     27  N   UNL     1      -1.183  -0.711   0.009  0.00  0.00    -0.327 N 
ATOM     28  H   UNL     1       3.527  -1.603  -0.039  0.00  0.00    +0.145 HD
ATOM     29  H   UNL     1       4.339  -0.132  -0.040  0.00  0.00    +0.145 HD
ATOM     30  H   UNL     1      -2.030  -0.238   0.019  0.00  0.00    +0.145 HD
ATOM     31  H   UNL     1      -1.169  -1.681   0.004  0.00  0.00    +0.145 HD
ENDBRANCH  19  20
ENDBRANCH  18  19
ENDBRANCH   1  18
TORSDOF 6
