REMARK  Name = ZINC03376433
REMARK  11 active torsions:
REMARK  status: ('A' for Active; 'I' for Inactive)
REMARK    1  A    between atoms: C_1  and  C_2
REMARK    2  A    between atoms: C_7  and  N_8
REMARK    3  A    between atoms: C_11  and  C_16
REMARK    4  A    between atoms: C_16  and  S_17
REMARK    5  A    between atoms: S_17  and  C_18
REMARK    6  A    between atoms: C_21  and  C_30
REMARK    7  A    between atoms: N_22  and  C_23
REMARK    8  A    between atoms: C_30  and  C_32
REMARK    9  A    between atoms: C_30  and  N_60
REMARK   10  A    between atoms: C_33  and  N_60
REMARK   11  A    between atoms: C_34  and  N_60
REMARK                            x       y       z     vdW  Elec       q    Type
REMARK                         _______ _______ _______ _____ _____    ______ ____
ROOT
ATOM      1  C   UNL     1      -3.606  -4.851  -0.407  0.00  0.00    +0.153 C 
ENDROOT
BRANCH   1   5
ATOM      2  N   UNL     1      -1.198  -0.721   0.010  0.00  0.00    -0.283 N 
ATOM      3  C   UNL     1      -1.181  -2.098  -0.102  0.00  0.00    +0.224 A 
ATOM      4  N   UNL     1      -2.325  -2.774  -0.189  0.00  0.00    -0.198 NA
ATOM      5  C   UNL     1      -2.309  -4.090  -0.301  0.00  0.00    +0.146 A 
ATOM      6  N   UNL     1      -1.160  -4.742  -0.317  0.00  0.00    -0.199 NA
ATOM      7  C   UNL     1      -0.012  -4.074  -0.225  0.00  0.00    +0.217 A 
ATOM      8  N   UNL     1      -0.024  -2.750  -0.117  0.00  0.00    -0.181 NA
ATOM      9  N   UNL     1       1.187  -4.755  -0.242  0.00  0.00    -0.327 N 
ATOM     10  H   UNL     1      -2.036  -0.239  -0.068  0.00  0.00    +0.155 HD
ATOM     11  H   UNL     1       2.023  -4.268  -0.175  0.00  0.00    +0.145 HD
ATOM     12  H   UNL     1       1.195  -5.722  -0.320  0.00  0.00    +0.145 HD
BRANCH   2  19
ATOM     13  C   UNL     1      -0.988   1.935  -0.989  0.00  0.00    +0.045 C 
ATOM     14  C   UNL     1       0.136   1.276  -0.231  0.00  0.00    -0.029 A 
ATOM     15  C   UNL     1       1.313   1.963  -0.005  0.00  0.00    +0.005 A 
ATOM     16  C   UNL     1       2.347   1.358   0.685  0.00  0.00    +0.000 A 
ATOM     17  C   UNL     1       2.207   0.064   1.152  0.00  0.00    +0.002 A 
ATOM     18  C   UNL     1       1.033  -0.628   0.930  0.00  0.00    +0.023 A 
ATOM     19  C   UNL     1      -0.008  -0.023   0.236  0.00  0.00    +0.036 A 
ENDBRANCH   2  19
ENDBRANCH   1   5
BRANCH   1  20
ATOM     20  S   UNL     1      -4.181  -5.295   1.251  0.00  0.00    -0.078 S 
BRANCH  20  21
ATOM     21  C   UNL     1      -5.667  -6.148   0.841  0.00  0.00    +0.196 A 
ATOM     22  N   UNL     1      -6.142  -6.354  -0.365  0.00  0.00    -0.122 NA
ATOM     23  N   UNL     1      -7.244  -7.011  -0.296  0.00  0.00    -0.135 NA
ATOM     24  C   UNL     1      -7.539  -7.263   0.948  0.00  0.00    +0.125 A 
ATOM     25  N   UNL     1      -6.542  -6.727   1.719  0.00  0.00    -0.275 N 
BRANCH  25  26
ATOM     26  C   UNL     1      -6.441  -6.761   3.118  0.00  0.00    +0.050 A 
ATOM     27  C   UNL     1      -6.276  -7.974   3.773  0.00  0.00    +0.028 A 
ATOM     28  C   UNL     1      -6.172  -8.005   5.150  0.00  0.00    +0.022 A 
ATOM     29  C   UNL     1      -6.242  -6.830   5.877  0.00  0.00    +0.041 A 
ATOM     30  C   UNL     1      -6.411  -5.620   5.226  0.00  0.00    +0.022 A 
ATOM     31  C   UNL     1      -6.511  -5.584   3.849  0.00  0.00    +0.028 A 
ATOM     32 CL   UNL     1      -6.116  -6.872   7.608  0.00  0.00    -0.084 Cl
ENDBRANCH  25  26
BRANCH  24  33
ATOM     33  C   UNL     1      -8.749  -8.011   1.446  0.00  0.00    -0.003 C 
ATOM     34  C   UNL     1      -9.983  -7.114   1.337  0.00  0.00    -0.005 C 
BRANCH  33  37
ATOM     35  C   UNL     1     -10.047 -10.035   1.161  0.00  0.00    -0.096 C 
ATOM     36  C   UNL     1      -9.180  -8.871  -0.776  0.00  0.00    -0.096 C 
ATOM     37  N   UNL     1      -8.923  -9.234   0.633  0.00  0.00    +0.382 N 
ATOM     38  H   UNL     1      -8.063  -9.792   0.682  0.00  0.00    -0.082 HD
ENDBRANCH  33  37
ENDBRANCH  24  33
ENDBRANCH  20  21
ENDBRANCH   1  20
TORSDOF 7
