REMARK  Name = ZINC58436543
REMARK  13 active torsions:
REMARK  status: ('A' for Active; 'I' for Inactive)
REMARK    1  A    between atoms: C_1  and  C_2
REMARK    2  A    between atoms: C_2  and  C_4
REMARK    3  A    between atoms: C_2  and  N_14
REMARK    4  A    between atoms: C_8  and  S_10
REMARK    5  A    between atoms: S_10  and  N_13
REMARK    6  A    between atoms: N_17  and  C_18
REMARK    7  A    between atoms: C_18  and  C_19
REMARK    8  A    between atoms: C_19  and  C_21
REMARK    9  A    between atoms: C_19  and  N_29
REMARK   10  A    between atoms: C_26  and  O_27
REMARK   11  A    between atoms: O_27  and  C_28
REMARK   12  A    between atoms: N_29  and  C_30
REMARK   13  A    between atoms: N_29  and  C_31
REMARK                            x       y       z     vdW  Elec       q    Type
REMARK                         _______ _______ _______ _____ _____    ______ ____
ROOT
ATOM      1  N   UNL     1       0.633   0.090   1.585  0.00  0.00    -0.293 N 
ATOM      2  C   UNL     1      -0.018  -0.269   2.708  0.00  0.00    +0.300 C 
ATOM      3  O   UNL     1      -1.216  -0.085   2.802  0.00  0.00    -0.253 OA
ATOM      4  N   UNL     1       0.659  -0.832   3.729  0.00  0.00    -0.301 N 
ATOM      5  H   UNL     1       1.589  -0.056   1.510  0.00  0.00    +0.151 HD
ATOM      6  H   UNL     1       1.615  -0.978   3.654  0.00  0.00    +0.150 HD
ENDROOT
BRANCH   1   8
ATOM      7  C   UNL     1      -0.222   2.209   0.712  0.00  0.00    +0.033 C 
ATOM      8  C   UNL     1      -0.103   0.702   0.475  0.00  0.00    +0.102 C 
BRANCH   8   9
ATOM      9  C   UNL     1       0.635   0.454  -0.815  0.00  0.00    -0.026 A 
ATOM     10  C   UNL     1       2.015   0.528  -0.847  0.00  0.00    +0.005 A 
ATOM     11  C   UNL     1       2.692   0.300  -2.031  0.00  0.00    +0.002 A 
ATOM     12  C   UNL     1       1.989  -0.003  -3.182  0.00  0.00    +0.028 A 
ATOM     13  C   UNL     1       0.609  -0.078  -3.149  0.00  0.00    +0.105 A 
ATOM     14  C   UNL     1      -0.067   0.146  -1.965  0.00  0.00    +0.034 A 
BRANCH  13  15
ATOM     15  S   UNL     1      -0.287  -0.464  -4.617  0.00  0.00    +0.056 S 
ATOM     16  O   UNL     1      -1.595   0.063  -4.443  0.00  0.00    -0.153 OA
ATOM     17  O   UNL     1       0.544  -0.095  -5.709  0.00  0.00    -0.153 OA
BRANCH  15  18
ATOM     18  N   UNL     1      -0.444  -2.111  -4.676  0.00  0.00    -0.204 NA
ATOM     19  H   UNL     1      -1.216  -2.510  -5.106  0.00  0.00    +0.144 HD
ATOM     20  H   UNL     1       0.237  -2.678  -4.281  0.00  0.00    +0.144 HD
ENDBRANCH  15  18
ENDBRANCH  13  15
ENDBRANCH   8   9
ENDBRANCH   1   8
BRANCH   4  21
ATOM     21  C   UNL     1      -0.048  -1.222   4.951  0.00  0.00    +0.095 C 
BRANCH  21  22
ATOM     22  C   UNL     1       0.918  -1.946   5.890  0.00  0.00    -0.017 C 
BRANCH  22  23
ATOM     23  C   UNL     1       1.983  -0.986   6.353  0.00  0.00    -0.018 A 
ATOM     24  C   UNL     1       3.192  -0.921   5.687  0.00  0.00    +0.005 A 
ATOM     25  C   UNL     1       4.170  -0.041   6.112  0.00  0.00    +0.000 A 
ATOM     26  C   UNL     1       3.941   0.777   7.203  0.00  0.00    +0.004 A 
ATOM     27  C   UNL     1       2.734   0.716   7.872  0.00  0.00    +0.046 A 
ATOM     28  C   UNL     1       1.749  -0.163   7.445  0.00  0.00    +0.122 A 
BRANCH  28  29
ATOM     29  O   UNL     1       0.558  -0.221   8.098  0.00  0.00    -0.495 OA
ATOM     30  C   UNL     1       0.387   0.656   9.213  0.00  0.00    +0.277 C 
ENDBRANCH  28  29
ENDBRANCH  22  23
BRANCH  22  31
ATOM     31  N   UNL     1       1.545  -3.068   5.178  0.00  0.00    +0.382 N 
ATOM     32  C   UNL     1       2.440  -3.789   6.093  0.00  0.00    -0.096 C 
ATOM     33  C   UNL     1       0.504  -3.981   4.689  0.00  0.00    -0.096 C 
ATOM     34  H   UNL     1       2.077  -2.715   4.397  0.00  0.00    -0.082 HD
ENDBRANCH  22  31
ENDBRANCH  21  22
ENDBRANCH   4  21
TORSDOF 9
