REMARK  Name = ZINC02138806
REMARK  9 active torsions:
REMARK  status: ('A' for Active; 'I' for Inactive)
REMARK    1  A    between atoms: C_1  and  C_2
REMARK    2  A    between atoms: C_4  and  C_37
REMARK    3  A    between atoms: C_13  and  C_15
REMARK    4  A    between atoms: C_15  and  C_16
REMARK    5  A    between atoms: C_16  and  C_17
REMARK    6  A    between atoms: N_22  and  C_25
REMARK    7  A    between atoms: C_25  and  C_26
REMARK    8  A    between atoms: C_31  and  O_32
REMARK    9  A    between atoms: O_32  and  C_33
REMARK                            x       y       z     vdW  Elec       q    Type
REMARK                         _______ _______ _______ _____ _____    ______ ____
ROOT
ATOM      1  C   UNL     1      -1.825  -1.309   1.915  0.00  0.00    +0.044 C 
ATOM      2  C   UNL     1      -0.650  -0.365   1.927  0.00  0.00    -0.050 A 
ATOM      3  C   UNL     1      -0.805   0.929   2.389  0.00  0.00    +0.008 A 
ATOM      4  C   UNL     1       0.267   1.797   2.403  0.00  0.00    -0.029 A 
ATOM      5  C   UNL     1       1.515   1.376   1.949  0.00  0.00    +0.039 A 
ATOM      6  C   UNL     1       1.659   0.072   1.484  0.00  0.00    -0.027 A 
ATOM      7  C   UNL     1       0.586  -0.791   1.474  0.00  0.00    +0.008 A 
ATOM      8  C   UNL     1       3.097  -0.060   1.072  0.00  0.00    +0.050 C 
ATOM      9  C   UNL     1       3.224  -0.429  -0.412  0.00  0.00    +0.088 C 
ATOM     10  C   UNL     1       4.459  -1.371  -0.476  0.00  0.00    +0.073 C 
ATOM     11  C   UNL     1       4.963  -1.463   0.980  0.00  0.00    -0.057 C 
ATOM     12  C   UNL     1       3.865  -2.699  -0.884  0.00  0.00    +0.224 C 
ATOM     13  O   UNL     1       4.488  -3.727  -1.042  0.00  0.00    -0.275 OA
ATOM     14  N   UNL     1       2.543  -2.565  -1.042  0.00  0.00    -0.237 N 
ATOM     15  C   UNL     1       2.077  -1.333  -0.807  0.00  0.00    +0.225 C 
ATOM     16  O   UNL     1       0.917  -0.994  -0.897  0.00  0.00    -0.275 OA
ATOM     17  C   UNL     1       3.712   1.282   1.359  0.00  0.00    +0.211 C 
ATOM     18  O   UNL     1       4.865   1.606   1.170  0.00  0.00    -0.277 OA
ATOM     19  N   UNL     1       2.732   2.056   1.865  0.00  0.00    -0.286 N 
ATOM     20  C   UNL     1       0.087   3.204   2.910  0.00  0.00    +0.045 C 
ATOM     21  H   UNL     1       2.857   2.978   2.139  0.00  0.00    +0.155 HD
ATOM     22  N   UNL     1       3.788  -1.120   1.784  0.00  0.00    +0.394 N 
ATOM     23  H   UNL     1       3.176  -1.938   1.885  0.00  0.00    -0.083 HD
ATOM     24  H   UNL     1       4.077  -0.793   2.714  0.00  0.00    -0.083 HD
ENDROOT
BRANCH  11  25
ATOM     25  C   UNL     1       6.084  -0.450   1.220  0.00  0.00    -0.006 C 
BRANCH  25  26
ATOM     26  C   UNL     1       7.436  -1.109   0.941  0.00  0.00    +0.094 C 
BRANCH  26  27
ATOM     27  C   UNL     1       8.540  -0.110   1.177  0.00  0.00    +0.210 C 
ATOM     28  O   UNL     1       8.271   1.017   1.534  0.00  0.00    -0.276 OA
ATOM     29  N   UNL     1       9.825  -0.470   0.992  0.00  0.00    -0.329 N 
ATOM     30  H   UNL     1      10.040  -1.372   0.707  0.00  0.00    +0.145 HD
ATOM     31  H   UNL     1      10.536   0.172   1.145  0.00  0.00    +0.145 HD
ENDBRANCH  26  27
ENDBRANCH  25  26
ENDBRANCH  11  25
BRANCH  14  32
ATOM     32  C   UNL     1       1.676  -3.677  -1.442  0.00  0.00    +0.155 C 
BRANCH  32  33
ATOM     33  C   UNL     1       1.457  -3.633  -2.932  0.00  0.00    +0.012 A 
ATOM     34  C   UNL     1       0.302  -3.072  -3.445  0.00  0.00    +0.009 A 
ATOM     35  C   UNL     1       0.103  -3.027  -4.812  0.00  0.00    +0.001 A 
ATOM     36  C   UNL     1       1.053  -3.552  -5.669  0.00  0.00    +0.004 A 
ATOM     37  C   UNL     1       2.206  -4.118  -5.162  0.00  0.00    +0.046 A 
ATOM     38  C   UNL     1       2.411  -4.160  -3.790  0.00  0.00    +0.125 A 
BRANCH  38  39
ATOM     39  O   UNL     1       3.545  -4.716  -3.288  0.00  0.00    -0.495 OA
ATOM     40  C   UNL     1       4.530  -5.142  -4.231  0.00  0.00    +0.277 C 
ENDBRANCH  38  39
ENDBRANCH  32  33
ENDBRANCH  14  32
TORSDOF 6
