REMARK  Name = ZINC39561087
REMARK  9 active torsions:
REMARK  status: ('A' for Active; 'I' for Inactive)
REMARK    1  A    between atoms: C_1  and  C_2
REMARK    2  A    between atoms: C_2  and  O_3
REMARK    3  A    between atoms: O_3  and  C_4
REMARK    4  A    between atoms: C_11  and  C_18
REMARK    5  A    between atoms: C_13  and  O_14
REMARK    6  A    between atoms: C_18  and  O_19
REMARK    7  A    between atoms: O_19  and  C_20
REMARK    8  A    between atoms: C_20  and  C_22
REMARK    9  A    between atoms: C_24  and  N_30
REMARK                            x       y       z     vdW  Elec       q    Type
REMARK                         _______ _______ _______ _____ _____    ______ ____
ROOT
ATOM      1  C   UNL     1      -1.447  -1.911  -0.895  0.00  0.00    +0.405 C 
ATOM      2  O   UNL     1      -0.552  -2.690  -1.180  0.00  0.00    -0.226 OA
ATOM      3  N   UNL     1      -2.667  -2.367  -0.647  0.00  0.00    -0.251 N 
ATOM      4  C   UNL     1      -2.892  -3.705  -0.577  0.00  0.00    +0.040 A 
ATOM      5  C   UNL     1      -4.206  -4.200  -0.674  0.00  0.00    +0.024 A 
ATOM      6  C   UNL     1      -4.443  -5.536  -0.606  0.00  0.00    +0.014 A 
ATOM      7  C   UNL     1      -3.372  -6.432  -0.437  0.00  0.00    +0.024 A 
ATOM      8  C   UNL     1      -3.598  -7.822  -0.365  0.00  0.00    +0.007 A 
ATOM      9  C   UNL     1      -2.512  -8.659  -0.199  0.00  0.00    +0.095 A 
ATOM     10  C   UNL     1      -1.235  -8.126  -0.109  0.00  0.00    +0.285 A 
ATOM     11  O   UNL     1      -1.025  -6.807  -0.178  0.00  0.00    -0.425 OA
ATOM     12  C   UNL     1      -2.049  -5.944  -0.339  0.00  0.00    +0.141 A 
ATOM     13  C   UNL     1      -1.818  -4.583  -0.415  0.00  0.00    +0.070 A 
ATOM     14  H   UNL     1      -3.399  -1.744  -0.515  0.00  0.00    +0.158 HD
ENDROOT
BRANCH  10  15
ATOM     15  O   UNL     1      -0.185  -8.954   0.052  0.00  0.00    -0.480 OA
ATOM     16  H   UNL     1       0.668  -8.501   0.106  0.00  0.00    +0.295 HD
ENDBRANCH  10  15
BRANCH   1  17
ATOM     17  O   UNL     1      -1.195  -0.585  -0.834  0.00  0.00    -0.450 OA
BRANCH  17  19
ATOM     18  C   UNL     1       0.234   1.358  -0.995  0.00  0.00    +0.048 C 
ATOM     19  C   UNL     1       0.142  -0.165  -1.113  0.00  0.00    +0.230 C 
ENDBRANCH  17  19
ENDBRANCH   1  17
BRANCH   8  20
ATOM     20  C   UNL     1      -4.994  -8.381  -0.465  0.00  0.00    +0.269 C 
BRANCH  20  21
ATOM     21  O   UNL     1      -5.279  -9.162   0.698  0.00  0.00    -0.455 OA
BRANCH  21  22
ATOM     22  C   UNL     1      -6.495  -9.736   0.766  0.00  0.00    +0.360 C 
ATOM     23  O   UNL     1      -7.292  -9.580  -0.137  0.00  0.00    -0.243 OA
BRANCH  22  24
ATOM     24  C   UNL     1      -6.860 -10.559   1.940  0.00  0.00    +0.169 A 
ATOM     25  C   UNL     1      -8.117 -11.155   2.001  0.00  0.00    +0.095 A 
ATOM     26  C   UNL     1      -8.445 -11.928   3.115  0.00  0.00    +0.067 A 
ATOM     27  C   UNL     1      -7.495 -12.070   4.125  0.00  0.00    +0.100 A 
ATOM     28  C   UNL     1      -6.265 -11.445   3.991  0.00  0.00    +0.150 A 
ATOM     29  N   UNL     1      -5.983 -10.726   2.925  0.00  0.00    -0.226 NA
ATOM     30 CL   UNL     1      -5.077 -11.618   5.245  0.00  0.00    -0.060 Cl
ATOM     31 CL   UNL     1      -7.849 -13.019   5.535  0.00  0.00    -0.078 Cl
ATOM     32 CL   UNL     1      -9.258 -10.939   0.710  0.00  0.00    -0.079 Cl
BRANCH  26  33
ATOM     33  N   UNL     1      -9.692 -12.541   3.216  0.00  0.00    -0.356 N 
ATOM     34  H   UNL     1     -10.345 -12.434   2.506  0.00  0.00    +0.142 HD
ATOM     35  H   UNL     1      -9.908 -13.076   3.996  0.00  0.00    +0.142 HD
ENDBRANCH  26  33
ENDBRANCH  22  24
ENDBRANCH  21  22
ENDBRANCH  20  21
ENDBRANCH   8  20
TORSDOF 8
