REMARK  Name = ZINC28159674
REMARK  6 active torsions:
REMARK  status: ('A' for Active; 'I' for Inactive)
REMARK    1  A    between atoms: C_1  and  C_2
REMARK    2  A    between atoms: C_5  and  N_8
REMARK    3  A    between atoms: C_9  and  C_11
REMARK    4  A    between atoms: C_11  and  C_12
REMARK    5  A    between atoms: C_20  and  C_34
REMARK    6  A    between atoms: C_23  and  C_25
REMARK                            x       y       z     vdW  Elec       q    Type
REMARK                         _______ _______ _______ _____ _____    ______ ____
ROOT
ATOM      1  C   UNL     1      -2.770   8.262   0.076  0.00  0.00    +0.150 C 
ATOM      2  C   UNL     1      -1.358   8.835   0.069  0.00  0.00    +0.252 C 
ATOM      3  O   UNL     1      -1.141  10.031   0.080  0.00  0.00    -0.272 OA
ATOM      4  N   UNL     1      -0.397   7.952   0.056  0.00  0.00    -0.157 NA
ATOM      5  C   UNL     1      -0.588   6.638   0.037  0.00  0.00    +0.170 C 
ATOM      6  S   UNL     1      -2.367   6.468   0.052  0.00  0.00    -0.078 S 
ATOM      7  N   UNL     1       0.353   5.650   0.017  0.00  0.00    -0.195 N 
ATOM      8  C   UNL     1       1.810   5.856   0.006  0.00  0.00    +0.142 C 
ATOM      9  C   UNL     1       2.378   4.423  -0.009  0.00  0.00    +0.087 C 
ATOM     10  C   UNL     1       1.148   3.544  -0.013  0.00  0.00    +0.069 C 
ATOM     11  N   UNL     1       0.092   4.282   0.005  0.00  0.00    -0.182 NA
ENDROOT
BRANCH  10  12
ATOM     12  C   UNL     1       1.155   2.070  -0.029  0.00  0.00    +0.002 A 
ATOM     13  C   UNL     1       2.368   1.376  -0.047  0.00  0.00    +0.013 A 
ATOM     14  C   UNL     1       2.373  -0.003  -0.062  0.00  0.00    +0.050 A 
ATOM     15  C   UNL     1       1.176  -0.706  -0.059  0.00  0.00    +0.166 A 
ATOM     16  C   UNL     1      -0.038  -0.019  -0.041  0.00  0.00    +0.167 A 
ATOM     17  C   UNL     1      -0.050   1.363  -0.026  0.00  0.00    +0.059 A 
ATOM     18  O   UNL     1      -1.054  -0.931  -0.042  0.00  0.00    -0.453 OA
ATOM     19  C   UNL     1      -0.459  -2.169  -0.474  0.00  0.00    +0.466 C 
ATOM     20  O   UNL     1       0.918  -2.046  -0.071  0.00  0.00    -0.453 OA
ENDBRANCH  10  12
BRANCH   8  21
ATOM     21  C   UNL     1       2.230   6.610  -1.230  0.00  0.00    +0.012 A 
ATOM     22  C   UNL     1       3.175   7.573  -1.363  0.00  0.00    +0.013 A 
ATOM     23  C   UNL     1       3.392   8.132  -2.608  0.00  0.00    +0.008 A 
ATOM     24  C   UNL     1       2.654   7.700  -3.660  0.00  0.00    +0.045 A 
ATOM     25  S   UNL     1       1.616   6.462  -2.900  0.00  0.00    -0.100 S 
ENDBRANCH   8  21
BRANCH   1  26
ATOM     26  C   UNL     1      -3.524   8.648   1.350  0.00  0.00    +0.120 C 
BRANCH  26  28
ATOM     27  N   UNL     1      -5.725   8.189   2.381  0.00  0.00    -0.285 N 
ATOM     28  C   UNL     1      -4.880   7.990   1.350  0.00  0.00    +0.219 C 
ATOM     29  O   UNL     1      -5.210   7.282   0.422  0.00  0.00    -0.275 OA
ATOM     30  H   UNL     1      -5.398   8.768   3.257  0.00  0.00    +0.155 HD
BRANCH  27  35
ATOM     31  C   UNL     1     -10.971   6.035   2.203  0.00  0.00    +0.044 C 
ATOM     32  C   UNL     1      -9.577   6.607   2.250  0.00  0.00    -0.050 A 
ATOM     33  C   UNL     1      -8.525   5.910   1.686  0.00  0.00    +0.005 A 
ATOM     34  C   UNL     1      -7.247   6.431   1.727  0.00  0.00    +0.023 A 
ATOM     35  C   UNL     1      -7.019   7.658   2.337  0.00  0.00    +0.033 A 
ATOM     36  C   UNL     1      -8.076   8.353   2.908  0.00  0.00    +0.023 A 
ATOM     37  C   UNL     1      -9.353   7.829   2.857  0.00  0.00    +0.005 A 
ENDBRANCH  27  35
ENDBRANCH  26  28
ENDBRANCH   1  26
TORSDOF 5
