REMARK  Name = ZINC08790692
REMARK  6 active torsions:
REMARK  status: ('A' for Active; 'I' for Inactive)
REMARK    1  A    between atoms: C_1  and  C_2
REMARK    2  A    between atoms: C_7  and  C_8
REMARK    3  A    between atoms: C_17  and  C_19
REMARK    4  A    between atoms: C_19  and  C_20
REMARK    5  A    between atoms: N_25  and  C_28
REMARK    6  A    between atoms: C_28  and  C_29
REMARK                            x       y       z     vdW  Elec       q    Type
REMARK                         _______ _______ _______ _____ _____    ______ ____
ROOT
ATOM      1  C   UNL     1      -8.473   0.802  -4.680  0.00  0.00    +0.044 C 
ATOM      2  C   UNL     1      -7.342  -0.148  -4.379  0.00  0.00    -0.046 A 
ATOM      3  C   UNL     1      -7.524  -1.509  -4.545  0.00  0.00    +0.004 A 
ATOM      4  C   UNL     1      -6.486  -2.381  -4.268  0.00  0.00    +0.005 A 
ATOM      5  C   UNL     1      -5.276  -1.894  -3.829  0.00  0.00    -0.027 A 
ATOM      6  C   UNL     1      -5.081  -0.526  -3.658  0.00  0.00    +0.039 A 
ATOM      7  C   UNL     1      -6.131   0.344  -3.939  0.00  0.00    -0.026 A 
ATOM      8  C   UNL     1      -5.944   1.829  -3.760  0.00  0.00    +0.046 C 
ATOM      9  N   UNL     1      -3.783  -0.276  -3.209  0.00  0.00    -0.286 N 
ATOM     10  C   UNL     1      -3.069  -1.409  -3.061  0.00  0.00    +0.211 C 
ATOM     11  O   UNL     1      -1.918  -1.496  -2.689  0.00  0.00    -0.277 OA
ATOM     12  C   UNL     1      -3.976  -2.544  -3.448  0.00  0.00    +0.050 C 
ATOM     13  C   UNL     1      -4.169  -3.546  -2.283  0.00  0.00    +0.088 C 
ATOM     14  C   UNL     1      -3.171  -4.693  -2.607  0.00  0.00    +0.073 C 
ATOM     15  C   UNL     1      -2.469  -4.269  -3.915  0.00  0.00    -0.049 C 
ATOM     16  C   UNL     1      -2.180  -4.624  -1.468  0.00  0.00    +0.224 C 
ATOM     17  O   UNL     1      -1.224  -5.356  -1.326  0.00  0.00    -0.275 OA
ATOM     18  N   UNL     1      -2.521  -3.629  -0.641  0.00  0.00    -0.237 N 
ATOM     19  C   UNL     1      -3.623  -2.961  -1.000  0.00  0.00    +0.225 C 
ATOM     20  O   UNL     1      -4.107  -2.030  -0.394  0.00  0.00    -0.275 OA
ATOM     21  H   UNL     1      -3.435   0.611  -3.024  0.00  0.00    +0.155 HD
ATOM     22  N   UNL     1      -3.407  -3.328  -4.531  0.00  0.00    +0.394 N 
ATOM     23  H   UNL     1      -2.913  -2.716  -5.191  0.00  0.00    -0.083 HD
ATOM     24  H   UNL     1      -4.148  -3.838  -5.027  0.00  0.00    -0.083 HD
ENDROOT
BRANCH  15  25
ATOM     25  C   UNL     1      -2.231  -5.487  -4.810  0.00  0.00    +0.080 C 
BRANCH  25  26
ATOM     26  C   UNL     1      -1.437  -5.071  -6.022  0.00  0.00    +0.209 C 
ATOM     27  O   UNL     1      -1.096  -3.915  -6.157  0.00  0.00    -0.276 OA
ATOM     28  N   UNL     1      -1.107  -5.985  -6.957  0.00  0.00    -0.329 N 
ATOM     29  H   UNL     1      -1.379  -6.909  -6.849  0.00  0.00    +0.145 HD
ATOM     30  H   UNL     1      -0.596  -5.718  -7.737  0.00  0.00    +0.145 HD
ENDBRANCH  25  26
ENDBRANCH  15  25
BRANCH  18  31
ATOM     31  C   UNL     1      -1.754  -3.302   0.564  0.00  0.00    +0.151 C 
BRANCH  31  32
ATOM     32  C   UNL     1      -0.692  -2.288   0.223  0.00  0.00    -0.026 A 
ATOM     33  C   UNL     1       0.561  -2.711  -0.181  0.00  0.00    +0.009 A 
ATOM     34  C   UNL     1       1.538  -1.785  -0.495  0.00  0.00    +0.050 A 
ATOM     35  C   UNL     1       1.264  -0.430  -0.404  0.00  0.00    +0.166 A 
ATOM     36  C   UNL     1       0.002  -0.004   0.002  0.00  0.00    +0.167 A 
ATOM     37  C   UNL     1      -0.973  -0.938   0.315  0.00  0.00    +0.054 A 
ATOM     38  O   UNL     1      -0.016   1.361   0.009  0.00  0.00    -0.453 OA
ATOM     39  C   UNL     1       1.366   1.764  -0.002  0.00  0.00    +0.466 C 
ATOM     40  O   UNL     1       2.037   0.668  -0.651  0.00  0.00    -0.453 OA
ENDBRANCH  31  32
ENDBRANCH  18  31
TORSDOF 4
