REMARK  Name = ZINC36779068
REMARK  11 active torsions:
REMARK  status: ('A' for Active; 'I' for Inactive)
REMARK    1  A    between atoms: C_1  and  C_2
REMARK    2  A    between atoms: C_2  and  C_3
REMARK    3  A    between atoms: C_3  and  C_5
REMARK    4  A    between atoms: C_3  and  N_22
REMARK    5  A    between atoms: C_5  and  C_7
REMARK    6  A    between atoms: C_5  and  O_21
REMARK    7  A    between atoms: C_9  and  O_19
REMARK    8  A    between atoms: C_10  and  O_14
REMARK    9  A    between atoms: O_14  and  C_15
REMARK   10  A    between atoms: C_15  and  C_16
REMARK   11  A    between atoms: O_19  and  C_20
REMARK                            x       y       z     vdW  Elec       q    Type
REMARK                         _______ _______ _______ _____ _____    ______ ____
ROOT
ATOM      1  C   UNL     1      -2.829  -2.579  -0.111  0.00  0.00    -0.016 A 
ATOM      2  C   UNL     1      -3.395  -3.014   1.074  0.00  0.00    +0.055 A 
ATOM      3  C   UNL     1      -4.695  -3.495   1.086  0.00  0.00    +0.163 A 
ATOM      4  C   UNL     1      -5.429  -3.538  -0.096  0.00  0.00    +0.181 A 
ATOM      5  C   UNL     1      -4.856  -3.100  -1.280  0.00  0.00    +0.087 A 
ATOM      6  C   UNL     1      -3.559  -2.616  -1.284  0.00  0.00    +0.030 A 
ATOM      7 CL   UNL     1      -5.768  -3.152  -2.756  0.00  0.00    -0.080 Cl
ENDROOT
BRANCH   3   8
ATOM      8  O   UNL     1      -5.252  -3.924   2.250  0.00  0.00    -0.491 OA
ATOM      9  C   UNL     1      -4.440  -3.851   3.423  0.00  0.00    +0.277 C 
ENDBRANCH   3   8
BRANCH   1  10
ATOM     10  C   UNL     1      -1.416  -2.058  -0.121  0.00  0.00    +0.130 C 
BRANCH  10  11
ATOM     11  O   UNL     1      -0.783  -2.420  -1.350  0.00  0.00    -0.389 OA
ATOM     12  H   UNL     1      -1.223  -2.070  -2.137  0.00  0.00    +0.210 HD
ENDBRANCH  10  11
BRANCH  10  13
ATOM     13  C   UNL     1      -1.433  -0.534   0.013  0.00  0.00    -0.042 C 
BRANCH  13  14
ATOM     14  N   UNL     1      -2.083  -0.161   1.276  0.00  0.00    +0.382 N 
ATOM     15  H   UNL     1      -1.571  -0.560   2.049  0.00  0.00    -0.090 HD
ATOM     16  H   UNL     1      -2.095   0.844   1.365  0.00  0.00    -0.090 HD
ATOM     17  H   UNL     1      -3.030  -0.510   1.284  0.00  0.00    -0.090 HD
ENDBRANCH  13  14
BRANCH  13  19
ATOM     18  C   UNL     1      -0.019   1.526   0.010  0.00  0.00    +0.002 C 
ATOM     19  C   UNL     1       0.002  -0.004   0.002  0.00  0.00    -0.017 C 
ENDBRANCH  13  19
ENDBRANCH  10  13
ENDBRANCH   1  10
BRANCH   4  20
ATOM     20  O   UNL     1      -6.705  -4.009  -0.089  0.00  0.00    -0.478 OA
BRANCH  20  21
ATOM     21  C   UNL     1      -7.746  -3.058   0.141  0.00  0.00    +0.324 C 
BRANCH  21  22
ATOM     22  C   UNL     1      -9.081  -3.758   0.113  0.00  0.00    +0.248 C 
ATOM     23  O   UNL     1      -9.134  -4.953  -0.084  0.00  0.00    -0.272 OA
ATOM     24  N   UNL     1     -10.214  -3.055   0.307  0.00  0.00    -0.327 N 
ATOM     25  H   UNL     1     -10.171  -2.099   0.464  0.00  0.00    +0.145 HD
ATOM     26  H   UNL     1     -11.073  -3.506   0.289  0.00  0.00    +0.145 HD
ENDBRANCH  21  22
ENDBRANCH  20  21
ENDBRANCH   4  20
TORSDOF 9
