REMARK  Name = ZINC02438243
REMARK  8 active torsions:
REMARK  status: ('A' for Active; 'I' for Inactive)
REMARK    1  A    between atoms: C_1  and  C_2
REMARK    2  A    between atoms: C_5  and  N_9
REMARK    3  A    between atoms: C_6  and  C_8
REMARK    4  A    between atoms: C_12  and  C_17
REMARK    5  A    between atoms: C_17  and  S_18
REMARK    6  A    between atoms: S_18  and  C_19
REMARK    7  A    between atoms: C_19  and  N_21
REMARK    8  A    between atoms: C_26  and  N_52
REMARK                            x       y       z     vdW  Elec       q    Type
REMARK                         _______ _______ _______ _____ _____    ______ ____
ROOT
ATOM      1  N   UNL     1       1.107   3.381   0.009  0.00  0.00    -0.283 N 
ATOM      2  C   UNL     1       1.127   2.000   0.005  0.00  0.00    +0.224 A 
ATOM      3  N   UNL     1      -0.016   1.317   0.030  0.00  0.00    -0.198 NA
ATOM      4  C   UNL     1       0.002  -0.004   0.026  0.00  0.00    +0.146 A 
ATOM      5  N   UNL     1       1.153  -0.653  -0.003  0.00  0.00    -0.199 NA
ATOM      6  C   UNL     1       2.299   0.023  -0.028  0.00  0.00    +0.217 A 
ATOM      7  N   UNL     1       2.285   1.351  -0.024  0.00  0.00    -0.181 NA
ATOM      8  N   UNL     1       3.501  -0.656  -0.057  0.00  0.00    -0.327 N 
ATOM      9  H   UNL     1       0.263   3.855  -0.056  0.00  0.00    +0.155 HD
ATOM     10  H   UNL     1       3.510  -1.626  -0.059  0.00  0.00    +0.145 HD
ATOM     11  H   UNL     1       4.336  -0.163  -0.075  0.00  0.00    +0.145 HD
ENDROOT
BRANCH   1  16
ATOM     12  C   UNL     1       5.963   6.285   0.407  0.00  0.00    +0.044 C 
ATOM     13  C   UNL     1       4.673   5.514   0.301  0.00  0.00    -0.050 A 
ATOM     14  C   UNL     1       4.598   4.224   0.795  0.00  0.00    +0.005 A 
ATOM     15  C   UNL     1       3.417   3.514   0.700  0.00  0.00    +0.024 A 
ATOM     16  C   UNL     1       2.304   4.097   0.107  0.00  0.00    +0.037 A 
ATOM     17  C   UNL     1       2.385   5.390  -0.393  0.00  0.00    -0.029 A 
ATOM     18  C   UNL     1       3.567   6.097  -0.289  0.00  0.00    +0.008 A 
ATOM     19  C   UNL     1       1.182   6.024  -1.043  0.00  0.00    +0.045 C 
ENDBRANCH   1  16
BRANCH   4  20
ATOM     20  C   UNL     1      -1.294  -0.773   0.054  0.00  0.00    +0.152 C 
BRANCH  20  21
ATOM     21  S   UNL     1      -1.853  -1.076  -1.641  0.00  0.00    -0.095 S 
BRANCH  21  22
ATOM     22  C   UNL     1      -3.340  -1.964  -1.318  0.00  0.00    +0.109 C 
ATOM     23  S   UNL     1      -3.819  -2.275   0.296  0.00  0.00    -0.028 S 
BRANCH  22  24
ATOM     24  N   UNL     1      -4.101  -2.398  -2.342  0.00  0.00    -0.323 N 
ATOM     25  C   UNL     1      -3.712  -2.136  -3.736  0.00  0.00    +0.087 C 
ATOM     26  C   UNL     1      -3.746  -3.467  -4.504  0.00  0.00    -0.060 C 
ATOM     27  C   UNL     1      -5.319  -4.427  -2.928  0.00  0.00    -0.060 C 
ATOM     28  C   UNL     1      -5.347  -3.140  -2.095  0.00  0.00    +0.087 C 
ATOM     29  C   UNL     1      -5.202  -5.275  -5.193  0.00  0.00    -0.096 C 
ATOM     30  N   UNL     1      -5.087  -4.071  -4.345  0.00  0.00    +0.380 N 
ATOM     31  H   UNL     1      -5.796  -3.388  -4.637  0.00  0.00    -0.082 HD
ENDBRANCH  22  24
ENDBRANCH  21  22
ENDBRANCH  20  21
ENDBRANCH   4  20
TORSDOF 5
