REMARK  Name = ZINC25404841
REMARK  8 active torsions:
REMARK  status: ('A' for Active; 'I' for Inactive)
REMARK    1  A    between atoms: C_1  and  C_2
REMARK    2  A    between atoms: C_2  and  C_4
REMARK    3  A    between atoms: C_2  and  N_14
REMARK    4  A    between atoms: C_7  and  S_10
REMARK    5  A    between atoms: S_10  and  N_13
REMARK    6  A    between atoms: C_15  and  C_17
REMARK    7  A    between atoms: C_17  and  C_19
REMARK    8  A    between atoms: C_17  and  N_20
REMARK                            x       y       z     vdW  Elec       q    Type
REMARK                         _______ _______ _______ _____ _____    ______ ____
ROOT
ATOM      1  C   UNL     1      -4.499   3.843   4.678  0.00  0.00    +0.033 C 
ATOM      2  C   UNL     1      -3.183   3.099   4.918  0.00  0.00    +0.100 C 
ENDROOT
BRANCH   2   3
ATOM      3  C   UNL     1      -2.471   2.901   3.605  0.00  0.00    -0.027 A 
ATOM      4  C   UNL     1      -2.545   1.683   2.956  0.00  0.00    +0.007 A 
ATOM      5  C   UNL     1      -1.891   1.501   1.752  0.00  0.00    +0.029 A 
ATOM      6  C   UNL     1      -1.164   2.537   1.196  0.00  0.00    +0.105 A 
ATOM      7  C   UNL     1      -1.086   3.754   1.848  0.00  0.00    +0.029 A 
ATOM      8  C   UNL     1      -1.744   3.937   3.050  0.00  0.00    +0.007 A 
BRANCH   6   9
ATOM      9  S   UNL     1      -0.331   2.305  -0.339  0.00  0.00    +0.056 S 
ATOM     10  O   UNL     1      -0.106   0.908  -0.472  0.00  0.00    -0.153 OA
ATOM     11  O   UNL     1       0.727   3.254  -0.374  0.00  0.00    -0.153 OA
BRANCH   9  12
ATOM     12  N   UNL     1      -1.388   2.731  -1.539  0.00  0.00    -0.204 NA
ATOM     13  H   UNL     1      -0.904   2.600  -2.518  0.00  0.00    +0.144 HD
ATOM     14  H   UNL     1      -1.681   3.784  -1.413  0.00  0.00    +0.144 HD
ENDBRANCH   9  12
ENDBRANCH   6   9
ENDBRANCH   2   3
BRANCH   2  15
ATOM     15  N   UNL     1      -2.337   3.884   5.820  0.00  0.00    -0.310 N 
ATOM     16  C   UNL     1      -2.492   3.777   7.154  0.00  0.00    +0.200 C 
ATOM     17  O   UNL     1      -3.332   3.030   7.609  0.00  0.00    -0.278 OA
ATOM     18  H   UNL     1      -1.574   4.561   5.408  0.00  0.00    +0.149 HD
BRANCH  16  19
ATOM     19  C   UNL     1      -1.620   4.584   8.082  0.00  0.00    +0.016 C 
ATOM     20  C   UNL     1      -0.217   3.977   8.121  0.00  0.00    -0.004 C 
BRANCH  19  21
ATOM     21  N   UNL     1      -2.198   4.570   9.432  0.00  0.00    +0.387 N 
ATOM     22  C   UNL     1      -1.621   5.636  10.262  0.00  0.00    -0.078 C 
ATOM     23  C   UNL     1      -2.347   5.684  11.609  0.00  0.00    -0.019 C 
ATOM     24  C   UNL     1      -2.203   4.330  12.310  0.00  0.00    -0.004 C 
ATOM     25  C   UNL     1      -2.767   3.233  11.404  0.00  0.00    -0.019 C 
ATOM     26  C   UNL     1      -2.030   3.255  10.063  0.00  0.00    -0.078 C 
ATOM     27  H   UNL     1      -3.277   4.763   9.342  0.00  0.00    -0.081 HD
ENDBRANCH  19  21
ENDBRANCH  16  19
ENDBRANCH   2  15
TORSDOF 6
