REMARK  Name = ZINC65298173
REMARK  6 active torsions:
REMARK  status: ('A' for Active; 'I' for Inactive)
REMARK    1  A    between atoms: C_1  and  N_2
REMARK    2  A    between atoms: C_9  and  C_21
REMARK    3  A    between atoms: C_12  and  C_14
REMARK    4  A    between atoms: C_25  and  O_28
REMARK    5  A    between atoms: C_26  and  O_27
REMARK    6  A    between atoms: O_28  and  C_29
REMARK                            x       y       z     vdW  Elec       q    Type
REMARK                         _______ _______ _______ _____ _____    ______ ____
ROOT
ATOM      1  C   UNL     1      -0.018   1.465   0.010  0.00  0.00    -0.096 C 
ATOM      2  N   UNL     1       0.002  -0.004   0.002  0.00  0.00    +0.378 N 
ATOM      3  C   UNL     1      -1.375  -0.510   0.003  0.00  0.00    -0.076 C 
ATOM      4  C   UNL     1      -1.362  -2.038  -0.085  0.00  0.00    +0.027 C 
ATOM      5  C   UNL     1      -0.609  -2.606   1.123  0.00  0.00    +0.109 C 
ATOM      6  C   UNL     1       0.805  -2.015   1.149  0.00  0.00    +0.027 C 
ATOM      7  C   UNL     1       0.712  -0.489   1.192  0.00  0.00    -0.076 C 
ATOM      8  N   UNL     1      -0.521  -4.066   0.996  0.00  0.00    -0.286 NA
ATOM      9  C   UNL     1       0.027  -4.652   2.232  0.00  0.00    +0.095 C 
ATOM     10  C   UNL     1      -1.000  -4.455   3.351  0.00  0.00    +0.079 C 
ATOM     11  C   UNL     1      -1.489  -3.034   3.338  0.00  0.00    +0.047 C 
ATOM     12  N   UNL     1      -1.311  -2.241   2.349  0.00  0.00    -0.266 NA
ATOM     13  H   UNL     1      -1.422  -4.465   0.776  0.00  0.00    +0.125 HD
ATOM     14  H   UNL     1       0.477  -0.328  -0.827  0.00  0.00    -0.082 HD
ENDROOT
BRANCH  11  15
ATOM     15  C   UNL     1      -2.209  -2.528   4.523  0.00  0.00    -0.004 A 
ATOM     16  C   UNL     1      -2.419  -3.360   5.624  0.00  0.00    +0.011 A 
ATOM     17  C   UNL     1      -3.092  -2.881   6.729  0.00  0.00    +0.020 A 
ATOM     18  C   UNL     1      -3.560  -1.578   6.747  0.00  0.00    +0.041 A 
ATOM     19  C   UNL     1      -3.356  -0.748   5.657  0.00  0.00    +0.020 A 
ATOM     20  C   UNL     1      -2.679  -1.213   4.549  0.00  0.00    +0.011 A 
ATOM     21 CL   UNL     1      -4.406  -0.983   8.140  0.00  0.00    -0.084 Cl
ENDBRANCH  11  15
BRANCH   9  22
ATOM     22  C   UNL     1       0.283  -6.122   2.027  0.00  0.00    +0.015 A 
ATOM     23  C   UNL     1      -0.351  -6.799   1.002  0.00  0.00    +0.009 A 
ATOM     24  C   UNL     1      -0.119  -8.148   0.812  0.00  0.00    +0.004 A 
ATOM     25  C   UNL     1       0.749  -8.827   1.647  0.00  0.00    +0.049 A 
ATOM     26  C   UNL     1       1.388  -8.156   2.676  0.00  0.00    +0.162 A 
ATOM     27  C   UNL     1       1.158  -6.796   2.864  0.00  0.00    +0.163 A 
BRANCH  27  28
ATOM     28  O   UNL     1       1.787  -6.131   3.869  0.00  0.00    -0.503 OA
ATOM     29  H   UNL     1       1.301  -6.130   4.705  0.00  0.00    +0.292 HD
ENDBRANCH  27  28
BRANCH  26  30
ATOM     30  O   UNL     1       2.241  -8.823   3.498  0.00  0.00    -0.491 OA
ATOM     31  C   UNL     1       2.433 -10.216   3.243  0.00  0.00    +0.277 C 
ENDBRANCH  26  30
ENDBRANCH   9  22
TORSDOF 4
