REMARK  Name = ZINC54616800
REMARK  15 active torsions:
REMARK  status: ('A' for Active; 'I' for Inactive)
REMARK    1  A    between atoms: C_1  and  C_2
REMARK    2  A    between atoms: C_2  and  C_3
REMARK    3  A    between atoms: C_3  and  C_4
REMARK    4  A    between atoms: C_4  and  O_5
REMARK    5  A    between atoms: O_5  and  C_6
REMARK    6  A    between atoms: C_11  and  C_12
REMARK    7  A    between atoms: C_14  and  C_27
REMARK    8  A    between atoms: C_15  and  C_26
REMARK    9  A    between atoms: C_20  and  S_22
REMARK   10  A    between atoms: S_22  and  C_23
REMARK   11  A    between atoms: C_23  and  C_24
REMARK   12  A    between atoms: C_24  and  C_25
REMARK   13  A    between atoms: N_29  and  C_30
REMARK   14  A    between atoms: C_34  and  C_37
REMARK   15  A    between atoms: C_35  and  C_36
REMARK                            x       y       z     vdW  Elec       q    Type
REMARK                         _______ _______ _______ _____ _____    ______ ____
ROOT
ATOM      1  C   UNL     1      -5.768  -3.519  -0.117  0.00  0.00    +0.181 C 
ATOM      2  C   UNL     1      -6.483  -3.935  -1.375  0.00  0.00    +0.060 C 
ATOM      3  C   UNL     1      -7.659  -4.581  -1.370  0.00  0.00    +0.018 C 
ATOM      4  N   UNL     1      -8.310  -4.906  -0.205  0.00  0.00    -0.287 N 
ATOM      5  C   UNL     1      -7.854  -4.318   0.967  0.00  0.00    +0.219 A 
ATOM      6  N   UNL     1      -6.669  -3.661   1.024  0.00  0.00    -0.220 N 
ATOM      7  N   UNL     1      -6.532  -3.196   2.331  0.00  0.00    -0.141 NA
ATOM      8  C   UNL     1      -7.606  -3.585   2.985  0.00  0.00    +0.210 A 
ATOM      9  N   UNL     1      -8.403  -4.268   2.150  0.00  0.00    -0.187 NA
ATOM     10  C   UNL     1      -8.285  -4.963  -2.686  0.00  0.00    +0.061 C 
ATOM     11  H   UNL     1      -9.059  -5.521  -0.202  0.00  0.00    +0.155 HD
ENDROOT
BRANCH   1  17
ATOM     12  C   UNL     1      -3.286  -3.847   0.023  0.00  0.00    +0.126 A 
ATOM     13  C   UNL     1      -2.175  -4.655   0.216  0.00  0.00    +0.046 A 
ATOM     14  C   UNL     1      -2.338  -6.004   0.464  0.00  0.00    +0.004 A 
ATOM     15  C   UNL     1      -3.608  -6.549   0.521  0.00  0.00    +0.001 A 
ATOM     16  C   UNL     1      -4.717  -5.746   0.329  0.00  0.00    +0.009 A 
ATOM     17  C   UNL     1      -4.559  -4.395   0.086  0.00  0.00    +0.023 A 
BRANCH  12  18
ATOM     18  O   UNL     1      -3.128  -2.520  -0.221  0.00  0.00    -0.492 OA
BRANCH  18  19
ATOM     19  C   UNL     1      -1.790  -2.044  -0.380  0.00  0.00    +0.229 C 
BRANCH  19  20
ATOM     20  C   UNL     1      -1.809  -0.528  -0.585  0.00  0.00    +0.041 C 
BRANCH  20  22
ATOM     21  C   UNL     1      -0.392   1.514  -0.842  0.00  0.00    +0.004 C 
ATOM     22  C   UNL     1      -0.373  -0.002  -0.636  0.00  0.00    -0.000 C 
ENDBRANCH  20  22
ENDBRANCH  19  20
ENDBRANCH  18  19
ENDBRANCH  12  18
ENDBRANCH   1  17
BRANCH   2  23
ATOM     23  C   UNL     1      -5.888  -3.629  -2.622  0.00  0.00    +0.248 C 
ATOM     24  O   UNL     1      -5.992  -2.508  -3.088  0.00  0.00    -0.270 OA
ATOM     25  N   UNL     1      -5.205  -4.577  -3.293  0.00  0.00    -0.281 N 
ATOM     26  H   UNL     1      -5.181  -5.487  -2.957  0.00  0.00    +0.155 HD
BRANCH  25  27
ATOM     27  C   UNL     1      -4.530  -4.249  -4.473  0.00  0.00    +0.037 A 
ATOM     28  C   UNL     1      -4.224  -2.924  -4.755  0.00  0.00    +0.023 A 
ATOM     29  C   UNL     1      -3.558  -2.603  -5.921  0.00  0.00    +0.002 A 
ATOM     30  C   UNL     1      -3.196  -3.600  -6.809  0.00  0.00    +0.004 A 
ATOM     31  C   UNL     1      -3.499  -4.920  -6.532  0.00  0.00    -0.046 A 
ATOM     32  C   UNL     1      -4.160  -5.248  -5.364  0.00  0.00    -0.026 A 
ATOM     33  C   UNL     1      -4.485  -6.688  -5.060  0.00  0.00    +0.046 C 
ATOM     34  C   UNL     1      -3.104  -6.003  -7.502  0.00  0.00    +0.044 C 
ENDBRANCH  25  27
ENDBRANCH   2  23
BRANCH   8  35
ATOM     35  S   UNL     1      -7.941  -3.262   4.685  0.00  0.00    -0.084 S 
BRANCH  35  36
ATOM     36  C   UNL     1      -9.548  -4.051   4.973  0.00  0.00    +0.077 C 
BRANCH  36  37
ATOM     37  C   UNL     1      -9.964  -3.844   6.430  0.00  0.00    +0.008 C 
ATOM     38  C   UNL     1     -11.320  -4.510   6.673  0.00  0.00    +0.004 C 
ENDBRANCH  36  37
ENDBRANCH  35  36
ENDBRANCH   8  35
TORSDOF 10
