REMARK  Name = ZINC66080057
REMARK  8 active torsions:
REMARK  status: ('A' for Active; 'I' for Inactive)
REMARK    1  A    between atoms: C_1  and  C_2
REMARK    2  A    between atoms: C_3  and  C_26
REMARK    3  A    between atoms: N_9  and  C_13
REMARK    4  A    between atoms: C_11  and  C_12
REMARK    5  A    between atoms: C_13  and  N_14
REMARK    6  A    between atoms: C_18  and  C_21
REMARK    7  A    between atoms: C_21  and  C_22
REMARK    8  A    between atoms: C_22  and  C_23
REMARK                            x       y       z     vdW  Elec       q    Type
REMARK                         _______ _______ _______ _____ _____    ______ ____
ROOT
ATOM      1  C   UNL     1       0.040  -2.812   3.576  0.00  0.00    +0.070 C 
ENDROOT
BRANCH   1  10
ATOM      2  C   UNL     1       0.065   1.819   0.434  0.00  0.00    +0.047 C 
ATOM      3  C   UNL     1       0.029   0.320   0.281  0.00  0.00    -0.008 A 
ATOM      4  C   UNL     1      -0.013  -0.261  -0.990  0.00  0.00    +0.047 A 
ATOM      5  N   UNL     1      -0.045  -1.571  -1.118  0.00  0.00    -0.216 NA
ATOM      6  C   UNL     1      -0.037  -2.365  -0.043  0.00  0.00    +0.253 A 
ATOM      7  N   UNL     1      -0.062  -3.692   0.084  0.00  0.00    -0.185 NA
ATOM      8  C   UNL     1      -0.039  -4.025   1.373  0.00  0.00    +0.197 A 
ATOM      9  S   UNL     1      -0.058  -5.621   1.990  0.00  0.00    -0.010 S 
ATOM     10  N   UNL     1       0.003  -2.898   2.114  0.00  0.00    -0.271 N 
ATOM     11  N   UNL     1       0.005  -1.824   1.212  0.00  0.00    -0.222 N 
ATOM     12  C   UNL     1       0.043  -0.485   1.378  0.00  0.00    +0.046 A 
ATOM     13  C   UNL     1       0.095   0.111   2.761  0.00  0.00    +0.066 C 
ATOM     14  C   UNL     1      -0.023   0.615  -2.216  0.00  0.00    +0.066 C 
ENDBRANCH   1  10
BRANCH   1  15
ATOM     15  N   UNL     1       1.404  -2.486   4.013  0.00  0.00    +0.393 N 
ATOM     16  C   UNL     1       2.303  -3.596   3.676  0.00  0.00    -0.076 C 
ATOM     17  C   UNL     1       3.739  -3.228   4.056  0.00  0.00    -0.018 C 
ATOM     18  C   UNL     1       3.808  -2.952   5.560  0.00  0.00    -0.000 C 
ATOM     19  C   UNL     1       2.813  -1.843   5.912  0.00  0.00    -0.027 C 
ATOM     20  C   UNL     1       1.411  -2.262   5.463  0.00  0.00    -0.073 C 
ATOM     21  H   UNL     1       1.716  -1.649   3.543  0.00  0.00    -0.079 HD
BRANCH  19  22
ATOM     22  C   UNL     1       2.818  -1.611   7.424  0.00  0.00    +0.011 C 
BRANCH  22  23
ATOM     23  C   UNL     1       4.186  -1.077   7.853  0.00  0.00    +0.096 C 
BRANCH  23  24
ATOM     24  C   UNL     1       4.192  -0.850   9.343  0.00  0.00    +0.210 C 
ATOM     25  O   UNL     1       3.200  -1.091   9.997  0.00  0.00    -0.276 OA
ATOM     26  N   UNL     1       5.300  -0.378   9.948  0.00  0.00    -0.329 N 
ATOM     27  H   UNL     1       6.094  -0.185   9.425  0.00  0.00    +0.145 HD
ATOM     28  H   UNL     1       5.304  -0.232  10.907  0.00  0.00    +0.145 HD
ENDBRANCH  23  24
ENDBRANCH  22  23
ENDBRANCH  19  22
ENDBRANCH   1  15
TORSDOF 5
