REMARK  Name = ZINC09546661
REMARK  9 active torsions:
REMARK  status: ('A' for Active; 'I' for Inactive)
REMARK    1  A    between atoms: C_1  and  N_60
REMARK    2  A    between atoms: N_4  and  S_7
REMARK    3  A    between atoms: S_7  and  C_10
REMARK    4  A    between atoms: C_13  and  S_16
REMARK    5  A    between atoms: S_16  and  C_17
REMARK    6  A    between atoms: C_17  and  C_18
REMARK    7  A    between atoms: N_20  and  C_21
REMARK    8  A    between atoms: C_26  and  O_27
REMARK    9  A    between atoms: O_27  and  C_28
REMARK                            x       y       z     vdW  Elec       q    Type
REMARK                         _______ _______ _______ _____ _____    ______ ____
ROOT
ATOM      1  S   UNL     1      -6.138   3.623  -5.360  0.00  0.00    -0.097 S 
ENDROOT
BRANCH   1   5
ATOM      2  C   UNL     1      -2.663   3.169  -2.562  0.00  0.00    +0.124 A 
ATOM      3  C   UNL     1      -3.764   3.899  -2.133  0.00  0.00    +0.032 A 
ATOM      4  C   UNL     1      -4.838   4.042  -2.993  0.00  0.00    +0.037 A 
ATOM      5  C   UNL     1      -4.779   3.451  -4.252  0.00  0.00    +0.097 A 
ATOM      6  N   UNL     1      -3.711   2.762  -4.624  0.00  0.00    -0.247 NA
ATOM      7  C   UNL     1      -2.670   2.615  -3.826  0.00  0.00    +0.140 A 
BRANCH   2   8
ATOM      8  S   UNL     1      -1.269   2.957  -1.506  0.00  0.00    +0.062 S 
ATOM      9  O   UNL     1      -1.289   4.039  -0.585  0.00  0.00    -0.153 OA
ATOM     10  O   UNL     1      -0.156   2.696  -2.350  0.00  0.00    -0.153 OA
BRANCH   8  14
ATOM     11  C   UNL     1      -0.392  -1.252   2.259  0.00  0.00    -0.096 C 
ATOM     12  C   UNL     1      -0.261  -0.411  -0.008  0.00  0.00    -0.062 C 
ATOM     13  C   UNL     1      -1.070   0.271  -1.117  0.00  0.00    +0.091 C 
ATOM     14  N   UNL     1      -1.527   1.580  -0.624  0.00  0.00    -0.180 NA
ATOM     15  C   UNL     1      -2.219   1.632   0.672  0.00  0.00    +0.091 C 
ATOM     16  C   UNL     1      -1.365   0.897   1.711  0.00  0.00    -0.062 C 
ATOM     17  N   UNL     1      -1.089  -0.470   1.216  0.00  0.00    +0.380 N 
ATOM     18  H   UNL     1      -1.980  -0.930   0.994  0.00  0.00    -0.082 HD
ENDBRANCH   8  14
ENDBRANCH   2   8
ENDBRANCH   1   5
BRANCH   1  19
ATOM     19  C   UNL     1      -5.617   2.709  -6.838  0.00  0.00    +0.171 C 
BRANCH  19  20
ATOM     20  C   UNL     1      -6.704   2.776  -7.880  0.00  0.00    +0.228 C 
ATOM     21  O   UNL     1      -7.729   3.382  -7.648  0.00  0.00    -0.275 OA
ATOM     22  N   UNL     1      -6.537   2.164  -9.069  0.00  0.00    -0.282 N 
ATOM     23  H   UNL     1      -5.711   1.692  -9.259  0.00  0.00    +0.155 HD
BRANCH  22  24
ATOM     24  C   UNL     1      -7.556   2.210 -10.030  0.00  0.00    +0.076 A 
ATOM     25  C   UNL     1      -8.539   3.186  -9.955  0.00  0.00    +0.027 A 
ATOM     26  C   UNL     1      -9.542   3.229 -10.904  0.00  0.00    +0.002 A 
ATOM     27  C   UNL     1      -9.570   2.302 -11.929  0.00  0.00    +0.004 A 
ATOM     28  C   UNL     1      -8.594   1.326 -12.010  0.00  0.00    +0.048 A 
ATOM     29  C   UNL     1      -7.581   1.279 -11.066  0.00  0.00    +0.150 A 
BRANCH  29  30
ATOM     30  O   UNL     1      -6.617   0.324 -11.147  0.00  0.00    -0.454 OA
BRANCH  30  31
ATOM     31  C   UNL     1      -6.754  -0.788 -10.378  0.00  0.00    +0.129 A 
ATOM     32  C   UNL     1      -7.793  -0.876  -9.462  0.00  0.00    +0.046 A 
ATOM     33  C   UNL     1      -7.932  -2.009  -8.685  0.00  0.00    +0.004 A 
ATOM     34  C   UNL     1      -7.032  -3.051  -8.811  0.00  0.00    +0.000 A 
ATOM     35  C   UNL     1      -5.993  -2.964  -9.719  0.00  0.00    +0.004 A 
ATOM     36  C   UNL     1      -5.851  -1.835 -10.502  0.00  0.00    +0.046 A 
ENDBRANCH  30  31
ENDBRANCH  29  30
ENDBRANCH  22  24
ENDBRANCH  19  20
ENDBRANCH   1  19
TORSDOF 8
