REMARK  Name = ZINC39090517
REMARK  7 active torsions:
REMARK  status: ('A' for Active; 'I' for Inactive)
REMARK    1  A    between atoms: C_1  and  C_2
REMARK    2  A    between atoms: C_2  and  C_4
REMARK    3  A    between atoms: C_2  and  N_15
REMARK    4  A    between atoms: C_4  and  C_6
REMARK    5  A    between atoms: C_10  and  O_13
REMARK    6  A    between atoms: C_11  and  O_12
REMARK    7  A    between atoms: O_13  and  C_14
REMARK                            x       y       z     vdW  Elec       q    Type
REMARK                         _______ _______ _______ _____ _____    ______ ____
ROOT
ATOM      1  C   UNL     1       0.042  -0.556   2.518  0.00  0.00    +0.061 A 
ATOM      2  C   UNL     1      -1.294  -0.149   2.623  0.00  0.00    +0.015 A 
ATOM      3  C   UNL     1      -1.935  -0.201   3.840  0.00  0.00    +0.004 A 
ATOM      4  C   UNL     1      -1.266  -0.654   4.966  0.00  0.00    +0.049 A 
ATOM      5  C   UNL     1       0.054  -1.060   4.881  0.00  0.00    +0.162 A 
ATOM      6  C   UNL     1       0.717  -1.020   3.658  0.00  0.00    +0.169 A 
ENDROOT
BRANCH   1   7
ATOM      7  C   UNL     1       0.731  -0.503   1.223  0.00  0.00    +0.152 C 
ATOM      8  O   UNL     1       1.887  -0.861   1.135  0.00  0.00    -0.294 OA
BRANCH   7  10
ATOM      9  C   UNL     1      -0.019   1.526   0.010  0.00  0.00    -0.006 C 
ATOM     10  C   UNL     1       0.002  -0.004   0.002  0.00  0.00    -0.005 C 
BRANCH  10  11
ATOM     11  N   UNL     1       0.690  -0.478  -1.207  0.00  0.00    +0.385 N 
ATOM     12  H   UNL     1       1.636  -0.129  -1.214  0.00  0.00    -0.089 HD
ATOM     13  H   UNL     1       0.703  -1.487  -1.212  0.00  0.00    -0.089 HD
ATOM     14  H   UNL     1       0.202  -0.144  -2.024  0.00  0.00    -0.089 HD
ENDBRANCH  10  11
ENDBRANCH   7  10
ENDBRANCH   1   7
BRANCH   6  15
ATOM     15  O   UNL     1       2.010  -1.423   3.568  0.00  0.00    -0.503 OA
ATOM     16  H   UNL     1       2.653  -0.716   3.719  0.00  0.00    +0.292 HD
ENDBRANCH   6  15
BRANCH   5  17
ATOM     17  O   UNL     1       0.703  -1.503   5.991  0.00  0.00    -0.491 OA
ATOM     18  C   UNL     1      -0.040  -1.522   7.212  0.00  0.00    +0.277 C 
ENDBRANCH   5  17
TORSDOF 5
