REMARK  Name = ZINC04757351
REMARK  11 active torsions:
REMARK  status: ('A' for Active; 'I' for Inactive)
REMARK    1  A    between atoms: C_1  and  C_2
REMARK    2  A    between atoms: C_2  and  N_3
REMARK    3  A    between atoms: N_3  and  C_4
REMARK    4  A    between atoms: N_3  and  C_6
REMARK    5  A    between atoms: C_4  and  C_5
REMARK    6  A    between atoms: C_8  and  C_30
REMARK    7  A    between atoms: C_11  and  N_15
REMARK    8  A    between atoms: C_16  and  C_18
REMARK    9  A    between atoms: C_18  and  N_19
REMARK   10  A    between atoms: C_20  and  C_29
REMARK   11  A    between atoms: C_22  and  C_24
REMARK                            x       y       z     vdW  Elec       q    Type
REMARK                         _______ _______ _______ _____ _____    ______ ____
ROOT
ATOM      1  C   UNL     1       3.457   3.324  -0.151  0.00  0.00    +0.099 A 
ATOM      2  C   UNL     1       3.551   1.938  -0.349  0.00  0.00    +0.045 A 
ATOM      3  C   UNL     1       2.421   1.177  -0.358  0.00  0.00    -0.038 A 
ATOM      4  C   UNL     1       1.181   1.819  -0.165  0.00  0.00    +0.003 A 
ATOM      5  C   UNL     1      -0.020   1.093  -0.164  0.00  0.00    +0.033 A 
ATOM      6  C   UNL     1      -1.213   1.756   0.023  0.00  0.00    +0.034 A 
ATOM      7  C   UNL     1      -1.234   3.141   0.220  0.00  0.00    +0.025 A 
ATOM      8  C   UNL     1      -0.083   3.864   0.223  0.00  0.00    +0.028 A 
ATOM      9  C   UNL     1       1.152   3.221   0.030  0.00  0.00    +0.048 A 
ATOM     10  C   UNL     1       2.496  -0.313  -0.569  0.00  0.00    +0.044 C 
ATOM     11  N   UNL     1       2.294   3.993   0.040  0.00  0.00    -0.343 N 
ATOM     12  H   UNL     1       2.265   5.010   0.183  0.00  0.00    +0.167 HD
ENDROOT
BRANCH   6  13
ATOM     13  N   UNL     1      -2.414   1.037   0.019  0.00  0.00    -0.284 N 
ATOM     14  C   UNL     1      -3.537   1.603  -0.465  0.00  0.00    +0.239 C 
ATOM     15  O   UNL     1      -3.489   2.698  -0.986  0.00  0.00    -0.273 OA
ATOM     16  H   UNL     1      -2.439   0.132   0.366  0.00  0.00    +0.155 HD
BRANCH  14  17
ATOM     17  C   UNL     1      -4.853   0.876  -0.361  0.00  0.00    +0.239 C 
BRANCH  17  18
ATOM     18  N   UNL     1      -5.912   1.696  -0.956  0.00  0.00    -0.258 N 
ATOM     19  C   UNL     1      -6.304   1.670  -2.248  0.00  0.00    +0.051 A 
ATOM     20  C   UNL     1      -7.304   2.571  -2.392  0.00  0.00    +0.070 A 
ATOM     21  C   UNL     1      -7.531   3.167  -1.147  0.00  0.00    +0.179 A 
ATOM     22  N   UNL     1      -6.701   2.639  -0.284  0.00  0.00    -0.165 NA
ATOM     23 BR   UNL     1      -8.231   2.957  -3.995  0.00  0.00    -0.046 Br
ATOM     24  C   UNL     1      -5.731   0.797  -3.334  0.00  0.00    +0.066 C 
BRANCH  21  25
ATOM     25  C   UNL     1      -8.559   4.228  -0.848  0.00  0.00    +0.437 C 
ATOM     26  F   UNL     1      -9.760   3.620  -0.469  0.00  0.00    -0.164 F 
ATOM     27  F   UNL     1      -8.099   5.042   0.192  0.00  0.00    -0.164 F 
ATOM     28  F   UNL     1      -8.770   5.006  -1.991  0.00  0.00    -0.164 F 
ENDBRANCH  21  25
ENDBRANCH  17  18
ENDBRANCH  14  17
ENDBRANCH   6  13
BRANCH   1  29
ATOM     29  N   UNL     1       4.616   4.087  -0.144  0.00  0.00    -0.317 N 
BRANCH  29  31
ATOM     30  C   UNL     1       6.167   3.544  -1.956  0.00  0.00    +0.024 C 
ATOM     31  C   UNL     1       5.906   3.463  -0.450  0.00  0.00    +0.103 C 
ENDBRANCH  29  31
BRANCH  29  32
ATOM     32  C   UNL     1       4.550   5.516   0.170  0.00  0.00    +0.103 C 
ATOM     33  C   UNL     1       4.715   5.715   1.678  0.00  0.00    +0.024 C 
ENDBRANCH  29  32
ENDBRANCH   1  29
TORSDOF 7
