REMARK  Name = ZINC13240112
REMARK  5 active torsions:
REMARK  status: ('A' for Active; 'I' for Inactive)
REMARK    1  A    between atoms: C_3  and  S_10
REMARK    2  A    between atoms: C_6  and  C_7
REMARK    3  A    between atoms: S_10  and  N_13
REMARK    4  A    between atoms: N_13  and  C_14
REMARK    5  A    between atoms: C_19  and  C_20
REMARK                            x       y       z     vdW  Elec       q    Type
REMARK                         _______ _______ _______ _____ _____    ______ ____
ROOT
ATOM      1  N   UNL     1      -1.977   2.465   1.607  0.00  0.00    -0.215 N 
ATOM      2  H   UNL     1      -2.776   2.043   1.960  0.00  0.00    +0.174 HD
ENDROOT
BRANCH   1   3
ATOM      3  C   UNL     1      -1.144   3.192   2.449  0.00  0.00    +0.066 A 
ATOM      4  C   UNL     1      -0.505   4.332   1.982  0.00  0.00    +0.074 A 
ATOM      5  C   UNL     1       0.320   5.056   2.826  0.00  0.00    +0.164 A 
ATOM      6  C   UNL     1       0.523   4.641   4.140  0.00  0.00    +0.163 A 
ATOM      7  C   UNL     1      -0.099   3.509   4.617  0.00  0.00    +0.066 A 
ATOM      8  C   UNL     1      -0.941   2.771   3.774  0.00  0.00    +0.089 A 
ATOM      9  O   UNL     1       1.347   5.365   4.955  0.00  0.00    -0.488 OA
ATOM     10  C   UNL     1       0.876   6.662   5.326  0.00  0.00    +0.232 C 
ATOM     11  C   UNL     1       1.219   7.687   4.256  0.00  0.00    +0.082 C 
ATOM     12  C   UNL     1       0.504   7.413   2.943  0.00  0.00    +0.232 C 
ATOM     13  O   UNL     1       0.944   6.180   2.372  0.00  0.00    -0.488 OA
BRANCH   8  14
ATOM     14  C   UNL     1      -1.610   1.561   4.274  0.00  0.00    +0.388 C 
ATOM     15  O   UNL     1      -2.340   0.923   3.541  0.00  0.00    -0.241 OA
ATOM     16  O   UNL     1      -1.414   1.159   5.546  0.00  0.00    -0.241 OA
ENDBRANCH   8  14
ENDBRANCH   1   3
BRANCH   1  17
ATOM     17  S   UNL     1      -1.607   2.320  -0.001  0.00  0.00    +0.072 S 
ATOM     18  O   UNL     1      -1.423   3.639  -0.496  0.00  0.00    -0.150 OA
ATOM     19  O   UNL     1      -2.558   1.423  -0.557  0.00  0.00    -0.150 OA
BRANCH  17  22
ATOM     20  C   UNL     1       1.249  -0.492  -0.261  0.00  0.00    +0.015 A 
ATOM     21  C   UNL     1       0.026   0.140  -0.174  0.00  0.00    +0.029 A 
ATOM     22  C   UNL     1      -0.040   1.520  -0.104  0.00  0.00    +0.109 A 
ATOM     23  C   UNL     1       1.119   2.275  -0.120  0.00  0.00    +0.029 A 
ATOM     24  C   UNL     1       2.349   1.656  -0.207  0.00  0.00    +0.015 A 
ATOM     25  C   UNL     1       2.422   0.264  -0.278  0.00  0.00    +0.037 A 
BRANCH  25  26
ATOM     26  C   UNL     1       3.736  -0.407  -0.370  0.00  0.00    +0.242 C 
ATOM     27  O   UNL     1       3.797  -1.619  -0.431  0.00  0.00    -0.270 OA
ATOM     28  N   UNL     1       4.867   0.326  -0.386  0.00  0.00    -0.325 N 
ATOM     29  H   UNL     1       4.819   1.294  -0.338  0.00  0.00    +0.145 HD
ATOM     30  H   UNL     1       5.729  -0.114  -0.447  0.00  0.00    +0.145 HD
ENDBRANCH  25  26
ENDBRANCH  17  22
ENDBRANCH   1  17
TORSDOF 5
