REMARK  Name = ZINC39303752
REMARK  13 active torsions:
REMARK  status: ('A' for Active; 'I' for Inactive)
REMARK    1  A    between atoms: C_1  and  C_2
REMARK    2  A    between atoms: C_2  and  C_3
REMARK    3  A    between atoms: C_2  and  C_4
REMARK    4  A    between atoms: C_7  and  O_37
REMARK    5  A    between atoms: C_8  and  C_10
REMARK    6  A    between atoms: C_10  and  N_11
REMARK    7  A    between atoms: C_16  and  C_18
REMARK    8  A    between atoms: N_23  and  C_26
REMARK    9  A    between atoms: C_26  and  C_27
REMARK   10  A    between atoms: C_30  and  O_33
REMARK   11  A    between atoms: O_33  and  C_34
REMARK   12  A    between atoms: C_34  and  C_35
REMARK   13  A    between atoms: O_37  and  C_38
REMARK                            x       y       z     vdW  Elec       q    Type
REMARK                         _______ _______ _______ _____ _____    ______ ____
ROOT
ATOM      1  N   UNL     1       3.380  -3.970  -2.346  0.00  0.00    +0.390 N 
ATOM      2  C   UNL     1       3.017  -4.188  -3.751  0.00  0.00    -0.077 C 
ATOM      3  C   UNL     1       2.539  -5.629  -3.942  0.00  0.00    -0.019 C 
ATOM      4  C   UNL     1       3.665  -6.590  -3.549  0.00  0.00    -0.003 C 
ATOM      5  C   UNL     1       4.086  -6.304  -2.105  0.00  0.00    -0.006 C 
ATOM      6  C   UNL     1       4.507  -4.838  -1.982  0.00  0.00    +0.020 C 
ATOM      7  H   UNL     1       2.588  -4.186  -1.759  0.00  0.00    -0.080 HD
ENDROOT
BRANCH   6   8
ATOM      8  C   UNL     1       4.923  -4.553  -0.562  0.00  0.00    +0.202 C 
ATOM      9  O   UNL     1       4.118  -4.104   0.226  0.00  0.00    -0.277 OA
ATOM     10  N   UNL     1       6.188  -4.796  -0.169  0.00  0.00    -0.300 N 
ATOM     11  C   UNL     1       7.152  -5.435  -1.079  0.00  0.00    +0.123 C 
ATOM     12  C   UNL     1       8.425  -4.583  -1.115  0.00  0.00    +0.103 C 
ATOM     13  N   UNL     1       8.910  -4.374   0.256  0.00  0.00    -0.295 NA
ATOM     14  C   UNL     1       7.936  -3.619   1.056  0.00  0.00    +0.103 C 
ATOM     15  C   UNL     1       6.644  -4.425   1.179  0.00  0.00    +0.123 C 
BRANCH  13  16
ATOM     16  C   UNL     1      10.220  -3.710   0.256  0.00  0.00    +0.119 C 
BRANCH  16  17
ATOM     17  C   UNL     1      10.795  -3.732   1.649  0.00  0.00    -0.033 A 
ATOM     18  C   UNL     1      10.522  -2.698   2.525  0.00  0.00    +0.008 A 
ATOM     19  C   UNL     1      11.048  -2.716   3.803  0.00  0.00    +0.046 A 
ATOM     20  C   UNL     1      11.850  -3.773   4.206  0.00  0.00    +0.121 A 
ATOM     21  C   UNL     1      12.122  -4.810   3.325  0.00  0.00    +0.046 A 
ATOM     22  C   UNL     1      11.589  -4.790   2.051  0.00  0.00    +0.008 A 
BRANCH  20  23
ATOM     23  O   UNL     1      12.369  -3.793   5.462  0.00  0.00    -0.488 OA
BRANCH  23  24
ATOM     24  C   UNL     1      13.186  -4.913   5.809  0.00  0.00    +0.256 C 
BRANCH  24  25
ATOM     25  C   UNL     1      13.668  -4.763   7.228  0.00  0.00    +0.006 C 
ATOM     26  C   UNL     1      13.625  -5.785   8.046  0.00  0.00    +0.007 C 
ENDBRANCH  24  25
ENDBRANCH  23  24
ENDBRANCH  20  23
ENDBRANCH  16  17
ENDBRANCH  13  16
ENDBRANCH   6   8
BRANCH   1  27
ATOM     27  C   UNL     1       3.764  -2.566  -2.152  0.00  0.00    -0.038 C 
BRANCH  27  32
ATOM     28  C   UNL     1       0.686  -0.465  -1.542  0.00  0.00    -0.044 A 
ATOM     29  C   UNL     1       0.369  -0.056  -2.824  0.00  0.00    +0.007 A 
ATOM     30  C   UNL     1       1.148  -0.457  -3.891  0.00  0.00    +0.046 A 
ATOM     31  C   UNL     1       2.250  -1.272  -3.676  0.00  0.00    +0.121 A 
ATOM     32  C   UNL     1       2.567  -1.681  -2.389  0.00  0.00    -0.022 A 
ATOM     33  C   UNL     1       1.788  -1.272  -1.324  0.00  0.00    +0.009 A 
BRANCH  28  35
ATOM     34  C   UNL     1      -0.167   1.502  -0.296  0.00  0.00    +0.012 C 
ATOM     35  C   UNL     1      -0.166  -0.026  -0.379  0.00  0.00    +0.013 C 
ATOM     36  C   UNL     1      -1.598  -0.526  -0.578  0.00  0.00    +0.012 C 
ENDBRANCH  28  35
BRANCH  31  37
ATOM     37  O   UNL     1       3.018  -1.669  -4.725  0.00  0.00    -0.495 OA
ATOM     38  C   UNL     1       2.632  -1.210  -6.022  0.00  0.00    +0.277 C 
ENDBRANCH  31  37
ENDBRANCH  27  32
ENDBRANCH   1  27
TORSDOF 10
