REMARK  Name = ZINC09541742
REMARK  6 active torsions:
REMARK  status: ('A' for Active; 'I' for Inactive)
REMARK    1  A    between atoms: C_1  and  O_2
REMARK    2  A    between atoms: O_2  and  C_3
REMARK    3  A    between atoms: C_8  and  C_9
REMARK    4  A    between atoms: C_12  and  C_26
REMARK    5  A    between atoms: C_15  and  C_17
REMARK    6  A    between atoms: C_31  and  O_32
REMARK                            x       y       z     vdW  Elec       q    Type
REMARK                         _______ _______ _______ _____ _____    ______ ____
ROOT
ATOM      1  C   UNL     1       0.052  -2.828   0.005  0.00  0.00    +0.084 C 
ATOM      2  N   UNL     1      -0.277  -4.157   0.533  0.00  0.00    +0.401 N 
ATOM      3  C   UNL     1      -1.355  -4.022   1.527  0.00  0.00    -0.028 C 
ATOM      4  C   UNL     1      -2.637  -3.617   0.793  0.00  0.00    +0.044 C 
ATOM      5  C   UNL     1      -2.337  -2.477  -0.142  0.00  0.00    +0.040 C 
ATOM      6  N   UNL     1      -1.145  -2.152  -0.477  0.00  0.00    -0.298 NA
ATOM      7  H   UNL     1      -0.585  -4.753  -0.220  0.00  0.00    -0.081 HD
ATOM      8  H   UNL     1       0.538  -4.558   0.972  0.00  0.00    -0.081 HD
ENDROOT
BRANCH   5   9
ATOM      9  C   UNL     1      -3.463  -1.703  -0.696  0.00  0.00    -0.001 A 
ATOM     10  C   UNL     1      -4.777  -2.029  -0.346  0.00  0.00    +0.013 A 
ATOM     11  C   UNL     1      -5.827  -1.304  -0.864  0.00  0.00    +0.050 A 
ATOM     12  C   UNL     1      -5.587  -0.249  -1.735  0.00  0.00    +0.166 A 
ATOM     13  C   UNL     1      -4.278   0.081  -2.088  0.00  0.00    +0.167 A 
ATOM     14  C   UNL     1      -3.220  -0.638  -1.567  0.00  0.00    +0.059 A 
ATOM     15  O   UNL     1      -4.314   1.143  -2.946  0.00  0.00    -0.453 OA
ATOM     16  C   UNL     1      -5.667   1.197  -3.433  0.00  0.00    +0.466 C 
ATOM     17  O   UNL     1      -6.438   0.606  -2.371  0.00  0.00    -0.453 OA
ENDBRANCH   5   9
BRANCH   3  18
ATOM     18  C   UNL     1      -1.566  -5.338   2.230  0.00  0.00    -0.018 A 
ATOM     19  C   UNL     1      -1.114  -6.510   1.653  0.00  0.00    +0.020 A 
ATOM     20  C   UNL     1      -1.307  -7.718   2.298  0.00  0.00    +0.018 A 
ATOM     21  C   UNL     1      -1.953  -7.756   3.522  0.00  0.00    +0.019 A 
ATOM     22  C   UNL     1      -2.406  -6.588   4.101  0.00  0.00    +0.047 A 
ATOM     23  C   UNL     1      -2.208  -5.374   3.459  0.00  0.00    +0.119 A 
ATOM     24 BR   UNL     1      -0.688  -9.320   1.507  0.00  0.00    -0.050 Br
BRANCH  23  25
ATOM     25  O   UNL     1      -2.649  -4.222   4.030  0.00  0.00    -0.507 OA
ATOM     26  H   UNL     1      -3.554  -3.983   3.786  0.00  0.00    +0.292 HD
ENDBRANCH  23  25
ENDBRANCH   3  18
BRANCH   1  32
ATOM     27  C   UNL     1       0.626  -0.618   1.042  0.00  0.00    +0.123 A 
ATOM     28  C   UNL     1       1.202   0.139   2.051  0.00  0.00    +0.046 A 
ATOM     29  C   UNL     1       1.835  -0.488   3.107  0.00  0.00    +0.004 A 
ATOM     30  C   UNL     1       1.895  -1.869   3.158  0.00  0.00    +0.000 A 
ATOM     31  C   UNL     1       1.321  -2.625   2.153  0.00  0.00    +0.007 A 
ATOM     32  C   UNL     1       0.682  -2.003   1.097  0.00  0.00    +0.001 A 
BRANCH  27  34
ATOM     33  C   UNL     1      -0.017   1.425   0.010  0.00  0.00    +0.277 C 
ATOM     34  O   UNL     1       0.002  -0.004   0.002  0.00  0.00    -0.495 OA
ENDBRANCH  27  34
ENDBRANCH   1  32
TORSDOF 5
