REMARK  Name = ZINC45147080
REMARK  8 active torsions:
REMARK  status: ('A' for Active; 'I' for Inactive)
REMARK    1  A    between atoms: C_1  and  C_2
REMARK    2  A    between atoms: C_2  and  C_4
REMARK    3  A    between atoms: C_2  and  N_7
REMARK    4  A    between atoms: C_4  and  N_6
REMARK    5  A    between atoms: N_7  and  C_8
REMARK    6  A    between atoms: N_7  and  C_9
REMARK    7  A    between atoms: C_9  and  C_10
REMARK    8  A    between atoms: N_12  and  C_13
REMARK                            x       y       z     vdW  Elec       q    Type
REMARK                         _______ _______ _______ _____ _____    ______ ____
ROOT
ATOM      1  C   UNL     1       0.476  -2.083   1.147  0.00  0.00    +0.019 C 
ENDROOT
BRANCH   1   2
ATOM      2  C   UNL     1       1.023  -2.686   2.415  0.00  0.00    +0.201 C 
ATOM      3  O   UNL     1       1.459  -1.967   3.290  0.00  0.00    -0.278 OA
ATOM      4  N   UNL     1       1.029  -4.024   2.577  0.00  0.00    -0.286 N 
ATOM      5  H   UNL     1       0.612  -4.595   1.913  0.00  0.00    +0.155 HD
BRANCH   4   6
ATOM      6  C   UNL     1       1.636  -4.590   3.704  0.00  0.00    +0.047 A 
ATOM      7  C   UNL     1       2.632  -3.897   4.380  0.00  0.00    +0.024 A 
ATOM      8  C   UNL     1       3.230  -4.457   5.491  0.00  0.00    +0.002 A 
ATOM      9  C   UNL     1       2.837  -5.708   5.933  0.00  0.00    +0.001 A 
ATOM     10  C   UNL     1       1.846  -6.401   5.263  0.00  0.00    +0.017 A 
ATOM     11  C   UNL     1       1.240  -5.843   4.153  0.00  0.00    +0.039 A 
ATOM     12 BR   UNL     1      -0.121  -6.788   3.242  0.00  0.00    -0.048 Br
ENDBRANCH   4   6
ENDBRANCH   1   2
BRANCH   1  13
ATOM     13  N   UNL     1       0.583  -0.619   1.215  0.00  0.00    +0.389 N 
ATOM     14  C   UNL     1      -0.326  -0.110   2.251  0.00  0.00    -0.095 C 
ATOM     15  H   UNL     1       1.531  -0.361   1.443  0.00  0.00    -0.081 HD
BRANCH  13  17
ATOM     16  C   UNL     1       0.189   1.485   0.026  0.00  0.00    -0.007 C 
ATOM     17  C   UNL     1       0.216  -0.041  -0.084  0.00  0.00    -0.019 C 
BRANCH  17  18
ATOM     18  C   UNL     1       1.230  -0.451  -1.121  0.00  0.00    +0.032 C 
ATOM     19  S   UNL     1       2.655  -1.016  -0.666  0.00  0.00    -0.042 S 
BRANCH  18  20
ATOM     20  N   UNL     1       0.936  -0.343  -2.432  0.00  0.00    -0.357 N 
ATOM     21  H   UNL     1       0.071   0.000  -2.708  0.00  0.00    +0.142 HD
ATOM     22  H   UNL     1       1.588  -0.607  -3.099  0.00  0.00    +0.142 HD
ENDBRANCH  18  20
ENDBRANCH  17  18
ENDBRANCH  13  17
ENDBRANCH   1  13
TORSDOF 6
