REMARK  Name = ZINC00708936
REMARK  9 active torsions:
REMARK  status: ('A' for Active; 'I' for Inactive)
REMARK    1  A    between atoms: C_1  and  C_2
REMARK    2  A    between atoms: C_2  and  C_25
REMARK    3  A    between atoms: N_3  and  O_4
REMARK    4  A    between atoms: O_4  and  C_5
REMARK    5  A    between atoms: C_5  and  C_6
REMARK    6  A    between atoms: C_18  and  C_23
REMARK    7  A    between atoms: C_18  and  C_24
REMARK    8  A    between atoms: C_19  and  C_21
REMARK    9  A    between atoms: C_19  and  C_22
REMARK                            x       y       z     vdW  Elec       q    Type
REMARK                         _______ _______ _______ _____ _____    ______ ____
ROOT
ATOM      1  C   UNL     1      -0.068   7.993   0.245  0.00  0.00    +0.192 A 
ATOM      2  N   UNL     1       0.521   8.407  -0.919  0.00  0.00    -0.207 NA
ATOM      3  C   UNL     1       1.757   8.854  -0.513  0.00  0.00    +0.168 A 
ATOM      4  C   UNL     1       2.859   9.394  -1.301  0.00  0.00    +0.055 A 
ATOM      5  C   UNL     1       2.976   9.588  -2.731  0.00  0.00    -0.027 A 
ATOM      6  C   UNL     1       4.067  10.172  -3.226  0.00  0.00    -0.016 A 
ATOM      7  S   UNL     1       5.088  10.430  -1.739  0.00  0.00    -0.075 S 
ATOM      8  C   UNL     1       3.961   9.782  -0.587  0.00  0.00    +0.114 A 
ATOM      9  N   UNL     1       3.980   9.655   0.788  0.00  0.00    -0.228 NA
ATOM     10  C   UNL     1       2.983   9.095   1.367  0.00  0.00    +0.226 A 
ATOM     11  N   UNL     1       1.906   8.712   0.818  0.00  0.00    -0.201 N 
ATOM     12  N   UNL     1       0.717   8.128   1.265  0.00  0.00    -0.145 NA
ATOM     13  C   UNL     1       4.431  10.491  -4.627  0.00  0.00    -0.041 C 
ATOM     14  C   UNL     1       2.003  10.241  -4.996  0.00  0.00    -0.069 C 
ATOM     15  C   UNL     1       1.853   9.333  -3.752  0.00  0.00    +0.024 C 
ATOM     16  C   UNL     1       0.929   9.764  -6.070  0.00  0.00    -0.010 C 
ATOM     17  C   UNL     1       1.578  11.693  -4.540  0.00  0.00    -0.010 C 
ATOM     18  C   UNL     1       5.620   9.516  -5.045  0.00  0.00    -0.005 C 
ATOM     19  C   UNL     1       4.868  11.892  -4.801  0.00  0.00    -0.005 C 
ATOM     20  N   UNL     1       3.344  10.154  -5.565  0.00  0.00    +0.389 N 
ATOM     21  H   UNL     1       3.491   9.192  -5.893  0.00  0.00    -0.084 HD
ATOM     22  H   UNL     1       3.396  10.799  -6.362  0.00  0.00    -0.084 HD
ENDROOT
BRANCH   1  23
ATOM     23  C   UNL     1      -1.481   7.297   0.265  0.00  0.00    +0.340 C 
BRANCH  23  24
ATOM     24  O   UNL     1      -1.317   5.882   0.143  0.00  0.00    -0.386 OA
BRANCH  24  27
ATOM     25  C   UNL     1      -3.800   3.088   0.195  0.00  0.00    +0.069 C 
ATOM     26  C   UNL     1      -2.520   3.869   0.046  0.00  0.00    +0.084 C 
ATOM     27  N   UNL     1      -2.534   5.159   0.150  0.00  0.00    -0.089 NA
BRANCH  26  28
ATOM     28  C   UNL     1      -1.251   3.164  -0.219  0.00  0.00    -0.001 A 
ATOM     29  C   UNL     1      -1.033   1.889   0.309  0.00  0.00    +0.010 A 
ATOM     30  C   UNL     1       0.157   1.238   0.062  0.00  0.00    +0.001 A 
ATOM     31  C   UNL     1       1.130   1.839  -0.716  0.00  0.00    +0.000 A 
ATOM     32  C   UNL     1       0.920   3.100  -1.246  0.00  0.00    +0.001 A 
ATOM     33  C   UNL     1      -0.264   3.765  -1.003  0.00  0.00    +0.010 A 
ENDBRANCH  26  28
ENDBRANCH  24  27
ENDBRANCH  23  24
ENDBRANCH   1  23
TORSDOF 4
