REMARK  Name = ZINC19321647
REMARK  4 active torsions:
REMARK  status: ('A' for Active; 'I' for Inactive)
REMARK    1  A    between atoms: C_1  and  C_2
REMARK    2  A    between atoms: C_4  and  C_17
REMARK    3  A    between atoms: C_4  and  N_18
REMARK    4  A    between atoms: C_7  and  O_15
REMARK                            x       y       z     vdW  Elec       q    Type
REMARK                         _______ _______ _______ _____ _____    ______ ____
ROOT
ATOM      1  C   UNL     1      -2.792   3.919  -2.034  0.00  0.00    +0.011 C 
ATOM      2  C   UNL     1      -2.474   2.525  -2.577  0.00  0.00    +0.040 C 
ATOM      3  C   UNL     1      -1.098   2.501  -3.287  0.00  0.00    +0.049 C 
ATOM      4  N   UNL     1      -0.145   2.103  -2.246  0.00  0.00    -0.181 N 
ATOM      5  C   UNL     1      -0.711   1.569  -1.234  0.00  0.00    +0.071 C 
ATOM      6  C   UNL     1      -2.217   1.525  -1.433  0.00  0.00    +0.154 C 
ATOM      7  C   UNL     1      -2.819   2.026  -0.143  0.00  0.00    +0.145 A 
ATOM      8  C   UNL     1      -2.097   2.043   1.076  0.00  0.00    +0.111 A 
ATOM      9  N   UNL     1      -2.867   2.537   2.005  0.00  0.00    -0.054 NA
ATOM     10  O   UNL     1      -4.117   2.847   1.412  0.00  0.00    -0.242 OA
ATOM     11  N   UNL     1      -4.010   2.494   0.042  0.00  0.00    -0.050 NA
ATOM     12  C   UNL     1      -0.692   1.560   1.278  0.00  0.00    +0.067 C 
ATOM     13  C   UNL     1      -0.013   1.086   0.008  0.00  0.00    +0.062 C 
ATOM     14  O   UNL     1       1.255   2.290  -2.352  0.00  0.00    -0.170 OA
ATOM     15  C   UNL     1      -0.751   3.891  -3.824  0.00  0.00    +0.016 C 
ENDROOT
BRANCH   3  16
ATOM     16  N   UNL     1      -1.103   1.517  -4.378  0.00  0.00    +0.396 N 
ATOM     17  H   UNL     1      -0.120   1.512  -4.872  0.00  0.00    -0.086 HD
ATOM     18  H   UNL     1      -1.880   1.785  -5.110  0.00  0.00    -0.086 HD
ATOM     19  H   UNL     1      -1.314   0.518  -3.970  0.00  0.00    -0.086 HD
ENDBRANCH   3  16
BRANCH   6  20
ATOM     20  O   UNL     1      -2.668   0.211  -1.770  0.00  0.00    -0.376 OA
ATOM     21  H   UNL     1      -2.551  -0.612  -1.050  0.00  0.00    +0.211 HD
ENDBRANCH   6  20
TORSDOF 2
