REMARK  Name = ZINC59719264
REMARK  7 active torsions:
REMARK  status: ('A' for Active; 'I' for Inactive)
REMARK    1  A    between atoms: C_3  and  C_6
REMARK    2  A    between atoms: N_8  and  C_9
REMARK    3  A    between atoms: C_12  and  N_16
REMARK    4  A    between atoms: N_16  and  C_17
REMARK    5  A    between atoms: C_17  and  N_19
REMARK    6  A    between atoms: C_20  and  C_22
REMARK    7  A    between atoms: C_25  and  C_27
REMARK                            x       y       z     vdW  Elec       q    Type
REMARK                         _______ _______ _______ _____ _____    ______ ____
ROOT
ATOM      1  N   UNL     1       9.769  -0.277  -0.103  0.00  0.00    -0.297 N 
ATOM      2  H   UNL     1      10.211   0.582  -0.011  0.00  0.00    +0.154 HD
ENDROOT
BRANCH   1   6
ATOM      3  C   UNL     1       5.607  -0.506   0.033  0.00  0.00    +0.052 A 
ATOM      4  C   UNL     1       6.377  -1.436   0.720  0.00  0.00    +0.026 A 
ATOM      5  C   UNL     1       7.755  -1.360   0.675  0.00  0.00    +0.025 A 
ATOM      6  C   UNL     1       8.371  -0.354  -0.058  0.00  0.00    +0.034 A 
ATOM      7  C   UNL     1       7.603   0.576  -0.745  0.00  0.00    +0.045 A 
ATOM      8  C   UNL     1       6.224   0.497  -0.705  0.00  0.00    +0.064 A 
ATOM      9 CL   UNL     1       5.262   1.655  -1.570  0.00  0.00    -0.082 Cl
BRANCH   3  12
ATOM     10  C   UNL     1       3.597  -1.056   1.183  0.00  0.00    +0.284 C 
ATOM     11  O   UNL     1       4.259  -1.464   2.119  0.00  0.00    -0.266 OA
ATOM     12  N   UNL     1       4.210  -0.583   0.079  0.00  0.00    -0.278 N 
ATOM     13  H   UNL     1       3.683  -0.297  -0.683  0.00  0.00    +0.155 HD
BRANCH  10  16
ATOM     14  C   UNL     1       0.041  -1.366   1.949  0.00  0.00    +0.042 A 
ATOM     15  C   UNL     1       1.388  -1.529   2.308  0.00  0.00    +0.054 A 
ATOM     16  C   UNL     1       2.132  -1.079   1.255  0.00  0.00    +0.189 A 
ATOM     17  O   UNL     1       1.284  -0.659   0.294  0.00  0.00    -0.458 OA
ATOM     18  C   UNL     1       0.022  -0.830   0.708  0.00  0.00    +0.196 A 
ENDBRANCH  10  16
ENDBRANCH   3  12
ENDBRANCH   1   6
BRANCH   1  19
ATOM     19  C   UNL     1      10.500  -1.396  -0.275  0.00  0.00    +0.141 C 
ATOM     20  S   UNL     1       9.726  -2.922  -0.346  0.00  0.00    -0.018 S 
BRANCH  19  21
ATOM     21  N   UNL     1      11.841  -1.314  -0.391  0.00  0.00    -0.261 N 
ATOM     22  C   UNL     1      12.572  -2.433  -0.563  0.00  0.00    +0.285 C 
ATOM     23  O   UNL     1      12.021  -3.518  -0.613  0.00  0.00    -0.266 OA
ATOM     24  H   UNL     1      12.279  -0.450  -0.351  0.00  0.00    +0.157 HD
BRANCH  22  25
ATOM     25  C   UNL     1      14.027  -2.345  -0.689  0.00  0.00    +0.190 A 
ATOM     26  C   UNL     1      14.890  -3.404  -0.873  0.00  0.00    +0.055 A 
ATOM     27  C   UNL     1      16.179  -2.867  -0.940  0.00  0.00    +0.050 A 
ATOM     28  C   UNL     1      16.059  -1.514  -0.795  0.00  0.00    +0.136 A 
ATOM     29  O   UNL     1      14.758  -1.210  -0.651  0.00  0.00    -0.450 OA
BRANCH  28  30
ATOM     30  C   UNL     1      17.174  -0.545  -0.803  0.00  0.00    +0.017 A 
ATOM     31  C   UNL     1      18.487  -0.989  -0.974  0.00  0.00    +0.013 A 
ATOM     32  C   UNL     1      19.523  -0.079  -0.980  0.00  0.00    +0.021 A 
ATOM     33  C   UNL     1      19.264   1.272  -0.817  0.00  0.00    +0.041 A 
ATOM     34  C   UNL     1      17.964   1.718  -0.647  0.00  0.00    +0.021 A 
ATOM     35  C   UNL     1      16.918   0.819  -0.645  0.00  0.00    +0.013 A 
ATOM     36 CL   UNL     1      20.574   2.410  -0.824  0.00  0.00    -0.084 Cl
ENDBRANCH  28  30
ENDBRANCH  22  25
ENDBRANCH  19  21
ENDBRANCH   1  19
TORSDOF 7
