REMARK  Name = ZINC36545155
REMARK  12 active torsions:
REMARK  status: ('A' for Active; 'I' for Inactive)
REMARK    1  A    between atoms: C_1  and  C_2
REMARK    2  A    between atoms: C_2  and  C_3
REMARK    3  A    between atoms: C_2  and  C_4
REMARK    4  A    between atoms: C_2  and  N_5
REMARK    5  A    between atoms: C_6  and  C_8
REMARK    6  A    between atoms: C_8  and  C_10
REMARK    7  A    between atoms: C_8  and  N_17
REMARK    8  A    between atoms: C_13  and  O_16
REMARK    9  A    between atoms: N_17  and  C_18
REMARK   10  A    between atoms: C_25  and  C_27
REMARK   11  A    between atoms: C_28  and  O_34
REMARK   12  A    between atoms: C_32  and  O_33
REMARK                            x       y       z     vdW  Elec       q    Type
REMARK                         _______ _______ _______ _____ _____    ______ ____
ROOT
ATOM      1  N   UNL     1       4.103  -0.091  -2.480  0.00  0.00    -0.250 N 
ATOM      2  C   UNL     1       4.731  -0.297  -3.654  0.00  0.00    +0.259 C 
ATOM      3  O   UNL     1       4.110  -0.723  -4.610  0.00  0.00    -0.269 OA
ENDROOT
BRANCH   1   4
ATOM      4  C   UNL     1       4.800   0.468  -1.403  0.00  0.00    +0.056 A 
ATOM      5  C   UNL     1       5.510  -0.350  -0.534  0.00  0.00    +0.025 A 
ATOM      6  C   UNL     1       6.197   0.204   0.528  0.00  0.00    +0.002 A 
ATOM      7  C   UNL     1       6.178   1.573   0.728  0.00  0.00    +0.002 A 
ATOM      8  C   UNL     1       5.472   2.391  -0.135  0.00  0.00    +0.022 A 
ATOM      9  C   UNL     1       4.787   1.843  -1.203  0.00  0.00    +0.062 A 
ATOM     10 CL   UNL     1       3.907   2.871  -2.290  0.00  0.00    -0.082 Cl
ENDBRANCH   1   4
BRANCH   2  11
ATOM     11  C   UNL     1       6.168  -0.006  -3.781  0.00  0.00    +0.120 A 
ATOM     12  C   UNL     1       7.119  -0.960  -3.390  0.00  0.00    +0.133 A 
ATOM     13  C   UNL     1       8.470  -0.676  -3.514  0.00  0.00    +0.046 A 
ATOM     14  C   UNL     1       8.881   0.543  -4.021  0.00  0.00    +0.007 A 
ATOM     15  C   UNL     1       7.952   1.490  -4.410  0.00  0.00    +0.046 A 
ATOM     16  C   UNL     1       6.597   1.225  -4.301  0.00  0.00    +0.133 A 
BRANCH  16  17
ATOM     17  O   UNL     1       5.688   2.154  -4.688  0.00  0.00    -0.506 OA
ATOM     18  H   UNL     1       5.416   2.757  -3.983  0.00  0.00    +0.292 HD
ENDBRANCH  16  17
BRANCH  12  19
ATOM     19  O   UNL     1       6.718  -2.156  -2.891  0.00  0.00    -0.506 OA
ATOM     20  H   UNL     1       6.598  -2.841  -3.562  0.00  0.00    +0.292 HD
ENDBRANCH  12  19
ENDBRANCH   2  11
BRANCH   1  21
ATOM     21  C   UNL     1       2.691  -0.453  -2.331  0.00  0.00    +0.198 C 
BRANCH  21  22
ATOM     22  C   UNL     1       2.530  -1.939  -2.522  0.00  0.00    -0.018 A 
ATOM     23  C   UNL     1       3.364  -2.815  -1.851  0.00  0.00    +0.009 A 
ATOM     24  C   UNL     1       3.219  -4.178  -2.025  0.00  0.00    +0.046 A 
ATOM     25  C   UNL     1       2.235  -4.667  -2.873  0.00  0.00    +0.117 A 
ATOM     26  C   UNL     1       1.400  -3.785  -3.544  0.00  0.00    +0.046 A 
ATOM     27  C   UNL     1       1.546  -2.424  -3.363  0.00  0.00    +0.009 A 
BRANCH  25  28
ATOM     28  O   UNL     1       2.091  -6.007  -3.046  0.00  0.00    -0.507 OA
ATOM     29  H   UNL     1       1.480  -6.421  -2.421  0.00  0.00    +0.292 HD
ENDBRANCH  25  28
ENDBRANCH  21  22
BRANCH  21  31
ATOM     30  N   UNL     1       1.015   0.518  -0.792  0.00  0.00    -0.309 N 
ATOM     31  C   UNL     1       2.217  -0.069  -0.952  0.00  0.00    +0.239 C 
ATOM     32  O   UNL     1       2.918  -0.289   0.013  0.00  0.00    -0.273 OA
ATOM     33  H   UNL     1       0.455   0.695  -1.564  0.00  0.00    +0.149 HD
BRANCH  30  35
ATOM     34  C   UNL     1       1.538   1.887   1.166  0.00  0.00    +0.031 C 
ATOM     35  C   UNL     1       0.554   0.891   0.547  0.00  0.00    +0.026 C 
ATOM     36  C   UNL     1       0.474  -0.359   1.425  0.00  0.00    +0.031 C 
ATOM     37  C   UNL     1      -0.830   1.535   0.450  0.00  0.00    +0.031 C 
ENDBRANCH  30  35
ENDBRANCH  21  31
ENDBRANCH   1  21
TORSDOF 9
