REMARK  Name = ZINC37623361
REMARK  7 active torsions:
REMARK  status: ('A' for Active; 'I' for Inactive)
REMARK    1  A    between atoms: C_1  and  C_2
REMARK    2  A    between atoms: C_6  and  C_18
REMARK    3  A    between atoms: C_7  and  N_8
REMARK    4  A    between atoms: C_9  and  C_11
REMARK    5  A    between atoms: C_11  and  C_13
REMARK    6  A    between atoms: C_11  and  N_17
REMARK    7  A    between atoms: C_13  and  C_14
REMARK                            x       y       z     vdW  Elec       q    Type
REMARK                         _______ _______ _______ _____ _____    ______ ____
ROOT
ATOM      1  N   UNL     1       0.074   0.040   2.397  0.00  0.00    -0.286 N 
ATOM      2  C   UNL     1      -0.073  -0.614   3.567  0.00  0.00    +0.203 C 
ATOM      3  O   UNL     1      -0.136  -1.825   3.581  0.00  0.00    -0.277 OA
ATOM      4  H   UNL     1       0.191   1.002   2.391  0.00  0.00    +0.155 HD
ENDROOT
BRANCH   1  11
ATOM      5  C   UNL     1       2.543  -0.363   1.040  0.00  0.00    +0.046 C 
ATOM      6  C   UNL     1       1.240  -0.890   0.497  0.00  0.00    -0.028 A 
ATOM      7  C   UNL     1       1.221  -1.597  -0.689  0.00  0.00    +0.020 A 
ATOM      8  C   UNL     1       0.026  -2.082  -1.189  0.00  0.00    +0.018 A 
ATOM      9  C   UNL     1      -1.155  -1.860  -0.502  0.00  0.00    +0.020 A 
ATOM     10  C   UNL     1      -1.142  -1.154   0.685  0.00  0.00    -0.028 A 
ATOM     11  C   UNL     1       0.057  -0.671   1.192  0.00  0.00    +0.039 A 
ATOM     12  C   UNL     1      -2.428  -0.912   1.432  0.00  0.00    +0.046 C 
ATOM     13 BR   UNL     1       0.004  -3.049  -2.814  0.00  0.00    -0.050 Br
ENDBRANCH   1  11
BRANCH   2  14
ATOM     14  C   UNL     1      -0.159   0.161   4.857  0.00  0.00    +0.022 C 
BRANCH  14  15
ATOM     15  N   UNL     1      -0.779  -0.678   5.891  0.00  0.00    +0.386 N 
ATOM     16  H   UNL     1      -0.837  -0.160   6.755  0.00  0.00    -0.089 HD
ATOM     17  H   UNL     1      -1.706  -0.945   5.596  0.00  0.00    -0.089 HD
ATOM     18  H   UNL     1      -0.220  -1.506   6.032  0.00  0.00    -0.089 HD
ENDBRANCH  14  15
BRANCH  14  19
ATOM     19  C   UNL     1       1.247   0.566   5.303  0.00  0.00    +0.088 C 
BRANCH  19  20
ATOM     20  C   UNL     1       1.153   1.443   6.525  0.00  0.00    +0.209 C 
ATOM     21  O   UNL     1       0.068   1.718   6.992  0.00  0.00    -0.276 OA
ATOM     22  N   UNL     1       2.274   1.923   7.098  0.00  0.00    -0.329 N 
ATOM     23  H   UNL     1       3.142   1.703   6.724  0.00  0.00    +0.145 HD
ATOM     24  H   UNL     1       2.213   2.488   7.884  0.00  0.00    +0.145 HD
ENDBRANCH  19  20
ENDBRANCH  14  19
ENDBRANCH   2  14
TORSDOF 5
