REMARK  Name = ZINC13998641
REMARK  6 active torsions:
REMARK  status: ('A' for Active; 'I' for Inactive)
REMARK    1  A    between atoms: C_4  and  O_7
REMARK    2  A    between atoms: O_7  and  C_8
REMARK    3  A    between atoms: C_8  and  C_9
REMARK    4  A    between atoms: N_22  and  C_23
REMARK    5  A    between atoms: C_23  and  C_24
REMARK    6  A    between atoms: C_24  and  N_47
REMARK                            x       y       z     vdW  Elec       q    Type
REMARK                         _______ _______ _______ _____ _____    ______ ____
ROOT
ATOM      1  C   UNL     1       2.719   5.866  -0.841  0.00  0.00    +0.169 A 
ATOM      2  N   UNL     1       1.423   5.636  -0.911  0.00  0.00    -0.213 NA
ATOM      3  C   UNL     1       0.876   4.426  -0.808  0.00  0.00    +0.131 A 
ATOM      4  C   UNL     1       1.786   3.348  -0.610  0.00  0.00    +0.051 A 
ATOM      5  C   UNL     1       1.460   1.939  -0.468  0.00  0.00    -0.025 A 
ATOM      6  C   UNL     1       2.499   1.091  -0.288  0.00  0.00    -0.004 A 
ATOM      7  S   UNL     1       3.948   2.117  -0.301  0.00  0.00    -0.073 S 
ATOM      8  C   UNL     1       3.164   3.677  -0.545  0.00  0.00    +0.114 A 
ATOM      9  N   UNL     1       3.620   4.909  -0.658  0.00  0.00    -0.221 NA
ATOM     10  C   UNL     1       2.437  -0.396  -0.118  0.00  0.00    +0.043 C 
ATOM     11  C   UNL     1       0.986  -0.790   0.195  0.00  0.00    +0.005 C 
ATOM     12  C   UNL     1       0.062  -0.089  -0.804  0.00  0.00    +0.005 C 
ATOM     13  C   UNL     1       0.028   1.412  -0.515  0.00  0.00    +0.037 C 
ATOM     14  N   UNL     1      -0.491   4.228  -0.888  0.00  0.00    -0.330 N 
ATOM     15  H   UNL     1      -0.864   3.347  -0.727  0.00  0.00    +0.147 HD
ENDROOT
BRANCH   1  16
ATOM     16  C   UNL     1       3.201   7.288  -0.974  0.00  0.00    +0.305 C 
BRANCH  16  17
ATOM     17  O   UNL     1       3.454   7.578  -2.350  0.00  0.00    -0.484 OA
BRANCH  17  21
ATOM     18  C   UNL     1       4.803  11.372  -3.248  0.00  0.00    +0.000 A 
ATOM     19  C   UNL     1       4.616  10.448  -4.260  0.00  0.00    +0.004 A 
ATOM     20  C   UNL     1       4.164   9.177  -3.962  0.00  0.00    +0.045 A 
ATOM     21  C   UNL     1       3.898   8.828  -2.646  0.00  0.00    +0.121 A 
ATOM     22  C   UNL     1       4.082   9.758  -1.633  0.00  0.00    +0.045 A 
ATOM     23  C   UNL     1       4.540  11.025  -1.935  0.00  0.00    +0.004 A 
ENDBRANCH  17  21
ENDBRANCH  16  17
ENDBRANCH   1  16
BRANCH  14  24
ATOM     24  C   UNL     1      -1.375   5.349  -1.217  0.00  0.00    +0.083 C 
BRANCH  24  25
ATOM     25  C   UNL     1      -2.826   4.864  -1.241  0.00  0.00    -0.068 C 
BRANCH  25  28
ATOM     26  H   UNL     1      -3.445   6.415  -2.444  0.00  0.00    -0.090 HD
ATOM     27  H   UNL     1      -4.677   5.692  -1.592  0.00  0.00    -0.090 HD
ATOM     28  N   UNL     1      -3.708   6.003  -1.550  0.00  0.00    +0.379 N 
ATOM     29  H   UNL     1      -3.615   6.712  -0.814  0.00  0.00    -0.090 HD
ENDBRANCH  25  28
ENDBRANCH  24  25
ENDBRANCH  14  24
TORSDOF 6
