REMARK  Name = ZINC38999066
REMARK  6 active torsions:
REMARK  status: ('A' for Active; 'I' for Inactive)
REMARK    1  A    between atoms: C_1  and  C_2
REMARK    2  A    between atoms: C_4  and  C_8
REMARK    3  A    between atoms: C_12  and  S_16
REMARK    4  A    between atoms: N_14  and  N_15
REMARK    5  A    between atoms: S_16  and  C_17
REMARK    6  A    between atoms: C_17  and  C_18
REMARK                            x       y       z     vdW  Elec       q    Type
REMARK                         _______ _______ _______ _____ _____    ______ ____
ROOT
ATOM      1  C   UNL     1      -0.975  -2.933  -1.273  0.00  0.00    +0.185 C 
ATOM      2  N   UNL     1      -0.332  -2.351  -2.480  0.00  0.00    -0.234 NA
ATOM      3  N   UNL     1      -0.368  -3.461  -3.444  0.00  0.00    -0.228 NA
ATOM      4  C   UNL     1      -0.102  -4.668  -2.629  0.00  0.00    +0.214 C 
ATOM      5  N   UNL     1      -0.494  -4.334  -1.241  0.00  0.00    -0.197 NA
ATOM      6  H   UNL     1      -0.855  -1.558  -2.821  0.00  0.00    +0.143 HD
ATOM      7  H   UNL     1      -1.268  -3.520  -3.895  0.00  0.00    +0.143 HD
ENDROOT
BRANCH   1  11
ATOM      8  C   UNL     1      -0.018   1.508  -0.000  0.00  0.00    +0.067 C 
ATOM      9  C   UNL     1       0.003   0.001  -0.008  0.00  0.00    +0.058 C 
ATOM     10  C   UNL     1      -1.085  -0.772  -0.005  0.00  0.00    +0.029 C 
ATOM     11  C   UNL     1      -0.529  -2.186  -0.015  0.00  0.00    +0.186 C 
ATOM     12  N   UNL     1       0.927  -1.968  -0.022  0.00  0.00    -0.177 NA
ATOM     13  N   UNL     1       1.126  -0.751  -0.024  0.00  0.00    -0.159 NA
ENDBRANCH   1  11
BRANCH   5  14
ATOM     14  N   UNL     1      -1.532  -5.231  -0.759  0.00  0.00    -0.264 NA
ATOM     15  H   UNL     1      -1.204  -6.185  -0.737  0.00  0.00    +0.137 HD
ATOM     16  H   UNL     1      -1.866  -4.943   0.148  0.00  0.00    +0.137 HD
ENDBRANCH   5  14
BRANCH   4  17
ATOM     17  S   UNL     1      -1.096  -6.059  -3.235  0.00  0.00    -0.115 S 
BRANCH  17  18
ATOM     18  C   UNL     1      -2.806  -5.469  -3.099  0.00  0.00    +0.168 C 
BRANCH  18  19
ATOM     19  C   UNL     1      -3.748  -6.544  -3.578  0.00  0.00    +0.228 C 
ATOM     20  O   UNL     1      -3.309  -7.604  -3.972  0.00  0.00    -0.275 OA
ATOM     21  N   UNL     1      -5.078  -6.327  -3.568  0.00  0.00    -0.270 N 
ATOM     22  C   UNL     1      -5.943  -7.278  -4.108  0.00  0.00    +0.125 A 
ATOM     23  C   UNL     1      -7.304  -7.003  -4.191  0.00  0.00    +0.045 A 
ATOM     24  C   UNL     1      -8.151  -7.955  -4.729  0.00  0.00    +0.020 A 
ATOM     25  C   UNL     1      -7.606  -9.155  -5.169  0.00  0.00    +0.036 A 
ATOM     26  C   UNL     1      -6.245  -9.360  -5.056  0.00  0.00    +0.128 A 
ATOM     27  N   UNL     1      -5.461  -8.432  -4.542  0.00  0.00    -0.239 NA
ATOM     28 BR   UNL     1      -8.716 -10.493  -5.913  0.00  0.00    -0.049 Br
ATOM     29  H   UNL     1      -5.434  -5.510  -3.185  0.00  0.00    +0.156 HD
ENDBRANCH  18  19
ENDBRANCH  17  18
ENDBRANCH   4  17
TORSDOF 5
