REMARK  Name = ZINC39710803
REMARK  10 active torsions:
REMARK  status: ('A' for Active; 'I' for Inactive)
REMARK    1  A    between atoms: C_1  and  C_2
REMARK    2  A    between atoms: C_8  and  C_14
REMARK    3  A    between atoms: C_14  and  C_16
REMARK    4  A    between atoms: C_14  and  N_25
REMARK    5  A    between atoms: N_20  and  C_21
REMARK    6  A    between atoms: C_21  and  C_22
REMARK    7  A    between atoms: C_22  and  O_23
REMARK    8  A    between atoms: O_23  and  C_24
REMARK    9  A    between atoms: N_28  and  C_31
REMARK   10  A    between atoms: C_35  and  C_37
REMARK                            x       y       z     vdW  Elec       q    Type
REMARK                         _______ _______ _______ _____ _____    ______ ____
ROOT
ATOM      1  C   UNL     1       1.306  -2.579   4.422  0.00  0.00    +0.142 C 
ENDROOT
BRANCH   1   9
ATOM      2  C   UNL     1      -2.690  -6.128   1.404  0.00  0.00    +0.045 C 
ATOM      3  C   UNL     1      -2.762  -5.475   2.760  0.00  0.00    -0.029 A 
ATOM      4  C   UNL     1      -3.700  -5.883   3.655  0.00  0.00    +0.005 A 
ATOM      5  C   UNL     1      -3.820  -5.322   4.927  0.00  0.00    +0.001 A 
ATOM      6  C   UNL     1      -2.996  -4.326   5.342  0.00  0.00    +0.009 A 
ATOM      7  C   UNL     1      -1.963  -3.838   4.427  0.00  0.00    -0.007 A 
ATOM      8  C   UNL     1      -1.113  -2.839   4.800  0.00  0.00    -0.003 C 
ATOM      9  C   UNL     1      -0.074  -2.397   3.788  0.00  0.00    +0.123 C 
ATOM     10  C   UNL     1      -0.065  -3.099   2.449  0.00  0.00    +0.226 C 
ATOM     11  O   UNL     1       0.747  -2.784   1.600  0.00  0.00    -0.275 OA
ATOM     12  N   UNL     1      -0.944  -4.056   2.204  0.00  0.00    -0.284 N 
ATOM     13  C   UNL     1      -1.855  -4.452   3.092  0.00  0.00    +0.043 A 
ATOM     14  H   UNL     1      -0.921  -4.494   1.339  0.00  0.00    +0.155 HD
ENDBRANCH   1   9
BRANCH   1  15
ATOM     15  N   UNL     1       1.395  -1.767   5.643  0.00  0.00    -0.289 NA
ATOM     16  C   UNL     1       1.278  -0.336   5.333  0.00  0.00    +0.104 C 
ATOM     17  C   UNL     1       1.194   0.461   6.639  0.00  0.00    +0.120 C 
ATOM     18  N   UNL     1       2.344   0.100   7.482  0.00  0.00    -0.327 N 
ATOM     19  C   UNL     1       2.607  -1.327   7.725  0.00  0.00    +0.120 C 
ATOM     20  C   UNL     1       2.636  -2.053   6.376  0.00  0.00    +0.104 C 
BRANCH  18  21
ATOM     21  C   UNL     1       3.164   1.085   8.036  0.00  0.00    +0.030 A 
ATOM     22  C   UNL     1       2.832   2.427   7.896  0.00  0.00    +0.023 A 
ATOM     23  C   UNL     1       3.645   3.398   8.446  0.00  0.00    +0.002 A 
ATOM     24  C   UNL     1       4.789   3.037   9.134  0.00  0.00    +0.012 A 
ATOM     25  C   UNL     1       5.123   1.703   9.274  0.00  0.00    +0.057 A 
ATOM     26  C   UNL     1       4.311   0.726   8.732  0.00  0.00    +0.035 A 
BRANCH  25  27
ATOM     27  C   UNL     1       6.371   1.314  10.024  0.00  0.00    +0.417 C 
ATOM     28  F   UNL     1       7.019   2.466  10.480  0.00  0.00    -0.166 F 
ATOM     29  F   UNL     1       6.027   0.509  11.116  0.00  0.00    -0.166 F 
ATOM     30  F   UNL     1       7.224   0.605   9.172  0.00  0.00    -0.166 F 
ENDBRANCH  25  27
ENDBRANCH  18  21
ENDBRANCH   1  15
BRANCH   1  31
ATOM     31  C   UNL     1       1.511  -4.032   4.769  0.00  0.00    +0.170 A 
ATOM     32  N   UNL     1       0.965  -4.682   5.768  0.00  0.00    -0.112 NA
ATOM     33  N   UNL     1       1.387  -5.899   5.727  0.00  0.00    -0.023 NA
ATOM     34  N   UNL     1       2.188  -6.041   4.729  0.00  0.00    -0.044 NA
ATOM     35  N   UNL     1       2.286  -4.913   4.111  0.00  0.00    -0.225 N 
BRANCH  35  36
ATOM     36  C   UNL     1       3.092  -4.643   2.918  0.00  0.00    +0.175 C 
BRANCH  36  37
ATOM     37  C   UNL     1       4.492  -4.190   3.340  0.00  0.00    +0.183 C 
BRANCH  37  38
ATOM     38  O   UNL     1       5.278  -3.926   2.177  0.00  0.00    -0.381 OA
ATOM     39  C   UNL     1       6.610  -3.495   2.461  0.00  0.00    +0.194 C 
ENDBRANCH  37  38
ENDBRANCH  36  37
ENDBRANCH  35  36
ENDBRANCH   1  31
TORSDOF 8
