REMARK  Name = ZINC00809838
REMARK  3 active torsions:
REMARK  status: ('A' for Active; 'I' for Inactive)
REMARK    1  A    between atoms: C_3  and  C_6
REMARK    2  A    between atoms: C_8  and  C_25
REMARK    3  A    between atoms: N_14  and  C_15
REMARK                            x       y       z     vdW  Elec       q    Type
REMARK                         _______ _______ _______ _____ _____    ______ ____
ROOT
ATOM      1  C   UNL     1       7.850  -0.370  -0.703  0.00  0.00    +0.083 A 
ATOM      2  C   UNL     1       7.432   0.966  -0.774  0.00  0.00    +0.061 A 
ATOM      3  C   UNL     1       6.088   1.243  -0.615  0.00  0.00    +0.149 A 
ATOM      4  N   UNL     1       5.240   0.247  -0.401  0.00  0.00    -0.208 NA
ATOM      5  C   UNL     1       5.662  -1.007  -0.338  0.00  0.00    +0.232 A 
ATOM      6  N   UNL     1       6.940  -1.319  -0.479  0.00  0.00    -0.212 NA
ATOM      7  N   UNL     1       4.740  -2.019  -0.112  0.00  0.00    -0.297 N 
ATOM      8  C   UNL     1       3.392  -1.732  -0.093  0.00  0.00    +0.180 C 
ATOM      9  N   UNL     1       2.952  -0.472  -0.431  0.00  0.00    -0.327 N 
ATOM     10  H   UNL     1       5.044  -2.929   0.032  0.00  0.00    +0.172 HD
ATOM     11  H   UNL     1       2.750  -3.548   0.567  0.00  0.00    +0.159 HD
ATOM     12  H   UNL     1       3.576   0.181  -0.783  0.00  0.00    +0.169 HD
ATOM     13  N   UNL     1       2.470  -2.624   0.237  0.00  0.00    -0.371 N 
ATOM     14  H   UNL     1       1.474  -2.386   0.160  0.00  0.00    +0.159 HD
ENDROOT
BRANCH   9  15
ATOM     15  C   UNL     1       1.603  -0.134  -0.267  0.00  0.00    +0.045 A 
ATOM     16  C   UNL     1       0.907  -0.576   0.851  0.00  0.00    +0.029 A 
ATOM     17  C   UNL     1      -0.424  -0.244   1.012  0.00  0.00    +0.051 A 
ATOM     18  C   UNL     1      -1.070   0.531   0.060  0.00  0.00    +0.162 A 
ATOM     19  C   UNL     1      -0.375   0.977  -1.058  0.00  0.00    +0.164 A 
ATOM     20  C   UNL     1       0.960   0.642  -1.221  0.00  0.00    +0.075 A 
ATOM     21  O   UNL     1      -0.989   1.745  -1.999  0.00  0.00    -0.485 OA
ATOM     22  C   UNL     1      -2.421   1.749  -1.994  0.00  0.00    +0.270 C 
ATOM     23  C   UNL     1      -2.896   1.930  -0.546  0.00  0.00    +0.270 C 
ATOM     24  O   UNL     1      -2.385   0.841   0.232  0.00  0.00    -0.485 OA
ENDBRANCH   9  15
BRANCH   1  27
ATOM     25  C   UNL     1      11.231  -2.036  -1.011  0.00  0.00    +0.008 A 
ATOM     26  C   UNL     1       9.870  -1.954  -0.830  0.00  0.00    +0.017 A 
ATOM     27  C   UNL     1       9.274  -0.720  -0.866  0.00  0.00    +0.038 A 
ATOM     28  S   UNL     1      10.668   0.353  -1.172  0.00  0.00    -0.095 S 
ATOM     29  C   UNL     1      11.942  -0.896  -1.220  0.00  0.00    +0.046 A 
ENDBRANCH   1  27
BRANCH   3  30
ATOM     30  C   UNL     1       5.591   2.664  -0.683  0.00  0.00    +0.434 C 
ATOM     31  F   UNL     1       4.225   2.696  -0.380  0.00  0.00    -0.164 F 
ATOM     32  F   UNL     1       6.292   3.448   0.240  0.00  0.00    -0.164 F 
ATOM     33  F   UNL     1       5.794   3.168  -1.972  0.00  0.00    -0.164 F 
ENDBRANCH   3  30
TORSDOF 3
