REMARK  Name = ZINC07434004
REMARK  10 active torsions:
REMARK  status: ('A' for Active; 'I' for Inactive)
REMARK    1  A    between atoms: C_1  and  C_2
REMARK    2  A    between atoms: C_6  and  C_30
REMARK    3  A    between atoms: C_7  and  N_8
REMARK    4  A    between atoms: C_9  and  C_11
REMARK    5  A    between atoms: C_11  and  N_12
REMARK    6  A    between atoms: C_13  and  C_15
REMARK    7  A    between atoms: C_15  and  C_17
REMARK    8  A    between atoms: C_15  and  N_60
REMARK    9  A    between atoms: N_20  and  C_23
REMARK   10  A    between atoms: C_28  and  O_29
REMARK                            x       y       z     vdW  Elec       q    Type
REMARK                         _______ _______ _______ _____ _____    ______ ____
ROOT
ATOM      1  N   UNL     1       9.055   1.818   1.319  0.00  0.00    -0.308 N 
ATOM      2  C   UNL     1       7.843   2.402   1.246  0.00  0.00    +0.200 C 
ATOM      3  O   UNL     1       7.190   2.573   2.254  0.00  0.00    -0.278 OA
ATOM      4  H   UNL     1       9.577   1.682   0.513  0.00  0.00    +0.149 HD
ENDROOT
BRANCH   2   5
ATOM      5  C   UNL     1       7.299   2.845  -0.088  0.00  0.00    +0.016 C 
ATOM      6  C   UNL     1       8.055   4.087  -0.561  0.00  0.00    -0.004 C 
BRANCH   5  12
ATOM      7  C   UNL     1       5.677   4.406   0.805  0.00  0.00    -0.059 C 
ATOM      8  C   UNL     1       4.179   4.659   0.991  0.00  0.00    +0.086 C 
ATOM      9  N   UNL     1       3.532   4.742  -0.326  0.00  0.00    -0.331 N 
ATOM     10  C   UNL     1       3.725   3.498  -1.084  0.00  0.00    +0.086 C 
ATOM     11  C   UNL     1       5.223   3.245  -1.270  0.00  0.00    -0.059 C 
ATOM     12  N   UNL     1       5.858   3.142   0.060  0.00  0.00    +0.389 N 
ATOM     13  H   UNL     1       5.413   2.379   0.585  0.00  0.00    -0.081 HD
BRANCH   9  14
ATOM     14  C   UNL     1       2.171   5.044  -0.198  0.00  0.00    +0.072 A 
ATOM     15  C   UNL     1       1.333   4.194   0.509  0.00  0.00    +0.027 A 
ATOM     16  C   UNL     1      -0.010   4.495   0.634  0.00  0.00    +0.002 A 
ATOM     17  C   UNL     1      -0.521   5.643   0.058  0.00  0.00    +0.004 A 
ATOM     18  C   UNL     1       0.309   6.498  -0.643  0.00  0.00    +0.047 A 
ATOM     19  C   UNL     1       1.655   6.201  -0.778  0.00  0.00    +0.138 A 
BRANCH  19  20
ATOM     20  O   UNL     1       2.472   7.038  -1.472  0.00  0.00    -0.505 OA
ATOM     21  H   UNL     1       2.538   6.832  -2.414  0.00  0.00    +0.292 HD
ENDBRANCH  19  20
ENDBRANCH   9  14
ENDBRANCH   5  12
ENDBRANCH   2   5
BRANCH   1  22
ATOM     22  C   UNL     1       9.584   1.388   2.615  0.00  0.00    +0.200 C 
BRANCH  22  24
ATOM     23  N   UNL     1      11.628   0.299   3.485  0.00  0.00    -0.284 N 
ATOM     24  C   UNL     1      10.945   0.770   2.423  0.00  0.00    +0.234 C 
ATOM     25  O   UNL     1      11.426   0.695   1.312  0.00  0.00    -0.274 OA
ATOM     26  H   UNL     1      11.212   0.285   4.362  0.00  0.00    +0.155 HD
BRANCH  23  33
ATOM     27  C   UNL     1      13.683   1.492   5.052  0.00  0.00    +0.045 C 
ATOM     28  C   UNL     1      13.970   0.386   4.069  0.00  0.00    -0.029 A 
ATOM     29  C   UNL     1      15.260  -0.081   3.912  0.00  0.00    +0.005 A 
ATOM     30  C   UNL     1      15.526  -1.091   3.007  0.00  0.00    +0.001 A 
ATOM     31  C   UNL     1      14.501  -1.641   2.259  0.00  0.00    +0.005 A 
ATOM     32  C   UNL     1      13.207  -1.182   2.416  0.00  0.00    -0.029 A 
ATOM     33  C   UNL     1      12.937  -0.168   3.325  0.00  0.00    +0.039 A 
ATOM     34  C   UNL     1      12.090  -1.782   1.601  0.00  0.00    +0.045 C 
ENDBRANCH  23  33
ENDBRANCH  22  24
ENDBRANCH   1  22
TORSDOF 7
