REMARK  Name = ZINC04744007
REMARK  3 active torsions:
REMARK  status: ('A' for Active; 'I' for Inactive)
REMARK    1  A    between atoms: C_1  and  C_2
REMARK    2  A    between atoms: C_5  and  N_8
REMARK    3  A    between atoms: C_9  and  C_11
REMARK                            x       y       z     vdW  Elec       q    Type
REMARK                         _______ _______ _______ _____ _____    ______ ____
ROOT
ATOM      1  C   UNL     1      -2.537   4.123   0.249  0.00  0.00    +0.097 A 
ATOM      2  C   UNL     1      -3.731   3.427   0.246  0.00  0.00    +0.030 A 
ATOM      3  C   UNL     1      -4.976   4.187   0.373  0.00  0.00    +0.019 A 
ATOM      4  C   UNL     1      -6.211   3.526   0.379  0.00  0.00    +0.026 A 
ATOM      5  C   UNL     1      -7.374   4.254   0.494  0.00  0.00    +0.019 A 
ATOM      6  C   UNL     1      -7.325   5.637   0.605  0.00  0.00    +0.019 A 
ATOM      7  C   UNL     1      -6.116   6.301   0.599  0.00  0.00    +0.048 A 
ATOM      8  C   UNL     1      -4.929   5.587   0.484  0.00  0.00    +0.137 A 
ATOM      9  O   UNL     1      -3.747   6.242   0.479  0.00  0.00    -0.439 OA
ATOM     10  C   UNL     1      -2.573   5.590   0.369  0.00  0.00    +0.205 A 
ATOM     11  N   UNL     1      -1.456   6.267   0.369  0.00  0.00    -0.369 N 
ATOM     12 BR   UNL     1      -9.044   3.367   0.504  0.00  0.00    -0.050 Br
ATOM     13  H   UNL     1      -1.477   7.363   0.458  0.00  0.00    +0.159 HD
ATOM     14  H   UNL     1      -0.495   5.740   0.279  0.00  0.00    +0.159 HD
ENDROOT
BRANCH   1  16
ATOM     15  N   UNL     1      -1.236   2.069   0.019  0.00  0.00    -0.281 N 
ATOM     16  C   UNL     1      -1.255   3.412   0.128  0.00  0.00    +0.253 C 
ATOM     17  O   UNL     1      -0.211   4.037   0.127  0.00  0.00    -0.270 OA
ATOM     18  H   UNL     1      -2.181   1.510  -0.057  0.00  0.00    +0.155 HD
BRANCH  15  23
ATOM     19  C   UNL     1       3.707  -0.712  -0.066  0.00  0.00    +0.044 C 
ATOM     20  C   UNL     1       2.394   0.028  -0.042  0.00  0.00    -0.050 A 
ATOM     21  C   UNL     1       1.293  -0.540   0.573  0.00  0.00    +0.005 A 
ATOM     22  C   UNL     1       0.089   0.135   0.597  0.00  0.00    +0.023 A 
ATOM     23  C   UNL     1      -0.017   1.385   0.002  0.00  0.00    +0.034 A 
ATOM     24  C   UNL     1       1.091   1.953  -0.615  0.00  0.00    +0.023 A 
ATOM     25  C   UNL     1       2.293   1.273  -0.634  0.00  0.00    +0.005 A 
ENDBRANCH  15  23
ENDBRANCH   1  16
TORSDOF 2
