REMARK  Name = ZINC15707986
REMARK  7 active torsions:
REMARK  status: ('A' for Active; 'I' for Inactive)
REMARK    1  A    between atoms: C_3  and  C_8
REMARK    2  A    between atoms: N_10  and  C_11
REMARK    3  A    between atoms: C_20  and  C_23
REMARK    4  A    between atoms: C_23  and  C_24
REMARK    5  A    between atoms: C_24  and  C_25
REMARK    6  A    between atoms: N_27  and  C_28
REMARK    7  A    between atoms: C_28  and  C_29
REMARK                            x       y       z     vdW  Elec       q    Type
REMARK                         _______ _______ _______ _____ _____    ______ ____
ROOT
ATOM      1  C   UNL     1      -1.327  -1.945  -0.021  0.00  0.00    +0.056 C 
ATOM      2  C   UNL     1      -2.626  -2.569   0.555  0.00  0.00    +0.014 C 
ATOM      3  C   UNL     1      -3.102  -3.512  -0.554  0.00  0.00    +0.021 C 
ATOM      4  C   UNL     1      -4.582  -3.646  -0.702  0.00  0.00    +0.200 C 
ATOM      5  O   UNL     1      -5.305  -3.579   0.269  0.00  0.00    -0.278 OA
ATOM      6  N   UNL     1      -5.102  -3.843  -1.929  0.00  0.00    -0.318 N 
ATOM      7  C   UNL     1      -4.335  -3.813  -3.167  0.00  0.00    +0.089 C 
ATOM      8  C   UNL     1      -2.822  -3.780  -2.911  0.00  0.00    -0.050 C 
ATOM      9  C   UNL     1      -1.205  -2.527  -1.458  0.00  0.00    -0.055 C 
ATOM     10  H   UNL     1      -6.055  -4.016  -1.992  0.00  0.00    +0.149 HD
ATOM     11  N   UNL     1      -2.624  -2.867  -1.739  0.00  0.00    +0.391 N 
ATOM     12  H   UNL     1      -3.150  -2.002  -1.909  0.00  0.00    -0.080 HD
ENDROOT
BRANCH   1  15
ATOM     13  C   UNL     1      -0.330   0.277  -0.075  0.00  0.00    +0.244 C 
ATOM     14  O   UNL     1       0.767  -0.246  -0.038  0.00  0.00    -0.270 OA
ATOM     15  N   UNL     1      -1.441  -0.485  -0.071  0.00  0.00    -0.310 N 
ATOM     16  H   UNL     1      -2.316  -0.068  -0.101  0.00  0.00    +0.149 HD
BRANCH  13  19
ATOM     17  C   UNL     1       0.592   3.917  -0.176  0.00  0.00    +0.004 A 
ATOM     18  C   UNL     1       0.705   2.543  -0.129  0.00  0.00    +0.013 A 
ATOM     19  C   UNL     1      -0.444   1.750  -0.125  0.00  0.00    +0.039 A 
ATOM     20  C   UNL     1      -1.702   2.354  -0.174  0.00  0.00    +0.051 A 
ATOM     21  C   UNL     1      -1.801   3.731  -0.216  0.00  0.00    +0.124 A 
ATOM     22  C   UNL     1      -0.656   4.511  -0.220  0.00  0.00    +0.038 A 
ATOM     23  F   UNL     1      -3.017   4.319  -0.258  0.00  0.00    -0.205 F 
ENDBRANCH  13  19
ENDBRANCH   1  15
BRANCH   8  24
ATOM     24  C   UNL     1      -2.094  -3.269  -4.156  0.00  0.00    -0.005 C 
BRANCH  24  25
ATOM     25  C   UNL     1      -2.232  -4.295  -5.283  0.00  0.00    +0.094 C 
BRANCH  25  26
ATOM     26  C   UNL     1      -1.415  -3.850  -6.469  0.00  0.00    +0.213 C 
ATOM     27  O   UNL     1      -0.785  -2.815  -6.418  0.00  0.00    -0.276 OA
ATOM     28  N   UNL     1      -1.385  -4.603  -7.587  0.00  0.00    -0.311 N 
ATOM     29  H   UNL     1      -1.889  -5.431  -7.628  0.00  0.00    +0.149 HD
BRANCH  28  30
ATOM     30  C   UNL     1      -0.591  -4.171  -8.740  0.00  0.00    +0.146 C 
BRANCH  30  31
ATOM     31  C   UNL     1      -0.727  -5.181  -9.850  0.00  0.00    +0.007 A 
ATOM     32  C   UNL     1      -1.635  -5.228 -10.855  0.00  0.00    +0.013 A 
ATOM     33  C   UNL     1      -1.567  -6.260 -11.772  0.00  0.00    +0.008 A 
ATOM     34  C   UNL     1      -0.594  -7.194 -11.640  0.00  0.00    +0.045 A 
ATOM     35  S   UNL     1       0.272  -6.622 -10.188  0.00  0.00    -0.100 S 
ENDBRANCH  30  31
ENDBRANCH  28  30
ENDBRANCH  25  26
ENDBRANCH  24  25
ENDBRANCH   8  24
TORSDOF 7
