REMARK  Name = ZINC63437327
REMARK  11 active torsions:
REMARK  status: ('A' for Active; 'I' for Inactive)
REMARK    1  A    between atoms: C_1  and  C_2
REMARK    2  A    between atoms: C_2  and  C_3
REMARK    3  A    between atoms: C_2  and  C_4
REMARK    4  A    between atoms: C_4  and  C_5
REMARK    5  A    between atoms: C_5  and  N_6
REMARK    6  A    between atoms: C_7  and  C_9
REMARK    7  A    between atoms: C_9  and  C_11
REMARK    8  A    between atoms: C_9  and  N_21
REMARK    9  A    between atoms: C_11  and  C_12
REMARK   10  A    between atoms: C_22  and  C_24
REMARK   11  A    between atoms: C_27  and  C_30
REMARK                            x       y       z     vdW  Elec       q    Type
REMARK                         _______ _______ _______ _____ _____    ______ ____
ROOT
ATOM      1  C   UNL     1       0.888  -0.881   6.133  0.00  0.00    +0.163 C 
ENDROOT
BRANCH   1   3
ATOM      2  N   UNL     1       0.667  -0.609   3.684  0.00  0.00    -0.314 N 
ATOM      3  C   UNL     1       0.159  -0.382   4.912  0.00  0.00    +0.234 C 
ATOM      4  O   UNL     1      -0.884   0.224   5.034  0.00  0.00    -0.274 OA
ATOM      5  H   UNL     1       1.502  -1.093   3.586  0.00  0.00    +0.149 HD
BRANCH   2   6
ATOM      6  C   UNL     1      -0.042  -0.124   2.497  0.00  0.00    +0.104 C 
BRANCH   6   7
ATOM      7  C   UNL     1       0.742  -0.511   1.242  0.00  0.00    +0.022 C 
BRANCH   7   9
ATOM      8  C   UNL     1      -0.019   1.526   0.010  0.00  0.00    +0.007 C 
ATOM      9  C   UNL     1       0.002  -0.004   0.002  0.00  0.00    -0.016 C 
ATOM     10  C   UNL     1       0.718  -0.497  -1.257  0.00  0.00    +0.007 C 
ENDBRANCH   7   9
ENDBRANCH   6   7
ENDBRANCH   2   6
ENDBRANCH   1   3
BRANCH   1  11
ATOM     11  N   UNL     1       0.138  -0.510   7.335  0.00  0.00    -0.300 N 
ATOM     12  C   UNL     1       0.776  -0.382   8.515  0.00  0.00    +0.245 C 
ATOM     13  O   UNL     1       1.975  -0.573   8.581  0.00  0.00    -0.270 OA
ATOM     14  H   UNL     1      -0.819  -0.358   7.282  0.00  0.00    +0.150 HD
BRANCH  12  15
ATOM     15  C   UNL     1       0.019  -0.007   9.728  0.00  0.00    +0.037 A 
ATOM     16  C   UNL     1      -1.358   0.207   9.657  0.00  0.00    +0.013 A 
ATOM     17  C   UNL     1      -2.059   0.556  10.793  0.00  0.00    +0.005 A 
ATOM     18  C   UNL     1      -1.399   0.693  12.001  0.00  0.00    -0.041 A 
ATOM     19  C   UNL     1      -0.034   0.482  12.079  0.00  0.00    +0.005 A 
ATOM     20  C   UNL     1       0.677   0.127  10.952  0.00  0.00    +0.013 A 
BRANCH  18  21
ATOM     21  C   UNL     1      -2.171   1.075  13.238  0.00  0.00    -0.003 C 
ATOM     22  C   UNL     1      -3.242   0.018  13.517  0.00  0.00    +0.015 C 
ATOM     23  C   UNL     1      -4.026   0.405  14.773  0.00  0.00    -0.010 C 
ATOM     24  C   UNL     1      -3.070   0.490  15.964  0.00  0.00    +0.007 C 
ATOM     25  C   UNL     1      -1.999   1.546  15.685  0.00  0.00    -0.010 C 
ATOM     26  C   UNL     1      -1.216   1.159  14.430  0.00  0.00    +0.015 C 
ATOM     27  C   UNL     1      -2.668   2.906  15.470  0.00  0.00    +0.007 C 
ATOM     28  C   UNL     1      -3.623   2.821  14.279  0.00  0.00    -0.010 C 
ATOM     29  C   UNL     1      -4.694   1.765  14.558  0.00  0.00    +0.007 C 
ATOM     30  C   UNL     1      -2.840   2.434  13.023  0.00  0.00    +0.015 C 
ENDBRANCH  18  21
ENDBRANCH  12  15
ENDBRANCH   1  11
BRANCH   1  31
ATOM     31  C   UNL     1       1.018  -2.404   6.062  0.00  0.00    +0.065 C 
BRANCH  31  32
ATOM     32  C   UNL     1       1.852  -2.891   7.219  0.00  0.00    -0.039 C 
ATOM     33  C   UNL     1       1.403  -3.352   8.408  0.00  0.00    -0.001 A 
ATOM     34  C   UNL     1       0.054  -3.529   8.961  0.00  0.00    +0.010 A 
ATOM     35  C   UNL     1      -0.082  -4.023  10.213  0.00  0.00    +0.001 A 
ATOM     36  C   UNL     1       1.029  -4.369  10.993  0.00  0.00    +0.002 A 
ATOM     37  C   UNL     1       2.299  -4.235  10.555  0.00  0.00    +0.026 A 
ATOM     38  C   UNL     1       2.560  -3.725   9.253  0.00  0.00    +0.043 A 
ATOM     39  N   UNL     1       3.681  -3.504   8.610  0.00  0.00    -0.380 N 
ATOM     40  C   UNL     1       3.361  -2.971   7.282  0.00  0.00    +0.144 C 
ATOM     41  H   UNL     1       4.572  -3.670   8.954  0.00  0.00    +0.160 HD
ENDBRANCH  31  32
ENDBRANCH   1  31
TORSDOF 9
