REMARK  Name = ZINC65248339
REMARK  5 active torsions:
REMARK  status: ('A' for Active; 'I' for Inactive)
REMARK    1  A    between atoms: C_1  and  O_2
REMARK    2  A    between atoms: O_2  and  C_3
REMARK    3  A    between atoms: C_6  and  C_10
REMARK    4  A    between atoms: C_13  and  C_16
REMARK    5  A    between atoms: C_18  and  O_28
REMARK                            x       y       z     vdW  Elec       q    Type
REMARK                         _______ _______ _______ _____ _____    ______ ____
ROOT
ATOM      1  C   UNL     1       2.493  -2.491  -4.366  0.00  0.00    +0.168 C 
ATOM      2  N   UNL     1       3.051  -1.858  -5.346  0.00  0.00    -0.067 NA
ATOM      3  O   UNL     1       3.590  -2.763  -6.291  0.00  0.00    -0.368 OA
ATOM      4  C   UNL     1       3.310  -4.082  -5.799  0.00  0.00    +0.311 C 
ATOM      5  N   UNL     1       2.596  -3.860  -4.533  0.00  0.00    -0.289 N 
ATOM      6  H   UNL     1       2.259  -4.543  -3.931  0.00  0.00    +0.151 HD
ENDROOT
BRANCH   4   7
ATOM      7  C   UNL     1       4.612  -4.846  -5.548  0.00  0.00    +0.202 C 
ATOM      8  C   UNL     1       5.358  -4.941  -6.866  0.00  0.00    +0.120 C 
ATOM      9  C   UNL     1       6.646  -4.404  -6.906  0.00  0.00    +0.034 A 
ATOM     10  C   UNL     1       7.408  -4.450  -8.091  0.00  0.00    +0.013 A 
ATOM     11  C   UNL     1       8.662  -3.919  -8.104  0.00  0.00    +0.001 A 
ATOM     12  C   UNL     1       9.209  -3.330  -6.969  0.00  0.00    +0.002 A 
ATOM     13  C   UNL     1       8.520  -3.256  -5.795  0.00  0.00    +0.024 A 
ATOM     14  C   UNL     1       7.221  -3.784  -5.710  0.00  0.00    +0.044 A 
ATOM     15  N   UNL     1       6.546  -3.709  -4.555  0.00  0.00    -0.284 N 
ATOM     16  C   UNL     1       5.326  -4.179  -4.395  0.00  0.00    +0.233 C 
ATOM     17  O   UNL     1       4.773  -4.075  -3.315  0.00  0.00    -0.274 OA
ATOM     18  H   UNL     1       6.979  -3.287  -3.797  0.00  0.00    +0.155 HD
BRANCH   8  19
ATOM     19  O   UNL     1       4.806  -5.514  -7.940  0.00  0.00    -0.509 OA
ATOM     20  H   UNL     1       5.376  -5.516  -8.721  0.00  0.00    +0.292 HD
ENDBRANCH   8  19
ENDBRANCH   4   7
BRANCH   1  24
ATOM     21  C   UNL     1       0.606  -0.607  -1.055  0.00  0.00    +0.155 A 
ATOM     22  C   UNL     1       1.172   0.164  -2.061  0.00  0.00    +0.049 A 
ATOM     23  C   UNL     1       1.785  -0.444  -3.136  0.00  0.00    +0.015 A 
ATOM     24  C   UNL     1       1.837  -1.836  -3.213  0.00  0.00    +0.021 A 
ATOM     25  C   UNL     1       1.267  -2.610  -2.201  0.00  0.00    +0.053 A 
ATOM     26  C   UNL     1       0.659  -1.995  -1.125  0.00  0.00    +0.165 A 
ATOM     27  F   UNL     1       0.112  -2.742  -0.141  0.00  0.00    -0.202 F 
BRANCH  21  29
ATOM     28  C   UNL     1      -0.017   1.425   0.010  0.00  0.00    +0.277 C 
ATOM     29  O   UNL     1       0.002  -0.004   0.002  0.00  0.00    -0.492 OA
ENDBRANCH  21  29
ENDBRANCH   1  24
TORSDOF 4
