REMARK  Name = ZINC35455270
REMARK  13 active torsions:
REMARK  status: ('A' for Active; 'I' for Inactive)
REMARK    1  A    between atoms: C_3  and  O_42
REMARK    2  A    between atoms: C_6  and  C_7
REMARK    3  A    between atoms: C_7  and  O_9
REMARK    4  A    between atoms: O_9  and  C_10
REMARK    5  A    between atoms: C_13  and  C_40
REMARK    6  A    between atoms: C_21  and  O_23
REMARK    7  A    between atoms: O_23  and  C_24
REMARK    8  A    between atoms: C_26  and  O_39
REMARK    9  A    between atoms: C_28  and  O_38
REMARK   10  A    between atoms: C_30  and  O_37
REMARK   11  A    between atoms: C_32  and  C_35
REMARK   12  A    between atoms: C_35  and  O_36
REMARK   13  A    between atoms: C_40  and  O_41
REMARK                            x       y       z     vdW  Elec       q    Type
REMARK                         _______ _______ _______ _____ _____    ______ ____
ROOT
ATOM      1  C   UNL     1      -2.506  -2.776   0.012  0.00  0.00    +0.207 C 
ATOM      2  C   UNL     1      -2.923  -3.102   1.430  0.00  0.00    +0.019 C 
ATOM      3  C   UNL     1      -2.700  -4.360   1.705  0.00  0.00    -0.035 C 
ATOM      4  C   UNL     1      -2.090  -5.073   0.513  0.00  0.00    +0.096 C 
ATOM      5  C   UNL     1      -2.395  -4.152  -0.679  0.00  0.00    +0.072 C 
ATOM      6  C   UNL     1      -1.317  -4.146  -1.706  0.00  0.00    +0.019 C 
ATOM      7  C   UNL     1      -0.172  -4.757  -1.560  0.00  0.00    +0.186 C 
ATOM      8  O   UNL     1       0.128  -5.462  -0.453  0.00  0.00    -0.471 OA
ATOM      9  C   UNL     1      -0.600  -5.247   0.754  0.00  0.00    +0.317 C 
ENDROOT
BRANCH   1  10
ATOM     10  O   UNL     1      -1.243  -2.108   0.003  0.00  0.00    -0.453 OA
BRANCH  10  11
ATOM     11  C   UNL     1      -1.264  -0.761   0.011  0.00  0.00    +0.340 C 
ATOM     12  O   UNL     1      -2.325  -0.169   0.024  0.00  0.00    -0.245 OA
BRANCH  11  18
ATOM     13  C   UNL     1      -0.017   1.394   0.010  0.00  0.00    +0.018 A 
ATOM     14  C   UNL     1       1.167   2.096   0.002  0.00  0.00    +0.046 A 
ATOM     15  C   UNL     1       2.380   1.418  -0.013  0.00  0.00    +0.117 A 
ATOM     16  C   UNL     1       2.404   0.028  -0.021  0.00  0.00    +0.046 A 
ATOM     17  C   UNL     1       1.224  -0.682  -0.014  0.00  0.00    +0.018 A 
ATOM     18  C   UNL     1       0.002  -0.004   0.002  0.00  0.00    +0.059 A 
BRANCH  15  19
ATOM     19  O   UNL     1       3.545   2.114  -0.020  0.00  0.00    -0.507 OA
ATOM     20  H   UNL     1       3.891   2.311   0.861  0.00  0.00    +0.292 HD
ENDBRANCH  15  19
ENDBRANCH  11  18
ENDBRANCH  10  11
ENDBRANCH   1  10
BRANCH   9  21
ATOM     21  O   UNL     1      -0.403  -6.354   1.636  0.00  0.00    -0.309 OA
BRANCH  21  22
ATOM     22  C   UNL     1       0.936  -6.481   2.119  0.00  0.00    +0.286 C 
ATOM     23  C   UNL     1       1.093  -7.821   2.843  0.00  0.00    +0.201 C 
ATOM     24  C   UNL     1       2.513  -7.923   3.409  0.00  0.00    +0.179 C 
ATOM     25  C   UNL     1       2.770  -6.729   4.333  0.00  0.00    +0.177 C 
ATOM     26  C   UNL     1       2.548  -5.431   3.552  0.00  0.00    +0.178 C 
ATOM     27  O   UNL     1       1.219  -5.414   3.027  0.00  0.00    -0.340 OA
BRANCH  25  28
ATOM     28  O   UNL     1       1.868  -6.781   5.441  0.00  0.00    -0.386 OA
ATOM     29  H   UNL     1       1.951  -7.580   5.979  0.00  0.00    +0.210 HD
ENDBRANCH  25  28
BRANCH  24  30
ATOM     30  O   UNL     1       2.646  -9.139   4.147  0.00  0.00    -0.386 OA
ATOM     31  H   UNL     1       2.490  -9.937   3.623  0.00  0.00    +0.210 HD
ENDBRANCH  24  30
BRANCH  23  32
ATOM     32  O   UNL     1       0.146  -7.901   3.909  0.00  0.00    -0.384 OA
ATOM     33  H   UNL     1      -0.776  -7.838   3.623  0.00  0.00    +0.210 HD
ENDBRANCH  23  32
BRANCH  26  34
ATOM     34  C   UNL     1       2.744  -4.234   4.484  0.00  0.00    +0.190 C 
BRANCH  34  35
ATOM     35  O   UNL     1       2.652  -3.024   3.731  0.00  0.00    -0.392 OA
ATOM     36  H   UNL     1       2.768  -2.222   4.259  0.00  0.00    +0.210 HD
ENDBRANCH  34  35
ENDBRANCH  26  34
ENDBRANCH  21  22
ENDBRANCH   9  21
BRANCH   3  37
ATOM     37  C   UNL     1      -3.007  -5.013   3.028  0.00  0.00    +0.187 C 
BRANCH  37  38
ATOM     38  O   UNL     1      -3.573  -4.048   3.916  0.00  0.00    -0.391 OA
ATOM     39  H   UNL     1      -3.796  -4.399   4.789  0.00  0.00    +0.210 HD
ENDBRANCH  37  38
ENDBRANCH   3  37
TORSDOF 13
