REMARK  Name = ZINC17222994
REMARK  7 active torsions:
REMARK  status: ('A' for Active; 'I' for Inactive)
REMARK    1  A    between atoms: C_3  and  O_8
REMARK    2  A    between atoms: C_6  and  O_7
REMARK    3  A    between atoms: O_8  and  C_9
REMARK    4  A    between atoms: C_12  and  C_16
REMARK    5  A    between atoms: C_16  and  C_18
REMARK    6  A    between atoms: C_16  and  O_19
REMARK    7  A    between atoms: C_18  and  N_33
REMARK                            x       y       z     vdW  Elec       q    Type
REMARK                         _______ _______ _______ _____ _____    ______ ____
ROOT
ATOM      1  C   UNL     1       1.175   2.010   0.002  0.00  0.00    +0.155 A 
ATOM      2  C   UNL     1       1.793   2.343   1.199  0.00  0.00    +0.057 A 
ATOM      3  C   UNL     1       3.007   3.004   1.188  0.00  0.00    +0.024 A 
ATOM      4  C   UNL     1       3.600   3.342  -0.014  0.00  0.00    -0.019 A 
ATOM      5  C   UNL     1       2.984   3.017  -1.208  0.00  0.00    +0.024 A 
ATOM      6  C   UNL     1       1.773   2.351  -1.204  0.00  0.00    +0.057 A 
ATOM      7  I   UNL     1       0.841   1.857  -3.013  0.00  0.00    -0.040 I 
ATOM      8  I   UNL     1       0.891   1.837   3.021  0.00  0.00    -0.040 I 
ENDROOT
BRANCH   1   9
ATOM      9  O   UNL     1      -0.016   1.355   0.009  0.00  0.00    -0.454 OA
BRANCH   9  12
ATOM     10  C   UNL     1      -1.171  -2.095   0.002  0.00  0.00    +0.049 A 
ATOM     11  C   UNL     1      -1.190  -0.714   0.010  0.00  0.00    +0.050 A 
ATOM     12  C   UNL     1       0.002  -0.004   0.002  0.00  0.00    +0.129 A 
ATOM     13  C   UNL     1       1.213  -0.681  -0.019  0.00  0.00    +0.050 A 
ATOM     14  C   UNL     1       1.231  -2.062  -0.022  0.00  0.00    +0.049 A 
ATOM     15  C   UNL     1       0.040  -2.772  -0.014  0.00  0.00    +0.117 A 
BRANCH  15  16
ATOM     16  O   UNL     1       0.058  -4.132  -0.022  0.00  0.00    -0.507 OA
ATOM     17  H   UNL     1       0.055  -4.520  -0.908  0.00  0.00    +0.292 HD
ENDBRANCH  15  16
ENDBRANCH   9  12
ENDBRANCH   1   9
BRANCH   4  18
ATOM     18  C   UNL     1       4.921   4.067  -0.023  0.00  0.00    +0.127 C 
BRANCH  18  19
ATOM     19  O   UNL     1       5.765   3.532   0.998  0.00  0.00    -0.389 OA
ATOM     20  H   UNL     1       5.401   3.612   1.891  0.00  0.00    +0.210 HD
ENDBRANCH  18  19
BRANCH  18  21
ATOM     21  C   UNL     1       4.687   5.557   0.237  0.00  0.00    -0.050 C 
BRANCH  21  24
ATOM     22  H   UNL     1       6.378   6.120  -0.792  0.00  0.00    -0.090 HD
ATOM     23  H   UNL     1       5.830   7.269   0.278  0.00  0.00    -0.090 HD
ATOM     24  N   UNL     1       5.971   6.271   0.129  0.00  0.00    +0.380 N 
ATOM     25  H   UNL     1       6.617   5.914   0.843  0.00  0.00    -0.090 HD
ENDBRANCH  21  24
ENDBRANCH  18  21
ENDBRANCH   4  18
TORSDOF 7
