REMARK  Name = ZINC36637596
REMARK  12 active torsions:
REMARK  status: ('A' for Active; 'I' for Inactive)
REMARK    1  A    between atoms: C_1  and  C_2
REMARK    2  A    between atoms: C_7  and  C_8
REMARK    3  A    between atoms: N_12  and  C_13
REMARK    4  A    between atoms: C_13  and  C_14
REMARK    5  A    between atoms: C_14  and  N_15
REMARK    6  A    between atoms: N_15  and  C_16
REMARK    7  A    between atoms: N_15  and  C_17
REMARK    8  A    between atoms: C_18  and  C_20
REMARK    9  A    between atoms: C_23  and  S_26
REMARK   10  A    between atoms: S_26  and  N_29
REMARK   11  A    between atoms: N_29  and  C_30
REMARK   12  A    between atoms: N_29  and  C_31
REMARK                            x       y       z     vdW  Elec       q    Type
REMARK                         _______ _______ _______ _____ _____    ______ ____
ROOT
ATOM      1  C   UNL     1       2.314   1.947   0.692  0.00  0.00    +0.044 C 
ATOM      2  C   UNL     1       1.946   0.486   0.726  0.00  0.00    -0.045 A 
ATOM      3  C   UNL     1       1.817  -0.209  -0.468  0.00  0.00    +0.005 A 
ATOM      4  C   UNL     1       1.480  -1.550  -0.439  0.00  0.00    +0.017 A 
ATOM      5  C   UNL     1       1.279  -2.171   0.768  0.00  0.00    +0.041 A 
ATOM      6  C   UNL     1       1.402  -1.496   2.004  0.00  0.00    +0.083 A 
ATOM      7  C   UNL     1       1.753  -0.128   1.936  0.00  0.00    -0.021 A 
ATOM      8  C   UNL     1       1.911   0.665   3.207  0.00  0.00    +0.046 C 
ATOM      9  N   UNL     1       1.173  -2.244   3.105  0.00  0.00    -0.224 NA
ATOM     10  C   UNL     1       0.856  -3.517   3.039  0.00  0.00    +0.168 A 
ATOM     11  S   UNL     1       0.847  -3.817   1.278  0.00  0.00    -0.052 S 
ATOM     12  N   UNL     1       0.596  -4.401   4.073  0.00  0.00    -0.248 N 
ATOM     13  C   UNL     1       0.654  -3.979   5.351  0.00  0.00    +0.252 C 
ATOM     14  O   UNL     1       0.866  -2.807   5.596  0.00  0.00    -0.270 OA
ENDROOT
BRANCH  13  15
ATOM     15  C   UNL     1       0.460  -4.941   6.456  0.00  0.00    +0.037 A 
ATOM     16  C   UNL     1       0.708  -6.300   6.254  0.00  0.00    +0.015 A 
ATOM     17  C   UNL     1       0.525  -7.193   7.290  0.00  0.00    +0.029 A 
ATOM     18  C   UNL     1       0.097  -6.744   8.527  0.00  0.00    +0.109 A 
ATOM     19  C   UNL     1      -0.150  -5.398   8.734  0.00  0.00    +0.029 A 
ATOM     20  C   UNL     1       0.035  -4.494   7.708  0.00  0.00    +0.015 A 
BRANCH  18  21
ATOM     21  S   UNL     1      -0.136  -7.891   9.844  0.00  0.00    +0.074 S 
ATOM     22  O   UNL     1      -1.063  -7.296  10.742  0.00  0.00    -0.150 OA
ATOM     23  O   UNL     1      -0.363  -9.158   9.243  0.00  0.00    -0.150 OA
BRANCH  21  24
ATOM     24  N   UNL     1       1.304  -8.003  10.655  0.00  0.00    -0.206 N 
ATOM     25  C   UNL     1       1.544  -7.173  11.839  0.00  0.00    +0.157 C 
BRANCH  24  26
ATOM     26  C   UNL     1       2.289  -8.888  10.211  0.00  0.00    +0.051 A 
ATOM     27  C   UNL     1       3.545  -8.411   9.858  0.00  0.00    +0.025 A 
ATOM     28  C   UNL     1       4.517  -9.289   9.420  0.00  0.00    +0.002 A 
ATOM     29  C   UNL     1       4.240 -10.641   9.332  0.00  0.00    +0.000 A 
ATOM     30  C   UNL     1       2.991 -11.119   9.683  0.00  0.00    +0.002 A 
ATOM     31  C   UNL     1       2.016 -10.247  10.127  0.00  0.00    +0.025 A 
ENDBRANCH  24  26
ENDBRANCH  21  24
ENDBRANCH  18  21
ENDBRANCH  13  15
BRANCH  12  32
ATOM     32  C   UNL     1       0.257  -5.795   3.776  0.00  0.00    +0.097 C 
BRANCH  32  33
ATOM     33  C   UNL     1       1.510  -6.535   3.303  0.00  0.00    -0.060 C 
BRANCH  33  34
ATOM     34  N   UNL     1       1.148  -7.898   2.892  0.00  0.00    +0.377 N 
ATOM     35  C   UNL     1       2.320  -8.559   2.304  0.00  0.00    -0.097 C 
ATOM     36  C   UNL     1       0.693  -8.658   4.064  0.00  0.00    -0.097 C 
ATOM     37  H   UNL     1       0.406  -7.857   2.209  0.00  0.00    -0.083 HD
ENDBRANCH  33  34
ENDBRANCH  32  33
ENDBRANCH  12  32
TORSDOF 7
