REMARK  Name = ZINC63213671
REMARK  5 active torsions:
REMARK  status: ('A' for Active; 'I' for Inactive)
REMARK    1  A    between atoms: C_6  and  C_7
REMARK    2  A    between atoms: C_8  and  S_9
REMARK    3  A    between atoms: S_9  and  N_12
REMARK    4  A    between atoms: N_12  and  C_13
REMARK    5  A    between atoms: C_20  and  N_22
REMARK                            x       y       z     vdW  Elec       q    Type
REMARK                         _______ _______ _______ _____ _____    ______ ____
ROOT
ATOM      1  N   UNL     1      -2.848  -3.811  -1.424  0.00  0.00    -0.189 NA
ATOM      2  H   UNL     1      -3.545  -3.594  -2.062  0.00  0.00    +0.148 HD
ENDROOT
BRANCH   1   3
ATOM      3  C   UNL     1      -1.876  -4.863  -1.731  0.00  0.00    +0.062 C 
ATOM      4  C   UNL     1      -0.712  -4.248  -2.532  0.00  0.00    +0.019 C 
ATOM      5  C   UNL     1       0.133  -5.306  -3.267  0.00  0.00    +0.001 C 
ATOM      6  C   UNL     1       0.388  -6.526  -2.423  0.00  0.00    -0.000 C 
ATOM      7  C   UNL     1      -0.692  -7.579  -2.747  0.00  0.00    -0.002 C 
ATOM      8  C   UNL     1      -1.949  -7.313  -2.063  0.00  0.00    -0.015 C 
ATOM      9  C   UNL     1      -2.571  -5.965  -2.484  0.00  0.00    -0.056 C 
BRANCH   9  10
ATOM     10  N   UNL     1      -4.003  -5.959  -2.156  0.00  0.00    +0.381 N 
ATOM     11  H   UNL     1      -4.404  -5.070  -2.415  0.00  0.00    -0.090 HD
ATOM     12  H   UNL     1      -4.468  -6.698  -2.662  0.00  0.00    -0.090 HD
ATOM     13  H   UNL     1      -4.122  -6.104  -1.164  0.00  0.00    -0.090 HD
ENDBRANCH   9  10
ENDBRANCH   1   3
BRANCH   1  14
ATOM     14  S   UNL     1      -2.757  -2.994   0.013  0.00  0.00    +0.052 S 
ATOM     15  O   UNL     1      -2.635  -3.977   1.032  0.00  0.00    -0.154 OA
ATOM     16  O   UNL     1      -3.805  -2.034   0.002  0.00  0.00    -0.154 OA
BRANCH  14  18
ATOM     17  C   UNL     1      -1.266  -0.763   0.011  0.00  0.00    +0.028 C 
ATOM     18  C   UNL     1      -1.245  -2.089   0.003  0.00  0.00    +0.153 C 
BRANCH  17  24
ATOM     19  C   UNL     1      -0.017   1.391   0.010  0.00  0.00    +0.009 A 
ATOM     20  C   UNL     1       1.170   2.094   0.002  0.00  0.00    +0.020 A 
ATOM     21  C   UNL     1       2.378   1.419  -0.013  0.00  0.00    +0.041 A 
ATOM     22  C   UNL     1       2.403   0.034  -0.021  0.00  0.00    +0.020 A 
ATOM     23  C   UNL     1       1.223  -0.680  -0.014  0.00  0.00    +0.009 A 
ATOM     24  C   UNL     1       0.002  -0.004   0.002  0.00  0.00    -0.024 A 
ATOM     25 CL   UNL     1       3.868   2.310  -0.022  0.00  0.00    -0.084 Cl
ENDBRANCH  17  24
ENDBRANCH  14  18
ENDBRANCH   1  14
TORSDOF 5
