REMARK  Name = ZINC63225509
REMARK  11 active torsions:
REMARK  status: ('A' for Active; 'I' for Inactive)
REMARK    1  A    between atoms: C_7  and  C_10
REMARK    2  A    between atoms: C_10  and  C_11
REMARK    3  A    between atoms: C_11  and  C_13
REMARK    4  A    between atoms: C_11  and  N_32
REMARK    5  A    between atoms: C_13  and  O_15
REMARK    6  A    between atoms: O_15  and  C_16
REMARK    7  A    between atoms: C_16  and  C_17
REMARK    8  A    between atoms: C_19  and  O_31
REMARK    9  A    between atoms: C_21  and  O_30
REMARK   10  A    between atoms: C_23  and  O_29
REMARK   11  A    between atoms: C_25  and  O_28
REMARK                            x       y       z     vdW  Elec       q    Type
REMARK                         _______ _______ _______ _____ _____    ______ ____
ROOT
ATOM      1  C   UNL     1      -0.385  -4.904  -1.452  0.00  0.00    +0.324 C 
ATOM      2  O   UNL     1      -1.570  -4.836  -1.678  0.00  0.00    -0.249 OA
ENDROOT
BRANCH   1   3
ATOM      3  C   UNL     1       0.457  -3.653  -1.462  0.00  0.00    +0.165 C 
BRANCH   3   4
ATOM      4  N   UNL     1      -0.240  -2.600  -2.212  0.00  0.00    -0.318 NA
ATOM      5  H   UNL     1      -1.132  -2.386  -1.792  0.00  0.00    +0.119 HD
ATOM      6  H   UNL     1       0.331  -1.772  -2.288  0.00  0.00    +0.119 HD
ENDBRANCH   3   4
BRANCH   3   7
ATOM      7  C   UNL     1       0.691  -3.186  -0.024  0.00  0.00    +0.063 C 
BRANCH   7  14
ATOM      8  C   UNL     1      -0.016   1.348   0.009  0.00  0.00    +0.001 A 
ATOM      9  C   UNL     1       1.166   2.101   0.002  0.00  0.00    +0.002 A 
ATOM     10  C   UNL     1       2.391   1.535  -0.013  0.00  0.00    +0.026 A 
ATOM     11  C   UNL     1       2.529   0.120  -0.022  0.00  0.00    +0.043 A 
ATOM     12  N   UNL     1       3.587  -0.654  -0.037  0.00  0.00    -0.380 N 
ATOM     13  C   UNL     1       3.143  -2.053  -0.041  0.00  0.00    +0.144 C 
ATOM     14  C   UNL     1       1.631  -2.008  -0.025  0.00  0.00    -0.040 C 
ATOM     15  C   UNL     1       1.295  -0.698  -0.014  0.00  0.00    -0.001 A 
ATOM     16  C   UNL     1       0.002  -0.004   0.002  0.00  0.00    +0.010 A 
ATOM     17  H   UNL     1       4.509  -0.353  -0.045  0.00  0.00    +0.160 HD
ENDBRANCH   7  14
ENDBRANCH   3   7
ENDBRANCH   1   3
BRANCH   1  18
ATOM     18  O   UNL     1       0.182  -6.092  -1.194  0.00  0.00    -0.461 OA
BRANCH  18  19
ATOM     19  C   UNL     1      -0.675  -7.236  -1.201  0.00  0.00    +0.266 C 
BRANCH  19  20
ATOM     20  C   UNL     1       0.144  -8.489  -0.888  0.00  0.00    +0.190 C 
ATOM     21  C   UNL     1      -0.792  -9.695  -0.773  0.00  0.00    +0.178 C 
ATOM     22  C   UNL     1       0.041 -10.956  -0.519  0.00  0.00    +0.179 C 
ATOM     23  C   UNL     1       1.061 -11.117  -1.651  0.00  0.00    +0.201 C 
ATOM     24  C   UNL     1       1.926  -9.856  -1.731  0.00  0.00    +0.279 C 
ATOM     25  O   UNL     1       1.087  -8.717  -1.937  0.00  0.00    -0.340 OA
BRANCH  24  26
ATOM     26  O   UNL     1       2.653  -9.698  -0.511  0.00  0.00    -0.365 OA
ATOM     27  H   UNL     1       3.223  -8.917  -0.491  0.00  0.00    +0.213 HD
ENDBRANCH  24  26
BRANCH  23  28
ATOM     28  O   UNL     1       0.375 -11.307  -2.889  0.00  0.00    -0.384 OA
ATOM     29  H   UNL     1       0.961 -11.416  -3.651  0.00  0.00    +0.210 HD
ENDBRANCH  23  28
BRANCH  22  30
ATOM     30  O   UNL     1      -0.818 -12.097  -0.482  0.00  0.00    -0.386 OA
ATOM     31  H   UNL     1      -0.357 -12.932  -0.325  0.00  0.00    +0.210 HD
ENDBRANCH  22  30
BRANCH  21  32
ATOM     32  O   UNL     1      -1.699  -9.494   0.312  0.00  0.00    -0.386 OA
ATOM     33  H   UNL     1      -2.323 -10.221   0.443  0.00  0.00    +0.210 HD
ENDBRANCH  21  32
ENDBRANCH  19  20
ENDBRANCH  18  19
ENDBRANCH   1  18
TORSDOF 11
