REMARK  Name = ZINC08868862
REMARK  6 active torsions:
REMARK  status: ('A' for Active; 'I' for Inactive)
REMARK    1  A    between atoms: C_1  and  N_54
REMARK    2  A    between atoms: C_7  and  N_12
REMARK    3  A    between atoms: C_8  and  C_9
REMARK    4  A    between atoms: C_13  and  C_15
REMARK    5  A    between atoms: N_20  and  S_21
REMARK    6  A    between atoms: S_21  and  C_24
REMARK                            x       y       z     vdW  Elec       q    Type
REMARK                         _______ _______ _______ _____ _____    ______ ____
ROOT
ATOM      1  N   UNL     1      -0.141  -0.249   2.974  0.00  0.00    -0.278 N 
ATOM      2  C   UNL     1      -1.160   0.300   2.283  0.00  0.00    +0.236 C 
ATOM      3  O   UNL     1      -2.291  -0.108   2.443  0.00  0.00    -0.274 OA
ATOM      4  H   UNL     1       0.763   0.077   2.846  0.00  0.00    +0.155 HD
ENDROOT
BRANCH   1  11
ATOM      5  C   UNL     1      -1.885  -6.129   7.696  0.00  0.00    -0.096 C 
ATOM      6  C   UNL     1      -0.084  -4.524   7.481  0.00  0.00    -0.074 C 
ATOM      7  C   UNL     1       0.849  -3.867   6.459  0.00  0.00    +0.018 C 
ATOM      8  C   UNL     1       0.001  -3.015   5.521  0.00  0.00    -0.027 A 
ATOM      9  C   UNL     1      -1.335  -3.211   5.448  0.00  0.00    -0.021 A 
ATOM     10  S   UNL     1      -1.901  -2.026   4.263  0.00  0.00    -0.079 S 
ATOM     11  C   UNL     1      -0.387  -1.281   3.868  0.00  0.00    +0.084 A 
ATOM     12  C   UNL     1       0.522  -1.971   4.659  0.00  0.00    +0.068 A 
ATOM     13  C   UNL     1      -2.128  -4.222   6.215  0.00  0.00    -0.036 C 
ATOM     14  N   UNL     1      -1.178  -5.217   6.771  0.00  0.00    +0.381 N 
ATOM     15  H   UNL     1      -0.781  -5.766   5.999  0.00  0.00    -0.082 HD
BRANCH  12  16
ATOM     16  C   UNL     1       1.953  -1.653   4.628  0.00  0.00    +0.244 C 
ATOM     17  O   UNL     1       2.408  -0.819   5.388  0.00  0.00    -0.270 OA
ATOM     18  N   UNL     1       2.765  -2.286   3.758  0.00  0.00    -0.325 N 
ATOM     19  H   UNL     1       2.403  -2.951   3.152  0.00  0.00    +0.145 HD
ATOM     20  H   UNL     1       3.712  -2.075   3.737  0.00  0.00    +0.145 HD
ENDBRANCH  12  16
ENDBRANCH   1  11
BRANCH   2  21
ATOM     21  C   UNL     1      -0.894   1.421   1.312  0.00  0.00    +0.166 C 
ATOM     22  C   UNL     1      -0.523   0.841  -0.070  0.00  0.00    +0.031 C 
ATOM     23  C   UNL     1      -1.222   1.811  -1.058  0.00  0.00    +0.019 C 
ATOM     24  C   UNL     1      -2.521   2.156  -0.287  0.00  0.00    +0.110 C 
ATOM     25  N   UNL     1      -2.113   2.230   1.128  0.00  0.00    -0.165 NA
BRANCH  25  26
ATOM     26  S   UNL     1      -2.893   3.080   2.315  0.00  0.00    +0.062 S 
ATOM     27  O   UNL     1      -4.268   3.108   1.957  0.00  0.00    -0.153 OA
ATOM     28  O   UNL     1      -2.440   2.556   3.555  0.00  0.00    -0.153 OA
BRANCH  26  29
ATOM     29  C   UNL     1      -2.317   4.743   2.230  0.00  0.00    +0.106 A 
ATOM     30  C   UNL     1      -1.150   5.103   2.877  0.00  0.00    +0.031 A 
ATOM     31  C   UNL     1      -0.694   6.406   2.806  0.00  0.00    +0.040 A 
ATOM     32  C   UNL     1      -1.412   7.353   2.097  0.00  0.00    +0.124 A 
ATOM     33  C   UNL     1      -2.584   6.992   1.453  0.00  0.00    +0.040 A 
ATOM     34  C   UNL     1      -3.035   5.688   1.520  0.00  0.00    +0.031 A 
ATOM     35  F   UNL     1      -0.971   8.628   2.032  0.00  0.00    -0.205 F 
ENDBRANCH  26  29
ENDBRANCH  25  26
ENDBRANCH   2  21
TORSDOF 5
