REMARK  Name = ZINC28822570
REMARK  8 active torsions:
REMARK  status: ('A' for Active; 'I' for Inactive)
REMARK    1  A    between atoms: C_1  and  N_2
REMARK    2  A    between atoms: C_10  and  C_11
REMARK    3  A    between atoms: N_13  and  C_14
REMARK    4  A    between atoms: C_17  and  C_22
REMARK    5  A    between atoms: C_19  and  O_20
REMARK    6  A    between atoms: O_20  and  C_21
REMARK    7  A    between atoms: C_27  and  N_32
REMARK    8  A    between atoms: C_30  and  N_31
REMARK                            x       y       z     vdW  Elec       q    Type
REMARK                         _______ _______ _______ _____ _____    ______ ____
ROOT
ATOM      1  C   UNL     1      -0.703   0.005   4.638  0.00  0.00    +0.076 A 
ATOM      2  C   UNL     1      -0.008  -0.629   5.659  0.00  0.00    +0.027 A 
ATOM      3  C   UNL     1       0.010  -0.082   6.926  0.00  0.00    +0.010 A 
ATOM      4  C   UNL     1      -0.669   1.109   7.183  0.00  0.00    -0.013 A 
ATOM      5  C   UNL     1      -1.366   1.746   6.157  0.00  0.00    +0.056 A 
ATOM      6  C   UNL     1      -1.378   1.198   4.887  0.00  0.00    +0.142 A 
ENDROOT
BRANCH   4   7
ATOM      7  C   UNL     1      -0.650   1.695   8.543  0.00  0.00    +0.000 A 
ATOM      8  C   UNL     1      -1.806   1.937   9.206  0.00  0.00    +0.055 A 
ATOM      9  S   UNL     1      -1.260   2.625  10.757  0.00  0.00    -0.094 S 
ATOM     10  C   UNL     1       0.490   2.574  10.485  0.00  0.00    +0.045 A 
ATOM     11  C   UNL     1       0.616   2.017   9.196  0.00  0.00    +0.036 A 
ATOM     12  C   UNL     1       1.943   1.855   8.719  0.00  0.00    +0.103 A 
ATOM     13  N   UNL     1       2.976   2.205   9.453  0.00  0.00    -0.348 N 
ATOM     14  C   UNL     1       2.862   2.724  10.667  0.00  0.00    +0.108 A 
ATOM     15  C   UNL     1       1.610   2.933  11.220  0.00  0.00    +0.055 A 
ATOM     16  H   UNL     1       3.865   2.077   9.088  0.00  0.00    +0.167 HD
BRANCH  15  17
ATOM     17  N   UNL     1       1.477   3.482  12.504  0.00  0.00    -0.356 N 
ATOM     18  H   UNL     1       0.596   3.613  12.887  0.00  0.00    +0.142 HD
ATOM     19  H   UNL     1       2.267   3.729  13.009  0.00  0.00    +0.142 HD
ENDBRANCH  15  17
BRANCH  12  20
ATOM     20  N   UNL     1       2.153   1.317   7.453  0.00  0.00    -0.344 N 
ATOM     21  H   UNL     1       1.510   1.477   6.745  0.00  0.00    +0.144 HD
ATOM     22  H   UNL     1       2.944   0.782   7.279  0.00  0.00    +0.144 HD
ENDBRANCH  12  20
ENDBRANCH   4   7
BRANCH   1  25
ATOM     23  C   UNL     1       0.271  -1.381   2.965  0.00  0.00    +0.265 C 
ATOM     24  O   UNL     1       1.175  -1.649   3.733  0.00  0.00    -0.268 OA
ATOM     25  N   UNL     1      -0.719  -0.552   3.353  0.00  0.00    -0.277 N 
ATOM     26  H   UNL     1      -1.443  -0.343   2.743  0.00  0.00    +0.155 HD
BRANCH  23  36
ATOM     27  C   UNL     1       2.280  -3.458   1.882  0.00  0.00    +0.149 C 
ATOM     28  N   UNL     1       1.159  -2.889   1.132  0.00  0.00    -0.339 N 
ATOM     29  C   UNL     1       0.825  -3.197  -0.166  0.00  0.00    +0.049 A 
ATOM     30  C   UNL     1       1.374  -4.059  -1.112  0.00  0.00    +0.026 A 
ATOM     31  C   UNL     1       0.805  -4.157  -2.361  0.00  0.00    +0.002 A 
ATOM     32  C   UNL     1      -0.314  -3.402  -2.690  0.00  0.00    +0.001 A 
ATOM     33  C   UNL     1      -0.870  -2.550  -1.781  0.00  0.00    +0.010 A 
ATOM     34  C   UNL     1      -0.309  -2.434  -0.502  0.00  0.00    +0.001 A 
ATOM     35  C   UNL     1      -0.640  -1.662   0.638  0.00  0.00    +0.041 A 
ATOM     36  C   UNL     1       0.258  -1.959   1.613  0.00  0.00    +0.105 A 
ENDBRANCH  23  36
ENDBRANCH   1  25
BRANCH   6  37
ATOM     37  O   UNL     1      -2.053   1.821   3.884  0.00  0.00    -0.493 OA
ATOM     38  C   UNL     1      -2.723   3.040   4.212  0.00  0.00    +0.277 C 
ENDBRANCH   6  37
TORSDOF 6
