REMARK  Name = ZINC45652277
REMARK  9 active torsions:
REMARK  status: ('A' for Active; 'I' for Inactive)
REMARK    1  A    between atoms: C_1  and  C_2
REMARK    2  A    between atoms: C_4  and  S_19
REMARK    3  A    between atoms: C_6  and  N_9
REMARK    4  A    between atoms: C_7  and  C_8
REMARK    5  A    between atoms: N_9  and  C_10
REMARK    6  A    between atoms: N_14  and  C_16
REMARK    7  A    between atoms: C_16  and  C_17
REMARK    8  A    between atoms: C_16  and  C_18
REMARK    9  A    between atoms: S_19  and  N_22
REMARK                            x       y       z     vdW  Elec       q    Type
REMARK                         _______ _______ _______ _____ _____    ______ ____
ROOT
ATOM      1  C   UNL     1      -0.018   1.503   0.010  0.00  0.00    +0.044 C 
ATOM      2  C   UNL     1       0.002  -0.004   0.002  0.00  0.00    -0.044 A 
ATOM      3  C   UNL     1       0.006  -0.688  -1.200  0.00  0.00    +0.032 A 
ATOM      4  C   UNL     1       0.024  -2.071  -1.212  0.00  0.00    +0.107 A 
ATOM      5  C   UNL     1       0.039  -2.773  -0.023  0.00  0.00    +0.051 A 
ATOM      6  C   UNL     1       0.036  -2.089   1.186  0.00  0.00    +0.032 A 
ATOM      7  C   UNL     1       0.023  -0.700   1.194  0.00  0.00    -0.027 A 
ATOM      8  C   UNL     1       0.025   0.046   2.504  0.00  0.00    +0.046 C 
ENDROOT
BRANCH   4   9
ATOM      9  S   UNL     1       0.027  -2.937  -2.746  0.00  0.00    +0.056 S 
ATOM     10  O   UNL     1      -0.505  -4.229  -2.485  0.00  0.00    -0.153 OA
ATOM     11  O   UNL     1      -0.540  -2.060  -3.709  0.00  0.00    -0.153 OA
BRANCH   9  12
ATOM     12  N   UNL     1       1.610  -3.157  -3.181  0.00  0.00    -0.204 NA
ATOM     13  H   UNL     1       2.321  -2.824  -2.611  0.00  0.00    +0.144 HD
ATOM     14  H   UNL     1       1.827  -3.619  -4.006  0.00  0.00    +0.144 HD
ENDBRANCH   9  12
ENDBRANCH   4   9
BRANCH   6  15
ATOM     15  N   UNL     1       0.051  -2.796   2.390  0.00  0.00    -0.343 N 
ATOM     16  H   UNL     1       0.049  -2.318   3.234  0.00  0.00    +0.146 HD
BRANCH  15  17
ATOM     17  C   UNL     1       0.071  -4.261   2.379  0.00  0.00    +0.052 C 
ATOM     18  C   UNL     1      -1.371  -4.817   2.326  0.00  0.00    +0.002 C 
ATOM     19  C   UNL     1      -1.305  -6.042   3.272  0.00  0.00    -0.077 C 
ATOM     20  N   UNL     1      -0.403  -5.584   4.360  0.00  0.00    +0.382 N 
ATOM     21  C   UNL     1       0.663  -4.798   3.696  0.00  0.00    -0.056 C 
ATOM     22  H   UNL     1      -0.910  -5.003   5.011  0.00  0.00    -0.081 HD
BRANCH  20  23
ATOM     23  C   UNL     1       0.180  -6.739   5.055  0.00  0.00    -0.075 C 
ATOM     24  C   UNL     1       1.133  -6.250   6.147  0.00  0.00    -0.014 C 
ATOM     25  C   UNL     1      -0.938  -7.571   5.688  0.00  0.00    -0.014 C 
ENDBRANCH  20  23
ENDBRANCH  15  17
ENDBRANCH   6  15
TORSDOF 5
