REMARK  Name = ZINC40850537
REMARK  8 active torsions:
REMARK  status: ('A' for Active; 'I' for Inactive)
REMARK    1  A    between atoms: C_1  and  C_2
REMARK    2  A    between atoms: C_2  and  C_3
REMARK    3  A    between atoms: C_2  and  C_4
REMARK    4  A    between atoms: C_4  and  C_5
REMARK    5  A    between atoms: C_5  and  C_7
REMARK    6  A    between atoms: C_5  and  N_21
REMARK    7  A    between atoms: N_9  and  C_10
REMARK    8  A    between atoms: C_10  and  C_11
REMARK                            x       y       z     vdW  Elec       q    Type
REMARK                         _______ _______ _______ _____ _____    ______ ____
ROOT
ATOM      1  C   UNL     1      -2.819  -2.590   0.013  0.00  0.00    +0.199 C 
ATOM      2  O   UNL     1      -3.453  -2.886  -0.979  0.00  0.00    -0.278 OA
ATOM      3  N   UNL     1      -3.370  -2.737   1.234  0.00  0.00    -0.316 N 
ATOM      4  H   UNL     1      -2.864  -2.501   2.026  0.00  0.00    +0.149 HD
ENDROOT
BRANCH   1   5
ATOM      5  C   UNL     1      -1.416  -2.058  -0.121  0.00  0.00    +0.013 C 
BRANCH   5   6
ATOM      6  N   UNL     1      -0.875  -2.427  -1.436  0.00  0.00    +0.386 N 
ATOM      7  H   UNL     1       0.065  -2.071  -1.526  0.00  0.00    -0.089 HD
ATOM      8  H   UNL     1      -0.863  -3.432  -1.524  0.00  0.00    -0.089 HD
ATOM      9  H   UNL     1      -1.455  -2.033  -2.161  0.00  0.00    -0.089 HD
ENDBRANCH   5   6
BRANCH   5  10
ATOM     10  C   UNL     1      -1.433  -0.534   0.013  0.00  0.00    -0.004 C 
BRANCH  10  12
ATOM     11  C   UNL     1      -0.019   1.526   0.010  0.00  0.00    +0.007 C 
ATOM     12  C   UNL     1       0.002  -0.004   0.002  0.00  0.00    -0.018 C 
ATOM     13  C   UNL     1       0.742  -0.511   1.242  0.00  0.00    +0.007 C 
ENDBRANCH  10  12
ENDBRANCH   5  10
ENDBRANCH   1   5
BRANCH   3  14
ATOM     14  C   UNL     1      -4.735  -3.255   1.364  0.00  0.00    +0.111 C 
BRANCH  14  15
ATOM     15  C   UNL     1      -5.115  -3.323   2.844  0.00  0.00    -0.013 C 
ATOM     16  C   UNL     1      -4.146  -4.252   3.578  0.00  0.00    +0.012 C 
ATOM     17  C   UNL     1      -4.526  -4.320   5.058  0.00  0.00    -0.010 C 
ATOM     18  C   UNL     1      -5.951  -4.860   5.194  0.00  0.00    +0.007 C 
ATOM     19  C   UNL     1      -6.921  -3.932   4.460  0.00  0.00    -0.010 C 
ATOM     20  C   UNL     1      -6.540  -3.864   2.980  0.00  0.00    +0.012 C 
ATOM     21  C   UNL     1      -6.846  -2.531   5.071  0.00  0.00    +0.007 C 
ATOM     22  C   UNL     1      -5.422  -1.991   4.935  0.00  0.00    -0.010 C 
ATOM     23  C   UNL     1      -4.452  -2.919   5.669  0.00  0.00    +0.007 C 
ATOM     24  C   UNL     1      -5.041  -1.922   3.455  0.00  0.00    +0.012 C 
ENDBRANCH  14  15
ENDBRANCH   3  14
TORSDOF 6
