REMARK  Name = ZINC11173405
REMARK  9 active torsions:
REMARK  status: ('A' for Active; 'I' for Inactive)
REMARK    1  A    between atoms: C_1  and  C_2
REMARK    2  A    between atoms: C_2  and  N_3
REMARK    3  A    between atoms: N_3  and  C_4
REMARK    4  A    between atoms: N_3  and  S_6
REMARK    5  A    between atoms: C_4  and  C_5
REMARK    6  A    between atoms: S_6  and  C_9
REMARK    7  A    between atoms: C_12  and  N_18
REMARK    8  A    between atoms: C_13  and  N_15
REMARK    9  A    between atoms: C_21  and  C_24
REMARK                            x       y       z     vdW  Elec       q    Type
REMARK                         _______ _______ _______ _____ _____    ______ ____
ROOT
ATOM      1  C   UNL     1      -0.022   1.369   0.001  0.00  0.00    +0.108 A 
ATOM      2  C   UNL     1       0.010  -0.010   0.093  0.00  0.00    +0.030 A 
ATOM      3  C   UNL     1       1.220  -0.676   0.087  0.00  0.00    +0.027 A 
ATOM      4  C   UNL     1       2.405   0.041  -0.012  0.00  0.00    +0.060 A 
ATOM      5  C   UNL     1       2.369   1.426  -0.104  0.00  0.00    +0.149 A 
ATOM      6  C   UNL     1       1.156   2.086  -0.098  0.00  0.00    +0.063 A 
ENDROOT
BRANCH   4   7
ATOM      7  N   UNL     1       3.630  -0.630  -0.019  0.00  0.00    -0.331 N 
ATOM      8  C   UNL     1       3.756  -1.484  -1.207  0.00  0.00    +0.086 C 
ATOM      9  C   UNL     1       5.140  -2.138  -1.218  0.00  0.00    -0.062 C 
ATOM     10  C   UNL     1       5.192  -2.067   1.201  0.00  0.00    +0.033 C 
ATOM     11  C   UNL     1       3.809  -1.414   1.212  0.00  0.00    +0.098 C 
ATOM     12  N   UNL     1       5.320  -2.932   0.012  0.00  0.00    +0.389 N 
ATOM     13  H   UNL     1       6.252  -3.362   0.005  0.00  0.00    -0.085 HD
ATOM     14  H   UNL     1       4.604  -3.667   0.049  0.00  0.00    -0.085 HD
BRANCH  10  15
ATOM     15  C   UNL     1       5.363  -2.904   2.442  0.00  0.00    +0.198 C 
ATOM     16  O   UNL     1       5.207  -4.106   2.390  0.00  0.00    -0.278 OA
ATOM     17  N   UNL     1       5.689  -2.318   3.611  0.00  0.00    -0.331 N 
ATOM     18  H   UNL     1       5.814  -1.357   3.653  0.00  0.00    +0.145 HD
ATOM     19  H   UNL     1       5.798  -2.856   4.410  0.00  0.00    +0.145 HD
ENDBRANCH  10  15
ENDBRANCH   4   7
BRANCH   1  20
ATOM     20  S   UNL     1      -1.568   2.215   0.002  0.00  0.00    +0.061 S 
ATOM     21  O   UNL     1      -1.349   3.462  -0.644  0.00  0.00    -0.153 OA
ATOM     22  O   UNL     1      -2.541   1.283  -0.451  0.00  0.00    -0.153 OA
BRANCH  20  23
ATOM     23  N   UNL     1      -1.938   2.556   1.579  0.00  0.00    -0.177 NA
BRANCH  23  25
ATOM     24  C   UNL     1      -2.616   4.854   2.073  0.00  0.00    +0.022 C 
ATOM     25  C   UNL     1      -1.495   3.817   2.179  0.00  0.00    +0.106 C 
ENDBRANCH  23  25
BRANCH  23  26
ATOM     26  C   UNL     1      -2.709   1.598   2.375  0.00  0.00    +0.106 C 
ATOM     27  C   UNL     1      -1.751   0.712   3.174  0.00  0.00    +0.022 C 
ENDBRANCH  23  26
ENDBRANCH  20  23
ENDBRANCH   1  20
BRANCH   5  28
ATOM     28  N   UNL     1       3.630   2.195  -0.210  0.00  0.00    +0.058 N 
ATOM     29  O   UNL     1       3.604   3.412  -0.192  0.00  0.00    -0.126 OA
ATOM     30  O   UNL     1       4.693   1.609  -0.314  0.00  0.00    -0.126 OA
ENDBRANCH   5  28
TORSDOF 7
