REMARK  Name = ZINC39951034
REMARK  6 active torsions:
REMARK  status: ('A' for Active; 'I' for Inactive)
REMARK    1  A    between atoms: C_1  and  C_2
REMARK    2  A    between atoms: C_2  and  C_3
REMARK    3  A    between atoms: C_8  and  C_24
REMARK    4  A    between atoms: C_9  and  O_11
REMARK    5  A    between atoms: C_15  and  C_17
REMARK    6  A    between atoms: C_22  and  N_23
REMARK                            x       y       z     vdW  Elec       q    Type
REMARK                         _______ _______ _______ _____ _____    ______ ____
ROOT
ATOM      1  C   UNL     1       0.635  -1.549   1.265  0.00  0.00    -0.017 C 
ATOM      2  C   UNL     1      -0.295  -0.984   2.294  0.00  0.00    +0.023 C 
ATOM      3  C   UNL     1       0.388  -0.472   3.518  0.00  0.00    +0.083 C 
ATOM      4  N   UNL     1       1.549  -1.221   3.937  0.00  0.00    -0.311 NA
ATOM      5  C   UNL     1       1.524  -2.651   3.794  0.00  0.00    +0.090 C 
ATOM      6  C   UNL     1       2.004  -3.219   2.474  0.00  0.00    -0.008 C 
ATOM      7  C   UNL     1       0.940  -3.019   1.417  0.00  0.00    +0.124 C 
ATOM      8  C   UNL     1       3.267  -2.493   1.999  0.00  0.00    -0.066 C 
ATOM      9  N   UNL     1       2.975  -1.055   2.006  0.00  0.00    +0.394 N 
ATOM     10  C   UNL     1       1.888  -0.706   1.099  0.00  0.00    -0.067 C 
ATOM     11  C   UNL     1       2.765  -0.606   3.377  0.00  0.00    +0.035 C 
ATOM     12  C   UNL     1       2.298  -4.712   2.637  0.00  0.00    +0.013 C 
ATOM     13  H   UNL     1       3.803  -0.585   1.672  0.00  0.00    -0.079 HD
ENDROOT
BRANCH  11  14
ATOM     14  C   UNL     1       3.954  -0.996   4.217  0.00  0.00    -0.027 A 
ATOM     15  C   UNL     1       5.180  -1.215   3.621  0.00  0.00    +0.005 A 
ATOM     16  C   UNL     1       6.271  -1.573   4.391  0.00  0.00    +0.000 A 
ATOM     17  C   UNL     1       6.138  -1.714   5.760  0.00  0.00    +0.002 A 
ATOM     18  C   UNL     1       4.915  -1.496   6.363  0.00  0.00    +0.023 A 
ATOM     19  C   UNL     1       3.818  -1.130   5.593  0.00  0.00    +0.027 A 
BRANCH  19  20
ATOM     20  N   UNL     1       2.581  -0.904   6.200  0.00  0.00    -0.358 N 
ATOM     21  H   UNL     1       1.892  -0.410   5.728  0.00  0.00    +0.142 HD
ATOM     22  H   UNL     1       2.410  -1.242   7.093  0.00  0.00    +0.142 HD
ENDBRANCH  19  20
ENDBRANCH  11  14
BRANCH   1  24
ATOM     23  C   UNL     1      -1.395  -2.257  -0.008  0.00  0.00    +0.004 C 
ATOM     24  C   UNL     1      -0.110  -1.427  -0.065  0.00  0.00    +0.004 C 
ENDBRANCH   1  24
BRANCH   7  25
ATOM     25  O   UNL     1       1.422  -3.538   0.176  0.00  0.00    -0.391 OA
ATOM     26  H   UNL     1       1.638  -4.481   0.202  0.00  0.00    +0.210 HD
ENDBRANCH   7  25
TORSDOF 4
