REMARK  Name = ZINC13147521
REMARK  11 active torsions:
REMARK  status: ('A' for Active; 'I' for Inactive)
REMARK    1  A    between atoms: C_1  and  C_2
REMARK    2  A    between atoms: C_2  and  O_3
REMARK    3  A    between atoms: O_3  and  C_4
REMARK    4  A    between atoms: C_7  and  O_27
REMARK    5  A    between atoms: C_8  and  N_10
REMARK    6  A    between atoms: C_12  and  C_24
REMARK    7  A    between atoms: C_15  and  C_22
REMARK    8  A    between atoms: C_18  and  C_21
REMARK    9  A    between atoms: C_22  and  O_23
REMARK   10  A    between atoms: O_27  and  C_28
REMARK   11  A    between atoms: C_28  and  C_29
REMARK                            x       y       z     vdW  Elec       q    Type
REMARK                         _______ _______ _______ _____ _____    ______ ____
ROOT
ATOM      1  N   UNL     1       2.355  -4.335   3.552  0.00  0.00    -0.322 N 
ATOM      2  C   UNL     1       2.891  -3.511   4.424  0.00  0.00    +0.212 A 
ATOM      3  C   UNL     1       3.625  -4.022   5.599  0.00  0.00    +0.097 A 
ATOM      4  C   UNL     1       4.597  -3.208   6.138  0.00  0.00    +0.030 A 
ATOM      5  C   UNL     1       4.815  -1.908   5.500  0.00  0.00    +0.027 A 
ATOM      6  C   UNL     1       5.935  -1.121   5.795  0.00  0.00    +0.007 A 
ATOM      7  C   UNL     1       6.074   0.092   5.152  0.00  0.00    +0.117 A 
ATOM      8  N   UNL     1       5.176   0.509   4.278  0.00  0.00    -0.256 NA
ATOM      9  C   UNL     1       4.106  -0.194   3.969  0.00  0.00    +0.081 A 
ATOM     10  C   UNL     1       3.880  -1.427   4.565  0.00  0.00    +0.159 A 
ATOM     11  O   UNL     1       2.789  -2.165   4.265  0.00  0.00    -0.437 OA
ATOM     12  C   UNL     1       3.122   0.343   2.962  0.00  0.00    +0.069 C 
ATOM     13  H   UNL     1       2.512  -5.290   3.627  0.00  0.00    +0.169 HD
ENDROOT
BRANCH   1  18
ATOM     14  C   UNL     1      -0.250  -2.474   1.788  0.00  0.00    +0.123 A 
ATOM     15  C   UNL     1      -0.000  -2.861   0.478  0.00  0.00    +0.049 A 
ATOM     16  C   UNL     1       1.032  -3.737   0.193  0.00  0.00    +0.051 A 
ATOM     17  C   UNL     1       1.823  -4.234   1.214  0.00  0.00    +0.144 A 
ATOM     18  C   UNL     1       1.577  -3.848   2.538  0.00  0.00    +0.088 A 
ATOM     19  C   UNL     1       0.537  -2.959   2.818  0.00  0.00    +0.075 A 
BRANCH  14  20
ATOM     20  O   UNL     1      -1.266  -1.612   2.058  0.00  0.00    -0.492 OA
BRANCH  20  22
ATOM     21  C   UNL     1      -3.127  -0.197   1.446  0.00  0.00    +0.048 C 
ATOM     22  C   UNL     1      -2.039  -1.150   0.948  0.00  0.00    +0.225 C 
ENDBRANCH  20  22
ENDBRANCH  14  20
BRANCH  17  23
ATOM     23  O   UNL     1       2.837  -5.095   0.932  0.00  0.00    -0.490 OA
BRANCH  23  24
ATOM     24  C   UNL     1       3.029  -5.445  -0.440  0.00  0.00    +0.226 C 
ATOM     25  C   UNL     1       4.206  -6.415  -0.559  0.00  0.00    +0.048 C 
ENDBRANCH  23  24
ENDBRANCH  17  23
ENDBRANCH   1  18
BRANCH   3  26
ATOM     26  C   UNL     1       3.330  -5.348   6.171  0.00  0.00    +0.247 C 
ATOM     27  O   UNL     1       2.475  -6.051   5.668  0.00  0.00    -0.270 OA
ATOM     28  N   UNL     1       4.008  -5.782   7.252  0.00  0.00    -0.325 N 
ATOM     29  H   UNL     1       4.729  -5.246   7.620  0.00  0.00    +0.145 HD
ATOM     30  H   UNL     1       3.776  -6.629   7.663  0.00  0.00    +0.145 HD
ENDBRANCH   3  26
BRANCH   6  31
ATOM     31  C   UNL     1       6.965  -1.589   6.790  0.00  0.00    +0.193 C 
BRANCH  31  32
ATOM     32  O   UNL     1       7.997  -0.606   6.904  0.00  0.00    -0.390 OA
ATOM     33  H   UNL     1       8.696  -0.841   7.530  0.00  0.00    +0.210 HD
ENDBRANCH  31  32
ENDBRANCH   6  31
TORSDOF 8
