REMARK  Name = ZINC39975342
REMARK  6 active torsions:
REMARK  status: ('A' for Active; 'I' for Inactive)
REMARK    1  A    between atoms: C_1  and  C_2
REMARK    2  A    between atoms: C_2  and  N_3
REMARK    3  A    between atoms: C_8  and  C_11
REMARK    4  A    between atoms: C_12  and  C_19
REMARK    5  A    between atoms: C_14  and  C_17
REMARK    6  A    between atoms: C_15  and  N_16
REMARK                            x       y       z     vdW  Elec       q    Type
REMARK                         _______ _______ _______ _____ _____    ______ ____
ROOT
ATOM      1  N   UNL     1      -1.374  -0.495   0.011  0.00  0.00    -0.288 N 
ATOM      2  C   UNL     1      -2.022  -0.857   1.280  0.00  0.00    +0.256 C 
ATOM      3  C   UNL     1      -3.466  -0.394   1.149  0.00  0.00    +0.076 C 
ATOM      4  N   UNL     1      -3.747   0.385   2.101  0.00  0.00    -0.257 NA
ATOM      5  C   UNL     1      -2.573   0.599   2.950  0.00  0.00    +0.234 C 
ATOM      6  O   UNL     1      -1.464  -0.135   2.378  0.00  0.00    -0.329 OA
ATOM      7  C   UNL     1      -2.239   2.091   3.005  0.00  0.00    +0.064 C 
ATOM      8  C   UNL     1      -4.313  -0.820  -0.031  0.00  0.00    +0.111 C 
ATOM      9  C   UNL     1      -3.414  -0.794  -1.247  0.00  0.00    +0.077 C 
ATOM     10  C   UNL     1      -2.073  -0.649  -1.159  0.00  0.00    +0.100 C 
ENDROOT
BRANCH   8  11
ATOM     11  C   UNL     1      -4.843  -2.213   0.191  0.00  0.00    -0.033 C 
ATOM     12  C   UNL     1      -6.198  -2.426   0.219  0.00  0.00    +0.011 C 
ATOM     13  C   UNL     1      -6.620  -3.750   0.232  0.00  0.00    -0.012 C 
ATOM     14  C   UNL     1      -7.793  -4.362   0.599  0.00  0.00    +0.003 A 
ATOM     15  C   UNL     1      -9.083  -3.850   0.863  0.00  0.00    +0.010 A 
ATOM     16  C   UNL     1     -10.033  -4.745   1.260  0.00  0.00    +0.001 A 
ATOM     17  C   UNL     1      -9.786  -6.109   1.405  0.00  0.00    +0.002 A 
ATOM     18  C   UNL     1      -8.577  -6.685   1.151  0.00  0.00    +0.026 A 
ATOM     19  C   UNL     1      -7.535  -5.823   0.715  0.00  0.00    +0.044 A 
ATOM     20  N   UNL     1      -6.306  -6.107   0.350  0.00  0.00    -0.374 N 
ATOM     21  C   UNL     1      -5.699  -4.894  -0.150  0.00  0.00    +0.133 C 
ATOM     22  C   UNL     1      -4.306  -4.571   0.260  0.00  0.00    +0.002 C 
ATOM     23  C   UNL     1      -3.940  -3.284   0.363  0.00  0.00    +0.003 C 
ATOM     24  H   UNL     1      -5.880  -6.977   0.406  0.00  0.00    +0.161 HD
ENDBRANCH   8  11
BRANCH  10  25
ATOM     25  N   UNL     1      -1.357  -0.663  -2.331  0.00  0.00    -0.346 N 
ATOM     26  H   UNL     1      -0.387  -0.650  -2.307  0.00  0.00    +0.143 HD
ATOM     27  H   UNL     1      -1.821  -0.686  -3.183  0.00  0.00    +0.143 HD
ENDBRANCH  10  25
BRANCH   1  29
ATOM     28  C   UNL     1       0.986  -1.139   0.001  0.00  0.00    +0.024 C 
ATOM     29  C   UNL     1      -0.005   0.027  -0.003  0.00  0.00    +0.106 C 
ENDBRANCH   1  29
BRANCH   9  30
ATOM     30  C   UNL     1      -4.009  -0.924  -2.543  0.00  0.00    +0.099 C 
ATOM     31  N   UNL     1      -4.481  -1.027  -3.571  0.00  0.00    -0.191 NA
ENDBRANCH   9  30
TORSDOF 4
