REMARK  Name = ZINC33833251
REMARK  14 active torsions:
REMARK  status: ('A' for Active; 'I' for Inactive)
REMARK    1  A    between atoms: C_1  and  O_2
REMARK    2  A    between atoms: O_2  and  C_3
REMARK    3  A    between atoms: C_4  and  O_24
REMARK    4  A    between atoms: C_8  and  O_9
REMARK    5  A    between atoms: C_12  and  O_23
REMARK    6  A    between atoms: C_13  and  C_15
REMARK    7  A    between atoms: C_18  and  O_22
REMARK    8  A    between atoms: C_19  and  O_21
REMARK    9  A    between atoms: O_24  and  C_25
REMARK   10  A    between atoms: C_27  and  O_40
REMARK   11  A    between atoms: C_29  and  O_39
REMARK   12  A    between atoms: C_31  and  O_38
REMARK   13  A    between atoms: C_33  and  C_36
REMARK   14  A    between atoms: C_36  and  O_37
REMARK                            x       y       z     vdW  Elec       q    Type
REMARK                         _______ _______ _______ _____ _____    ______ ____
ROOT
ATOM      1  C   UNL     1      -1.063  -0.908  -0.024  0.00  0.00    +0.204 A 
ATOM      2  C   UNL     1      -1.555  -1.456   1.159  0.00  0.00    +0.173 A 
ATOM      3  C   UNL     1      -2.788  -2.088   1.185  0.00  0.00    +0.096 A 
ATOM      4  C   UNL     1      -3.546  -2.181   0.028  0.00  0.00    +0.147 A 
ATOM      5  C   UNL     1      -3.054  -1.629  -1.168  0.00  0.00    +0.113 A 
ATOM      6  C   UNL     1      -1.810  -0.986  -1.188  0.00  0.00    +0.177 A 
ATOM      7  C   UNL     1      -3.876  -1.739  -2.384  0.00  0.00    +0.238 A 
ATOM      8  O   UNL     1      -3.497  -1.278  -3.449  0.00  0.00    -0.283 OA
ATOM      9  C   UNL     1      -5.125  -2.402  -2.270  0.00  0.00    +0.208 A 
ATOM     10  C   UNL     1      -5.510  -2.903  -1.063  0.00  0.00    +0.181 A 
ATOM     11  O   UNL     1      -4.748  -2.795   0.039  0.00  0.00    -0.451 OA
ENDROOT
BRANCH  10  12
ATOM     12  C   UNL     1      -6.811  -3.589  -0.962  0.00  0.00    +0.025 A 
ATOM     13  C   UNL     1      -7.166  -4.561  -1.902  0.00  0.00    +0.015 A 
ATOM     14  C   UNL     1      -8.383  -5.201  -1.806  0.00  0.00    +0.050 A 
ATOM     15  C   UNL     1      -9.259  -4.883  -0.777  0.00  0.00    +0.158 A 
ATOM     16  C   UNL     1      -8.912  -3.915   0.164  0.00  0.00    +0.159 A 
ATOM     17  C   UNL     1      -7.691  -3.274   0.078  0.00  0.00    +0.060 A 
BRANCH  16  18
ATOM     18  O   UNL     1      -9.773  -3.606   1.170  0.00  0.00    -0.503 OA
ATOM     19  H   UNL     1      -9.654  -4.140   1.968  0.00  0.00    +0.292 HD
ENDBRANCH  16  18
BRANCH  15  20
ATOM     20  O   UNL     1     -10.457  -5.517  -0.687  0.00  0.00    -0.503 OA
ATOM     21  H   UNL     1     -10.436  -6.324  -0.155  0.00  0.00    +0.292 HD
ENDBRANCH  15  20
ENDBRANCH  10  12
BRANCH   1  23
ATOM     22  C   UNL     1       0.166   1.112   0.246  0.00  0.00    +0.277 C 
ATOM     23  O   UNL     1       0.150  -0.289  -0.034  0.00  0.00    -0.488 OA
ENDBRANCH   1  23
BRANCH   6  24
ATOM     24  O   UNL     1      -1.336  -0.448  -2.342  0.00  0.00    -0.503 OA
ATOM     25  H   UNL     1      -0.809  -1.060  -2.875  0.00  0.00    +0.292 HD
ENDBRANCH   6  24
BRANCH   9  26
ATOM     26  O   UNL     1      -5.931  -2.537  -3.358  0.00  0.00    -0.501 OA
ATOM     27  H   UNL     1      -5.569  -2.149  -4.166  0.00  0.00    +0.292 HD
ENDBRANCH   9  26
BRANCH   2  28
ATOM     28  O   UNL     1      -0.819  -1.370   2.298  0.00  0.00    -0.457 OA
BRANCH  28  29
ATOM     29  C   UNL     1      -1.378  -1.952   3.477  0.00  0.00    +0.339 C 
ATOM     30  C   UNL     1      -0.361  -1.868   4.619  0.00  0.00    +0.214 C 
ATOM     31  C   UNL     1      -0.989  -2.438   5.894  0.00  0.00    +0.180 C 
ATOM     32  C   UNL     1      -2.276  -1.668   6.205  0.00  0.00    +0.177 C 
ATOM     33  C   UNL     1      -3.219  -1.759   5.002  0.00  0.00    +0.179 C 
ATOM     34  O   UNL     1      -2.563  -1.241   3.843  0.00  0.00    -0.331 OA
BRANCH  32  35
ATOM     35  O   UNL     1      -2.909  -2.238   7.353  0.00  0.00    -0.386 OA
ATOM     36  H   UNL     1      -2.365  -2.218   8.152  0.00  0.00    +0.210 HD
ENDBRANCH  32  35
BRANCH  31  37
ATOM     37  O   UNL     1      -0.073  -2.300   6.982  0.00  0.00    -0.386 OA
ATOM     38  H   UNL     1       0.768  -2.759   6.849  0.00  0.00    +0.210 HD
ENDBRANCH  31  37
BRANCH  30  39
ATOM     39  O   UNL     1       0.802  -2.625   4.278  0.00  0.00    -0.383 OA
ATOM     40  H   UNL     1       1.248  -2.321   3.476  0.00  0.00    +0.210 HD
ENDBRANCH  30  39
BRANCH  33  41
ATOM     41  C   UNL     1      -4.482  -0.943   5.281  0.00  0.00    +0.190 C 
BRANCH  41  42
ATOM     42  O   UNL     1      -5.411  -1.121   4.210  0.00  0.00    -0.392 OA
ATOM     43  H   UNL     1      -6.238  -0.631   4.320  0.00  0.00    +0.210 HD
ENDBRANCH  41  42
ENDBRANCH  33  41
ENDBRANCH  28  29
ENDBRANCH   2  28
TORSDOF 13
