REMARK  Name = ZINC12082299
REMARK  9 active torsions:
REMARK  status: ('A' for Active; 'I' for Inactive)
REMARK    1  A    between atoms: C_1  and  C_2
REMARK    2  A    between atoms: C_2  and  O_3
REMARK    3  A    between atoms: O_3  and  C_4
REMARK    4  A    between atoms: C_7  and  N_10
REMARK    5  A    between atoms: N_21  and  C1*_22
REMARK    6  A    between atoms: C2*_24  and  O2*_34
REMARK    7  A    between atoms: C3*_26  and  O3*_33
REMARK    8  A    between atoms: C4*_28  and  C5*_31
REMARK    9  A    between atoms: C5*_31  and  O5*_32
REMARK                            x       y       z     vdW  Elec       q    Type
REMARK                         _______ _______ _______ _____ _____    ______ ____
ROOT
ATOM      1  N   UNL     1       2.357   3.888   0.001  0.00  0.00    -0.285 N 
ATOM      2  C   UNL     1       2.339   5.267  -0.096  0.00  0.00    +0.204 A 
ATOM      3  N   UNL     1       1.260   6.010  -0.098  0.00  0.00    -0.207 NA
ATOM      4  C   UNL     1       1.616   7.314  -0.203  0.00  0.00    +0.174 A 
ATOM      5  C   UNL     1       0.894   8.532  -0.253  0.00  0.00    +0.279 A 
ATOM      6  O   UNL     1      -0.324   8.541  -0.191  0.00  0.00    -0.265 OA
ATOM      7  N   UNL     1       1.592   9.683  -0.371  0.00  0.00    -0.312 N 
ATOM      8  H   UNL     1       1.121  10.531  -0.408  0.00  0.00    +0.170 HD
ATOM      9  C   UNL     1       2.947   9.661  -0.440  0.00  0.00    +0.201 A 
ATOM     10  N   UNL     1       3.625   8.548  -0.395  0.00  0.00    -0.218 NA
ATOM     11  C   UNL     1       3.010   7.363  -0.279  0.00  0.00    +0.171 A 
ATOM     12  N   UNL     1       3.445   6.064  -0.210  0.00  0.00    -0.267 N 
ATOM     13  H   UNL     1       3.195   3.407  -0.086  0.00  0.00    +0.155 HD
ENDROOT
BRANCH   1  17
ATOM     14  C   UNL     1      -1.190   1.800   0.663  0.00  0.00    +0.121 A 
ATOM     15  C   UNL     1      -0.158   1.205  -0.048  0.00  0.00    +0.047 A 
ATOM     16  C   UNL     1       1.017   1.897  -0.269  0.00  0.00    +0.027 A 
ATOM     17  C   UNL     1       1.167   3.186   0.225  0.00  0.00    +0.034 A 
ATOM     18  C   UNL     1       0.135   3.779   0.941  0.00  0.00    +0.027 A 
ATOM     19  C   UNL     1      -1.039   3.086   1.162  0.00  0.00    +0.047 A 
BRANCH  14  20
ATOM     20  O   UNL     1      -2.348   1.121   0.876  0.00  0.00    -0.492 OA
BRANCH  20  22
ATOM     21  C   UNL     1      -4.587   0.879   1.753  0.00  0.00    +0.048 C 
ATOM     22  C   UNL     1      -3.369   1.794   1.616  0.00  0.00    +0.225 C 
ENDBRANCH  20  22
ENDBRANCH  14  20
ENDBRANCH   1  17
BRANCH  12  23
ATOM     23  C1* UNL     1       4.838   5.613  -0.251  0.00  0.00    +0.255 C 
ATOM     24  C2* UNL     1       5.403   5.741  -1.683  0.00  0.00    +0.195 C 
ATOM     25  C3* UNL     1       6.868   6.187  -1.468  0.00  0.00    +0.178 C 
ATOM     26  C4* UNL     1       7.014   6.272   0.068  0.00  0.00    +0.177 C 
ATOM     27  O4* UNL     1       5.670   6.475   0.555  0.00  0.00    -0.346 OA
BRANCH  25  28
ATOM     28  O3* UNL     1       7.771   5.218  -2.003  0.00  0.00    -0.386 OA
ATOM     29  H3* UNL     1       8.704   5.419  -1.844  0.00  0.00    +0.210 HD
ENDBRANCH  25  28
BRANCH  24  30
ATOM     30  O2* UNL     1       4.681   6.730  -2.419  0.00  0.00    -0.385 OA
ATOM     31  H2* UNL     1       4.995   6.852  -3.325  0.00  0.00    +0.210 HD
ENDBRANCH  24  30
BRANCH  26  32
ATOM     32  C5* UNL     1       7.905   7.454   0.454  0.00  0.00    +0.190 C 
BRANCH  32  33
ATOM     33  O5* UNL     1       8.061   7.489   1.874  0.00  0.00    -0.392 OA
ATOM     34  H5* UNL     1       8.616   8.215   2.191  0.00  0.00    +0.210 HD
ENDBRANCH  32  33
ENDBRANCH  26  32
ENDBRANCH  12  23
TORSDOF 8
