REMARK  Name = ZINC64003394
REMARK  10 active torsions:
REMARK  status: ('A' for Active; 'I' for Inactive)
REMARK    1  A    between atoms: C_1  and  C_2
REMARK    2  A    between atoms: C_5  and  C_20
REMARK    3  A    between atoms: C_6  and  C_19
REMARK    4  A    between atoms: N_7  and  C_8
REMARK    5  A    between atoms: C_8  and  C_9
REMARK    6  A    between atoms: C_12  and  S_15
REMARK    7  A    between atoms: S_15  and  N_18
REMARK    8  A    between atoms: N_22  and  C_23
REMARK    9  A    between atoms: C_23  and  C_24
REMARK   10  A    between atoms: C_24  and  C_25
REMARK                            x       y       z     vdW  Elec       q    Type
REMARK                         _______ _______ _______ _____ _____    ______ ____
ROOT
ATOM      1  C   UNL     1       0.477   1.576  -0.405  0.00  0.00    +0.028 C 
ATOM      2  C   UNL     1       0.317   0.056  -0.342  0.00  0.00    +0.075 C 
ATOM      3  C   UNL     1      -1.174  -0.331  -0.372  0.00  0.00    +0.064 C 
ATOM      4  C   UNL     1      -1.385  -1.046   0.946  0.00  0.00    +0.033 C 
ATOM      5  C   UNL     1      -0.220  -1.065   1.610  0.00  0.00    +0.012 C 
ATOM      6  N   UNL     1       0.801  -0.459   0.946  0.00  0.00    -0.326 N 
ATOM      7  C   UNL     1      -0.056  -1.699   2.968  0.00  0.00    +0.061 C 
ENDROOT
BRANCH   4   8
ATOM      8  C   UNL     1      -2.604  -1.601   1.399  0.00  0.00    +0.242 C 
ATOM      9  O   UNL     1      -2.682  -2.064   2.523  0.00  0.00    -0.270 OA
ATOM     10  N   UNL     1      -3.680  -1.618   0.588  0.00  0.00    -0.311 N 
ATOM     11  H   UNL     1      -3.618  -1.249  -0.307  0.00  0.00    +0.149 HD
BRANCH  10  12
ATOM     12  C   UNL     1      -4.943  -2.193   1.058  0.00  0.00    +0.109 C 
BRANCH  12  13
ATOM     13  C   UNL     1      -5.995  -2.087  -0.049  0.00  0.00    +0.052 C 
BRANCH  13  14
ATOM     14  C   UNL     1      -7.294  -2.678   0.434  0.00  0.00    -0.040 C 
ATOM     15  C   UNL     1      -8.335  -2.013   0.984  0.00  0.00    -0.001 A 
ATOM     16  C   UNL     1      -8.562  -0.594   1.285  0.00  0.00    +0.010 A 
ATOM     17  C   UNL     1      -9.733  -0.222   1.849  0.00  0.00    +0.001 A 
ATOM     18  C   UNL     1     -10.734  -1.155   2.154  0.00  0.00    +0.002 A 
ATOM     19  C   UNL     1     -10.599  -2.475   1.907  0.00  0.00    +0.026 A 
ATOM     20  C   UNL     1      -9.408  -2.978   1.314  0.00  0.00    +0.043 A 
ATOM     21  N   UNL     1      -9.043  -4.193   0.983  0.00  0.00    -0.380 N 
ATOM     22  C   UNL     1      -7.699  -4.135   0.398  0.00  0.00    +0.144 C 
ATOM     23  H   UNL     1      -9.575  -4.995   1.101  0.00  0.00    +0.160 HD
ENDBRANCH  13  14
ENDBRANCH  12  13
ENDBRANCH  10  12
ENDBRANCH   4   8
BRANCH   6  24
ATOM     24  C   UNL     1       2.176  -0.337   1.438  0.00  0.00    +0.140 C 
BRANCH  24  25
ATOM     25  C   UNL     1       3.011  -1.460   0.879  0.00  0.00    -0.030 A 
ATOM     26  C   UNL     1       3.190  -2.619   1.610  0.00  0.00    +0.007 A 
ATOM     27  C   UNL     1       3.957  -3.649   1.097  0.00  0.00    +0.029 A 
ATOM     28  C   UNL     1       4.543  -3.520  -0.148  0.00  0.00    +0.105 A 
ATOM     29  C   UNL     1       4.364  -2.361  -0.880  0.00  0.00    +0.029 A 
ATOM     30  C   UNL     1       3.594  -1.333  -0.369  0.00  0.00    +0.007 A 
BRANCH  28  31
ATOM     31  S   UNL     1       5.521  -4.832  -0.801  0.00  0.00    +0.056 S 
ATOM     32  O   UNL     1       6.406  -4.247  -1.746  0.00  0.00    -0.153 OA
ATOM     33  O   UNL     1       5.984  -5.586   0.310  0.00  0.00    -0.153 OA
BRANCH  31  34
ATOM     34  N   UNL     1       4.504  -5.822  -1.655  0.00  0.00    -0.204 NA
ATOM     35  H   UNL     1       4.839  -6.318  -2.418  0.00  0.00    +0.144 HD
ATOM     36  H   UNL     1       3.574  -5.905  -1.392  0.00  0.00    +0.144 HD
ENDBRANCH  31  34
ENDBRANCH  28  31
ENDBRANCH  24  25
ENDBRANCH   6  24
TORSDOF 8
