REMARK  Name = ZINC06178425
REMARK  13 active torsions:
REMARK  status: ('A' for Active; 'I' for Inactive)
REMARK    1  A    between atoms: C_1  and  N_2
REMARK    2  A    between atoms: N_2  and  C_3
REMARK    3  A    between atoms: N_2  and  N_9
REMARK    4  A    between atoms: C_10  and  C_11
REMARK    5  A    between atoms: C_11  and  C_14
REMARK    6  A    between atoms: N_12  and  N_13
REMARK    7  A    between atoms: C_14  and  C_16
REMARK    8  A    between atoms: C_14  and  O_24
REMARK    9  A    between atoms: C_16  and  C_18
REMARK   10  A    between atoms: C_16  and  O_23
REMARK   11  A    between atoms: C_18  and  C_20
REMARK   12  A    between atoms: C_18  and  O_22
REMARK   13  A    between atoms: C_20  and  O_21
REMARK                            x       y       z     vdW  Elec       q    Type
REMARK                         _______ _______ _______ _____ _____    ______ ____
ROOT
ATOM      1  C   UNL     1       0.963   3.745  -0.100  0.00  0.00    +0.109 C 
ATOM      2  N   UNL     1      -0.185   4.335  -0.264  0.00  0.00    -0.190 NA
ENDROOT
BRANCH   2   3
ATOM      3  N   UNL     1      -0.241   5.723  -0.442  0.00  0.00    -0.282 N 
ATOM      4  H   UNL     1       0.568   6.254  -0.374  0.00  0.00    +0.164 HD
ATOM      5  H   UNL     1      -1.089   6.154  -0.632  0.00  0.00    +0.164 HD
ENDBRANCH   2   3
BRANCH   1   7
ATOM      6  N   UNL     1      -0.051   1.576  -0.159  0.00  0.00    -0.186 NA
ATOM      7  C   UNL     1       1.034   2.285  -0.045  0.00  0.00    +0.158 C 
BRANCH   6   9
ATOM      8  C   UNL     1       1.310  -0.486   0.078  0.00  0.00    +0.158 C 
ATOM      9  N   UNL     1       0.017   0.178  -0.105  0.00  0.00    -0.227 N 
BRANCH   9  10
ATOM     10  C   UNL     1      -1.146  -0.583  -0.228  0.00  0.00    +0.051 A 
ATOM     11  C   UNL     1      -1.080  -1.970  -0.181  0.00  0.00    +0.025 A 
ATOM     12  C   UNL     1      -2.234  -2.719  -0.297  0.00  0.00    +0.002 A 
ATOM     13  C   UNL     1      -3.454  -2.091  -0.470  0.00  0.00    +0.000 A 
ATOM     14  C   UNL     1      -3.523  -0.710  -0.523  0.00  0.00    +0.002 A 
ATOM     15  C   UNL     1      -2.374   0.046  -0.402  0.00  0.00    +0.025 A 
ENDBRANCH   9  10
ENDBRANCH   6   9
ENDBRANCH   1   7
BRANCH   1  16
ATOM     16  C   UNL     1       2.220   4.566   0.032  0.00  0.00    +0.197 C 
BRANCH  16  17
ATOM     17  O   UNL     1       3.123   3.915   0.927  0.00  0.00    -0.383 OA
ATOM     18  H   UNL     1       3.389   3.030   0.643  0.00  0.00    +0.210 HD
ENDBRANCH  16  17
BRANCH  16  19
ATOM     19  C   UNL     1       2.880   4.713  -1.341  0.00  0.00    +0.180 C 
BRANCH  19  20
ATOM     20  O   UNL     1       3.173   3.417  -1.869  0.00  0.00    -0.386 OA
ATOM     21  H   UNL     1       3.772   2.895  -1.318  0.00  0.00    +0.210 HD
ENDBRANCH  19  20
BRANCH  19  22
ATOM     22  C   UNL     1       4.177   5.512  -1.201  0.00  0.00    +0.171 C 
BRANCH  22  23
ATOM     23  O   UNL     1       3.884   6.807  -0.673  0.00  0.00    -0.387 OA
ATOM     24  H   UNL     1       3.285   7.330  -1.223  0.00  0.00    +0.210 HD
ENDBRANCH  22  23
BRANCH  22  25
ATOM     25  C   UNL     1       4.837   5.658  -2.573  0.00  0.00    +0.189 C 
BRANCH  25  26
ATOM     26  O   UNL     1       6.104   6.302  -2.426  0.00  0.00    -0.392 OA
ATOM     27  H   UNL     1       6.580   6.428  -3.258  0.00  0.00    +0.210 HD
ENDBRANCH  25  26
ENDBRANCH  22  25
ENDBRANCH  19  22
ENDBRANCH  16  19
ENDBRANCH   1  16
TORSDOF 12
