REMARK  Name = ZINC12847185
REMARK  8 active torsions:
REMARK  status: ('A' for Active; 'I' for Inactive)
REMARK    1  A    between atoms: C_1  and  C_2
REMARK    2  A    between atoms: C_5  and  C_8
REMARK    3  A    between atoms: C_11  and  C_35
REMARK    4  A    between atoms: C_16  and  C_19
REMARK    5  A    between atoms: N_21  and  C_22
REMARK    6  A    between atoms: C_27  and  C_28
REMARK    7  A    between atoms: C_28  and  C_30
REMARK    8  A    between atoms: C_28  and  O_31
REMARK                            x       y       z     vdW  Elec       q    Type
REMARK                         _______ _______ _______ _____ _____    ______ ____
ROOT
ATOM      1  C   UNL     1      -0.084  -4.714  -0.049  0.00  0.00    +0.113 C 
ATOM      2  C   UNL     1      -1.486  -5.137   0.392  0.00  0.00    +0.062 C 
ATOM      3  C   UNL     1      -1.868  -4.401   1.686  0.00  0.00    +0.201 C 
ATOM      4  N   UNL     1      -0.782  -4.622   2.647  0.00  0.00    -0.226 N 
ATOM      5  C   UNL     1       0.515  -4.919   2.254  0.00  0.00    +0.126 C 
ATOM      6  N   UNL     1       0.893  -4.991   1.012  0.00  0.00    -0.364 N 
ATOM      7  C   UNL     1       1.283  -5.107   3.491  0.00  0.00    +0.091 C 
ATOM      8  C   UNL     1       0.416  -4.893   4.529  0.00  0.00    +0.104 C 
ATOM      9  N   UNL     1      -0.812  -4.592   4.036  0.00  0.00    -0.269 N 
ATOM     10  H   UNL     1      -1.593  -4.386   4.573  0.00  0.00    +0.170 HD
ATOM     11  H   UNL     1       1.808  -5.225   0.789  0.00  0.00    +0.161 HD
ENDROOT
BRANCH   1  16
ATOM     12  C   UNL     1      -0.082   0.946  -1.214  0.00  0.00    +0.044 C 
ATOM     13  C   UNL     1      -0.082  -0.530  -0.910  0.00  0.00    -0.050 A 
ATOM     14  C   UNL     1      -0.173  -1.448  -1.940  0.00  0.00    +0.004 A 
ATOM     15  C   UNL     1      -0.173  -2.802  -1.661  0.00  0.00    +0.006 A 
ATOM     16  C   UNL     1      -0.083  -3.238  -0.352  0.00  0.00    -0.025 A 
ATOM     17  C   UNL     1       0.009  -2.320   0.677  0.00  0.00    +0.006 A 
ATOM     18  C   UNL     1       0.013  -0.966   0.398  0.00  0.00    +0.004 A 
ENDBRANCH   1  16
BRANCH   7  19
ATOM     19  C   UNL     1       2.704  -5.457   3.594  0.00  0.00    +0.253 C 
ATOM     20  O   UNL     1       3.248  -5.478   4.682  0.00  0.00    -0.270 OA
ATOM     21  N   UNL     1       3.407  -5.755   2.483  0.00  0.00    -0.281 N 
ATOM     22  H   UNL     1       2.993  -5.671   1.610  0.00  0.00    +0.155 HD
BRANCH  21  23
ATOM     23  C   UNL     1       4.736  -6.184   2.590  0.00  0.00    +0.043 A 
ATOM     24  C   UNL     1       5.211  -6.680   3.797  0.00  0.00    +0.073 A 
ATOM     25  C   UNL     1       6.524  -7.105   3.901  0.00  0.00    +0.168 A 
ATOM     26  C   UNL     1       7.367  -7.034   2.795  0.00  0.00    +0.167 A 
ATOM     27  C   UNL     1       6.890  -6.539   1.592  0.00  0.00    +0.057 A 
ATOM     28  C   UNL     1       5.577  -6.120   1.487  0.00  0.00    +0.005 A 
ATOM     29  O   UNL     1       8.597  -7.509   3.152  0.00  0.00    -0.453 OA
ATOM     30  C   UNL     1       8.613  -7.488   4.592  0.00  0.00    +0.466 C 
ATOM     31  O   UNL     1       7.226  -7.623   4.952  0.00  0.00    -0.453 OA
BRANCH  28  32
ATOM     32  C   UNL     1       5.059  -5.588   0.176  0.00  0.00    +0.143 C 
ATOM     33  C   UNL     1       4.372  -6.716  -0.597  0.00  0.00    +0.043 C 
BRANCH  32  34
ATOM     34  O   UNL     1       6.149  -5.078  -0.595  0.00  0.00    -0.387 OA
ATOM     35  H   UNL     1       6.827  -5.736  -0.801  0.00  0.00    +0.210 HD
ENDBRANCH  32  34
ENDBRANCH  28  32
ENDBRANCH  21  23
ENDBRANCH   7  19
BRANCH   3  36
ATOM     36  C   UNL     1      -3.179  -4.964   2.238  0.00  0.00    +0.410 C 
ATOM     37  F   UNL     1      -3.022  -6.327   2.513  0.00  0.00    -0.169 F 
ATOM     38  F   UNL     1      -3.517  -4.287   3.415  0.00  0.00    -0.169 F 
ATOM     39  F   UNL     1      -4.196  -4.792   1.293  0.00  0.00    -0.169 F 
ENDBRANCH   3  36
TORSDOF 6
