REMARK  Name = ZINC14277227
REMARK  9 active torsions:
REMARK  status: ('A' for Active; 'I' for Inactive)
REMARK    1  A    between atoms: C_1  and  C_2
REMARK    2  A    between atoms: C_6  and  C_10
REMARK    3  A    between atoms: C_7  and  O_8
REMARK    4  A    between atoms: O_8  and  C_9
REMARK    5  A    between atoms: N_12  and  C_13
REMARK    6  A    between atoms: C_13  and  N_15
REMARK    7  A    between atoms: N_15  and  C_16
REMARK    8  A    between atoms: C_19  and  N_23
REMARK    9  A    between atoms: C_28  and  N_54
REMARK                            x       y       z     vdW  Elec       q    Type
REMARK                         _______ _______ _______ _____ _____    ______ ____
ROOT
ATOM      1  N   UNL     1       5.922   4.128  -0.030  0.00  0.00    -0.297 N 
ATOM      2  H   UNL     1       5.185   4.371  -0.613  0.00  0.00    +0.154 HD
ENDROOT
BRANCH   1   3
ATOM      3  C   UNL     1       7.073   4.925   0.015  0.00  0.00    +0.034 A 
ATOM      4  C   UNL     1       6.957   6.307   0.093  0.00  0.00    +0.025 A 
ATOM      5  C   UNL     1       8.092   7.093   0.143  0.00  0.00    +0.026 A 
ATOM      6  C   UNL     1       9.348   6.503   0.103  0.00  0.00    +0.048 A 
ATOM      7  C   UNL     1       9.464   5.121   0.018  0.00  0.00    +0.064 A 
ATOM      8  C   UNL     1       8.329   4.334  -0.025  0.00  0.00    +0.045 A 
ATOM      9 CL   UNL     1      11.034   4.383  -0.032  0.00  0.00    -0.082 Cl
BRANCH   6  10
ATOM     10  N   UNL     1      10.498   7.300   0.148  0.00  0.00    -0.332 N 
ATOM     11  C   UNL     1      10.588   8.022   1.425  0.00  0.00    +0.086 C 
ATOM     12  C   UNL     1      11.895   8.818   1.466  0.00  0.00    -0.060 C 
ATOM     13  C   UNL     1      11.842   9.030  -0.945  0.00  0.00    -0.060 C 
ATOM     14  C   UNL     1      10.535   8.235  -0.986  0.00  0.00    +0.086 C 
ATOM     15  C   UNL     1      13.139  10.589   0.380  0.00  0.00    -0.096 C 
ATOM     16  N   UNL     1      11.910   9.769   0.334  0.00  0.00    +0.380 N 
ATOM     17  H   UNL     1      11.093  10.387   0.407  0.00  0.00    -0.082 HD
ENDBRANCH   6  10
ENDBRANCH   1   3
BRANCH   1  18
ATOM     18  C   UNL     1       5.837   3.023   0.737  0.00  0.00    +0.141 C 
ATOM     19  S   UNL     1       7.177   2.533   1.683  0.00  0.00    -0.018 S 
BRANCH  18  22
ATOM     20  C   UNL     1       4.614   1.198   1.525  0.00  0.00    +0.253 C 
ATOM     21  O   UNL     1       5.565   0.850   2.197  0.00  0.00    -0.270 OA
ATOM     22  N   UNL     1       4.698   2.303   0.758  0.00  0.00    -0.263 N 
ATOM     23  H   UNL     1       3.939   2.580   0.222  0.00  0.00    +0.157 HD
BRANCH  20  29
ATOM     24  C   UNL     1       1.994  -2.712   3.213  0.00  0.00    +0.047 C 
ATOM     25  C   UNL     1       2.099  -1.474   2.360  0.00  0.00    -0.007 A 
ATOM     26  C   UNL     1       1.021  -1.069   1.597  0.00  0.00    +0.022 A 
ATOM     27  C   UNL     1       1.109   0.064   0.805  0.00  0.00    +0.019 A 
ATOM     28  C   UNL     1       2.271   0.806   0.778  0.00  0.00    +0.032 A 
ATOM     29  C   UNL     1       3.367   0.410   1.549  0.00  0.00    +0.080 A 
ATOM     30  C   UNL     1       3.275  -0.741   2.345  0.00  0.00    +0.135 A 
ATOM     31 BR   UNL     1      -0.374   0.601  -0.238  0.00  0.00    -0.050 Br
BRANCH  30  32
ATOM     32  O   UNL     1       4.333  -1.135   3.097  0.00  0.00    -0.494 OA
ATOM     33  C   UNL     1       4.412  -0.618   4.427  0.00  0.00    +0.277 C 
ENDBRANCH  30  32
ENDBRANCH  20  29
ENDBRANCH  18  22
ENDBRANCH   1  18
TORSDOF 6
