REMARK  Name = ZINC04306026
REMARK  8 active torsions:
REMARK  status: ('A' for Active; 'I' for Inactive)
REMARK    1  A    between atoms: C_1  and  C_2
REMARK    2  A    between atoms: C_5  and  C_29
REMARK    3  A    between atoms: C_11  and  N_26
REMARK    4  A    between atoms: C_12  and  N_25
REMARK    5  A    between atoms: N_16  and  C_17
REMARK    6  A    between atoms: C_17  and  C_18
REMARK    7  A    between atoms: C_18  and  C_19
REMARK    8  A    between atoms: C_19  and  N_59
REMARK                            x       y       z     vdW  Elec       q    Type
REMARK                         _______ _______ _______ _____ _____    ______ ____
ROOT
ATOM      1  C   UNL     1      -2.465   0.758  10.819  0.00  0.00    +0.009 C 
ATOM      2  C   UNL     1      -3.238   1.372   9.650  0.00  0.00    +0.004 C 
ATOM      3  C   UNL     1      -3.319   2.890   9.832  0.00  0.00    +0.009 C 
ATOM      4  C   UNL     1      -1.903   3.474   9.813  0.00  0.00    +0.004 C 
ATOM      5  C   UNL     1      -1.219   3.099   8.497  0.00  0.00    +0.109 C 
ATOM      6  N   UNL     1      -1.166   1.637   8.371  0.00  0.00    -0.313 N 
ATOM      7  C   UNL     1      -2.515   1.058   8.338  0.00  0.00    +0.109 C 
ATOM      8  C   UNL     1      -0.437   1.261   7.253  0.00  0.00    +0.159 A 
ATOM      9  C   UNL     1       0.729   0.512   7.391  0.00  0.00    +0.205 A 
ATOM     10  C   UNL     1       1.427   0.158   6.241  0.00  0.00    +0.154 A 
ATOM     11  N   UNL     1       0.959   0.539   5.055  0.00  0.00    -0.197 NA
ATOM     12  C   UNL     1      -0.151   1.256   4.962  0.00  0.00    +0.219 A 
ATOM     13  N   UNL     1      -0.842   1.611   6.035  0.00  0.00    -0.197 NA
ATOM     14  N   UNL     1      -0.603   1.638   3.712  0.00  0.00    -0.313 N 
ATOM     15  C   UNL     1      -1.978   4.998   9.934  0.00  0.00    +0.009 C 
ATOM     16  H   UNL     1      -1.417   2.160   3.629  0.00  0.00    +0.149 HD
ENDROOT
BRANCH  10  17
ATOM     17  N   UNL     1       2.593  -0.588   6.330  0.00  0.00    -0.341 N 
ATOM     18  H   UNL     1       2.926  -0.865   7.197  0.00  0.00    +0.144 HD
ATOM     19  H   UNL     1       3.075  -0.831   5.524  0.00  0.00    +0.144 HD
ENDBRANCH  10  17
BRANCH   9  20
ATOM     20  N   UNL     1       1.212   0.102   8.728  0.00  0.00    +0.063 N 
ATOM     21  O   UNL     1       0.849  -0.956   9.209  0.00  0.00    -0.126 OA
ATOM     22  O   UNL     1       1.974   0.824   9.348  0.00  0.00    -0.126 OA
ENDBRANCH   9  20
BRANCH  14  23
ATOM     23  C   UNL     1       0.146   1.255   2.513  0.00  0.00    +0.102 C 
BRANCH  23  24
ATOM     24  C   UNL     1      -0.564   1.800   1.272  0.00  0.00    +0.000 C 
BRANCH  24  25
ATOM     25  C   UNL     1       0.218   1.400   0.019  0.00  0.00    -0.077 C 
BRANCH  25  31
ATOM     26  C   UNL     1      -1.768   1.272  -1.361  0.00  0.00    -0.050 C 
ATOM     27  C   UNL     1      -2.468   1.887  -2.575  0.00  0.00    +0.141 C 
ATOM     28  O   UNL     1      -1.626   1.754  -3.723  0.00  0.00    -0.383 OA
ATOM     29  C   UNL     1      -0.347   2.377  -3.574  0.00  0.00    +0.141 C 
ATOM     30  C   UNL     1       0.375   1.766  -2.370  0.00  0.00    -0.050 C 
ATOM     31  N   UNL     1      -0.469   1.949  -1.170  0.00  0.00    +0.383 N 
ATOM     32  H   UNL     1      -0.632   2.953  -1.026  0.00  0.00    -0.082 HD
ENDBRANCH  25  31
ENDBRANCH  24  25
ENDBRANCH  23  24
ENDBRANCH  14  23
TORSDOF 6
