REMARK  Name = ZINC66875116
REMARK  10 active torsions:
REMARK  status: ('A' for Active; 'I' for Inactive)
REMARK    1  A    between atoms: C_3  and  O_9
REMARK    2  A    between atoms: C_6  and  C_7
REMARK    3  A    between atoms: O_9  and  C_10
REMARK    4  A    between atoms: C_10  and  C_11
REMARK    5  A    between atoms: C_11  and  C_13
REMARK    6  A    between atoms: C_11  and  O_29
REMARK    7  A    between atoms: C_13  and  N_14
REMARK    8  A    between atoms: C_17  and  N_20
REMARK    9  A    between atoms: C_21  and  C_23
REMARK   10  A    between atoms: C_23  and  C_24
REMARK                            x       y       z     vdW  Elec       q    Type
REMARK                         _______ _______ _______ _____ _____    ______ ____
ROOT
ATOM      1  N   UNL     1       8.391   2.411   0.177  0.00  0.00    +0.382 N 
ATOM      2  C   UNL     1       8.289   3.165   1.432  0.00  0.00    -0.077 C 
ATOM      3  C   UNL     1       9.433   4.178   1.517  0.00  0.00    +0.003 C 
ATOM      4  C   UNL     1      10.771   3.433   1.474  0.00  0.00    +0.069 C 
ATOM      5  C   UNL     1      10.835   2.592   0.197  0.00  0.00    +0.003 C 
ATOM      6  C   UNL     1       9.639   1.638   0.161  0.00  0.00    -0.077 C 
ATOM      7  H   UNL     1       8.384   3.053  -0.601  0.00  0.00    -0.082 HD
ENDROOT
BRANCH   4   8
ATOM      8  N   UNL     1      11.870   4.402   1.479  0.00  0.00    -0.313 N 
ATOM      9  C   UNL     1      13.084   4.041   1.942  0.00  0.00    +0.213 C 
ATOM     10  O   UNL     1      13.265   2.915   2.354  0.00  0.00    -0.276 OA
ATOM     11  H   UNL     1      11.725   5.302   1.149  0.00  0.00    +0.149 HD
BRANCH   9  12
ATOM     12  C   UNL     1      14.215   5.037   1.946  0.00  0.00    +0.099 C 
BRANCH  12  13
ATOM     13  C   UNL     1      15.472   4.378   2.517  0.00  0.00    -0.002 C 
ATOM     14  C   UNL     1      15.277   4.079   4.018  0.00  0.00    +0.004 C 
ATOM     15  C   UNL     1      16.666   4.357   4.645  0.00  0.00    +0.000 C 
ATOM     16  C   UNL     1      17.155   5.595   3.854  0.00  0.00    +0.000 C 
ATOM     17  C   UNL     1      16.666   5.342   2.413  0.00  0.00    +0.004 C 
ENDBRANCH  12  13
ENDBRANCH   9  12
ENDBRANCH   4   8
BRANCH   1  18
ATOM     18  C   UNL     1       7.248   1.495   0.063  0.00  0.00    -0.044 C 
BRANCH  18  19
ATOM     19  C   UNL     1       5.955   2.305  -0.045  0.00  0.00    +0.135 C 
BRANCH  19  20
ATOM     20  O   UNL     1       5.962   3.053  -1.263  0.00  0.00    -0.390 OA
ATOM     21  H   UNL     1       6.025   2.508  -2.059  0.00  0.00    +0.210 HD
ENDBRANCH  19  20
BRANCH  19  22
ATOM     22  C   UNL     1       4.756   1.355  -0.038  0.00  0.00    +0.258 C 
BRANCH  22  23
ATOM     23  O   UNL     1       3.546   2.114  -0.022  0.00  0.00    -0.489 OA
BRANCH  23  26
ATOM     24  C   UNL     1      -0.017   1.393   0.010  0.00  0.00    +0.022 A 
ATOM     25  C   UNL     1       1.168   2.096   0.002  0.00  0.00    +0.047 A 
ATOM     26  C   UNL     1       2.380   1.418  -0.013  0.00  0.00    +0.121 A 
ATOM     27  C   UNL     1       2.404   0.028  -0.021  0.00  0.00    +0.047 A 
ATOM     28  C   UNL     1       1.224  -0.682  -0.013  0.00  0.00    +0.022 A 
ATOM     29  C   UNL     1       0.002  -0.004   0.002  0.00  0.00    +0.052 A 
BRANCH  29  30
ATOM     30  C   UNL     1      -1.227  -0.739   0.010  0.00  0.00    +0.099 C 
ATOM     31  N   UNL     1      -2.202  -1.322   0.017  0.00  0.00    -0.191 NA
ENDBRANCH  29  30
ENDBRANCH  23  26
ENDBRANCH  22  23
ENDBRANCH  19  22
ENDBRANCH  18  19
ENDBRANCH   1  18
TORSDOF 10
