REMARK  Name = ZINC12311590
REMARK  15 active torsions:
REMARK  status: ('A' for Active; 'I' for Inactive)
REMARK    1  A    between atoms: C_1  and  C_2
REMARK    2  A    between atoms: C_5  and  N_8
REMARK    3  A    between atoms: C_9  and  C_11
REMARK    4  A    between atoms: C_11  and  N_67
REMARK    5  A    between atoms: C_12  and  C_13
REMARK    6  A    between atoms: C_12  and  N_67
REMARK    7  A    between atoms: N_15  and  C_16
REMARK    8  A    between atoms: C_19  and  C_22
REMARK    9  A    between atoms: C_23  and  C_25
REMARK   10  A    between atoms: C_23  and  C_27
REMARK   11  A    between atoms: C_23  and  N_67
REMARK   12  A    between atoms: C_25  and  O_26
REMARK   13  A    between atoms: C_27  and  C_29
REMARK   14  A    between atoms: C_27  and  O_38
REMARK   15  A    between atoms: C_32  and  N_35
REMARK                            x       y       z     vdW  Elec       q    Type
REMARK                         _______ _______ _______ _____ _____    ______ ____
ROOT
ATOM      1  N   UNL     1       3.592  -4.970   0.265  0.00  0.00    +0.396 N 
ATOM      2  H   UNL     1       4.174  -4.227  -0.140  0.00  0.00    -0.080 HD
ENDROOT
BRANCH   1   3
ATOM      3  C   UNL     1       2.236  -4.436   0.510  0.00  0.00    +0.020 C 
BRANCH   3   5
ATOM      4  N   UNL     1       1.251  -2.315   1.317  0.00  0.00    -0.287 N 
ATOM      5  C   UNL     1       2.358  -3.015   0.995  0.00  0.00    +0.201 C 
ATOM      6  O   UNL     1       3.451  -2.500   1.095  0.00  0.00    -0.278 OA
ATOM      7  H   UNL     1       0.382  -2.744   1.292  0.00  0.00    +0.155 HD
BRANCH   4  12
ATOM      8  C   UNL     1       1.680   3.138   2.820  0.00  0.00    +0.044 C 
ATOM      9  C   UNL     1       1.567   1.690   2.421  0.00  0.00    -0.050 A 
ATOM     10  C   UNL     1       2.442   1.159   1.492  0.00  0.00    +0.005 A 
ATOM     11  C   UNL     1       2.341  -0.168   1.124  0.00  0.00    +0.023 A 
ATOM     12  C   UNL     1       1.357  -0.970   1.688  0.00  0.00    +0.033 A 
ATOM     13  C   UNL     1       0.479  -0.434   2.621  0.00  0.00    +0.023 A 
ATOM     14  C   UNL     1       0.586   0.894   2.984  0.00  0.00    +0.005 A 
ENDBRANCH   4  12
ENDBRANCH   3   5
ENDBRANCH   1   3
BRANCH   1  15
ATOM     15  C   UNL     1       3.526  -6.099  -0.686  0.00  0.00    +0.020 C 
BRANCH  15  16
ATOM     16  C   UNL     1       4.921  -6.415  -1.161  0.00  0.00    +0.201 C 
ATOM     17  O   UNL     1       5.851  -5.718  -0.816  0.00  0.00    -0.278 OA
ATOM     18  N   UNL     1       5.135  -7.473  -1.969  0.00  0.00    -0.287 N 
ATOM     19  H   UNL     1       4.389  -8.024  -2.254  0.00  0.00    +0.155 HD
BRANCH  18  20
ATOM     20  C   UNL     1       6.432  -7.777  -2.396  0.00  0.00    +0.033 A 
ATOM     21  C   UNL     1       7.400  -6.782  -2.443  0.00  0.00    +0.023 A 
ATOM     22  C   UNL     1       8.681  -7.086  -2.860  0.00  0.00    +0.005 A 
ATOM     23  C   UNL     1       8.998  -8.377  -3.240  0.00  0.00    -0.050 A 
ATOM     24  C   UNL     1       8.035  -9.369  -3.199  0.00  0.00    +0.005 A 
ATOM     25  C   UNL     1       6.753  -9.072  -2.778  0.00  0.00    +0.023 A 
ATOM     26  C   UNL     1      10.395  -8.704  -3.700  0.00  0.00    +0.044 C 
ENDBRANCH  18  20
ENDBRANCH  15  16
ENDBRANCH   1  15
BRANCH   1  27
ATOM     27  C   UNL     1       4.198  -5.415   1.537  0.00  0.00    -0.008 C 
BRANCH  27  28
ATOM     28  C   UNL     1       3.111  -5.875   2.512  0.00  0.00    +0.143 C 
BRANCH  28  29
ATOM     29  O   UNL     1       2.404  -6.982   1.949  0.00  0.00    -0.396 OA
ATOM     30  H   UNL     1       1.651  -7.277   2.479  0.00  0.00    +0.209 HD
ENDBRANCH  28  29
ENDBRANCH  27  28
BRANCH  27  31
ATOM     31  C   UNL     1       4.967  -4.242   2.147  0.00  0.00    +0.133 C 
BRANCH  31  32
ATOM     32  C   UNL     1       6.227  -4.002   1.356  0.00  0.00    -0.020 A 
ATOM     33  C   UNL     1       7.364  -4.741   1.625  0.00  0.00    +0.008 A 
ATOM     34  C   UNL     1       8.518  -4.524   0.896  0.00  0.00    +0.033 A 
ATOM     35  C   UNL     1       8.538  -3.560  -0.095  0.00  0.00    +0.126 A 
ATOM     36  C   UNL     1       7.403  -2.817  -0.360  0.00  0.00    +0.033 A 
ATOM     37  C   UNL     1       6.247  -3.038   0.365  0.00  0.00    +0.008 A 
BRANCH  35  38
ATOM     38  N   UNL     1       9.776  -3.323  -0.872  0.00  0.00    +0.056 N 
ATOM     39  O   UNL     1       9.824  -2.412  -1.678  0.00  0.00    -0.126 OA
ATOM     40  O   UNL     1      10.746  -4.040  -0.704  0.00  0.00    -0.126 OA
ENDBRANCH  35  38
ENDBRANCH  31  32
BRANCH  31  41
ATOM     41  O   UNL     1       5.306  -4.547   3.502  0.00  0.00    -0.389 OA
ATOM     42  H   UNL     1       5.859  -5.334   3.601  0.00  0.00    +0.210 HD
ENDBRANCH  31  41
ENDBRANCH  27  31
ENDBRANCH   1  27
TORSDOF 13
