REMARK  Name = ZINC12498494
REMARK  7 active torsions:
REMARK  status: ('A' for Active; 'I' for Inactive)
REMARK    1  A    between atoms: C_4  and  N_10
REMARK    2  A    between atoms: C_5  and  C_7
REMARK    3  A    between atoms: N_10  and  C_11
REMARK    4  A    between atoms: C_11  and  N_13
REMARK    5  A    between atoms: C_14  and  C_16
REMARK    6  A    between atoms: C_16  and  O_17
REMARK    7  A    between atoms: O_17  and  C_18
REMARK                            x       y       z     vdW  Elec       q    Type
REMARK                         _______ _______ _______ _____ _____    ______ ____
ROOT
ATOM      1  C   UNL     1       5.120  -2.727  -0.280  0.00  0.00    +0.141 C 
ATOM      2  S   UNL     1       6.423  -1.667  -0.608  0.00  0.00    -0.018 S 
ENDROOT
BRANCH   1   3
ATOM      3  N   UNL     1       3.858  -2.255  -0.249  0.00  0.00    -0.265 N 
ATOM      4  C   UNL     1       3.622  -0.948  -0.476  0.00  0.00    +0.256 C 
ATOM      5  O   UNL     1       4.545  -0.196  -0.709  0.00  0.00    -0.272 OA
ATOM      6  H   UNL     1       3.119  -2.856  -0.063  0.00  0.00    +0.157 HD
BRANCH   4   7
ATOM      7  C   UNL     1       2.211  -0.419  -0.442  0.00  0.00    +0.325 C 
BRANCH   7   8
ATOM      8  O   UNL     1       2.221   0.984  -0.711  0.00  0.00    -0.482 OA
BRANCH   8   9
ATOM      9  C   UNL     1       1.019   1.620  -0.717  0.00  0.00    +0.135 A 
ATOM     10  C   UNL     1      -0.145   0.907  -0.469  0.00  0.00    +0.048 A 
ATOM     11  C   UNL     1      -1.365   1.554  -0.481  0.00  0.00    +0.019 A 
ATOM     12  C   UNL     1      -1.427   2.914  -0.731  0.00  0.00    +0.019 A 
ATOM     13  C   UNL     1      -0.268   3.627  -0.979  0.00  0.00    +0.034 A 
ATOM     14  C   UNL     1       0.956   2.983  -0.972  0.00  0.00    +0.061 A 
ATOM     15 BR   UNL     1       2.540   3.957  -1.312  0.00  0.00    -0.046 Br
ATOM     16 BR   UNL     1      -3.099   3.797  -0.740  0.00  0.00    -0.050 Br
ENDBRANCH   8   9
ENDBRANCH   7   8
ENDBRANCH   4   7
ENDBRANCH   1   3
BRANCH   1  17
ATOM     17  N   UNL     1       5.356  -4.035  -0.052  0.00  0.00    -0.296 N 
ATOM     18  H   UNL     1       4.627  -4.622   0.201  0.00  0.00    +0.154 HD
BRANCH  17  22
ATOM     19  C   UNL     1       9.219  -5.552  -0.438  0.00  0.00    +0.001 A 
ATOM     20  C   UNL     1       8.995  -4.387   0.278  0.00  0.00    +0.002 A 
ATOM     21  C   UNL     1       7.717  -3.880   0.402  0.00  0.00    +0.024 A 
ATOM     22  C   UNL     1       6.645  -4.542  -0.182  0.00  0.00    +0.045 A 
ATOM     23  C   UNL     1       6.870  -5.721  -0.907  0.00  0.00    +0.058 A 
ATOM     24  C   UNL     1       8.169  -6.220  -1.029  0.00  0.00    +0.015 A 
BRANCH  23  25
ATOM     25  C   UNL     1       5.740  -6.431  -1.538  0.00  0.00    +0.243 C 
ATOM     26  O   UNL     1       4.627  -5.942  -1.515  0.00  0.00    -0.270 OA
ATOM     27  N   UNL     1       5.943  -7.620  -2.138  0.00  0.00    -0.325 N 
ATOM     28  H   UNL     1       6.831  -8.010  -2.156  0.00  0.00    +0.145 HD
ATOM     29  H   UNL     1       5.200  -8.087  -2.553  0.00  0.00    +0.145 HD
ENDBRANCH  23  25
ENDBRANCH  17  22
ENDBRANCH   1  17
TORSDOF 7
