REMARK  Name = ZINC09379681
REMARK  7 active torsions:
REMARK  status: ('A' for Active; 'I' for Inactive)
REMARK    1  A    between atoms: C_1  and  C_2
REMARK    2  A    between atoms: C_2  and  C_4
REMARK    3  A    between atoms: C_2  and  N_12
REMARK    4  A    between atoms: C_4  and  C_5
REMARK    5  A    between atoms: C_5  and  C_6
REMARK    6  A    between atoms: C_30  and  C_32
REMARK    7  A    between atoms: C_30  and  C_33
REMARK                            x       y       z     vdW  Elec       q    Type
REMARK                         _______ _______ _______ _____ _____    ______ ____
ROOT
ATOM      1  N   UNL     1       1.178   3.497   0.170  0.00  0.00    -0.324 N 
ATOM      2  C   UNL     1       1.174   2.112   0.096  0.00  0.00    +0.159 A 
ATOM      3  C   UNL     1      -0.015   1.396   0.088  0.00  0.00    +0.083 A 
ATOM      4  C   UNL     1       0.002  -0.004   0.013  0.00  0.00    +0.115 A 
ATOM      5  C   UNL     1      -1.315  -0.665   0.013  0.00  0.00    +0.037 A 
ATOM      6  C   UNL     1      -1.585  -2.054  -0.054  0.00  0.00    -0.024 A 
ATOM      7  C   UNL     1      -2.873  -2.489  -0.040  0.00  0.00    +0.020 A 
ATOM      8  C   UNL     1      -3.920  -1.564   0.035  0.00  0.00    +0.105 A 
ATOM      9  C   UNL     1      -2.430   0.187   0.086  0.00  0.00    +0.089 A 
ATOM     10  S   UNL     1      -1.733   1.820   0.148  0.00  0.00    -0.065 S 
ATOM     11  N   UNL     1      -5.235  -2.010   0.048  0.00  0.00    -0.312 N 
ATOM     12  C   UNL     1      -5.975  -1.500  -1.115  0.00  0.00    +0.134 C 
ATOM     13  C   UNL     1      -7.399  -2.063  -1.094  0.00  0.00    +0.178 C 
ATOM     14  O   UNL     1      -8.026  -1.714   0.143  0.00  0.00    -0.377 OA
ATOM     15  C   UNL     1      -7.331  -2.195   1.297  0.00  0.00    +0.178 C 
ATOM     16  C   UNL     1      -5.907  -1.633   1.300  0.00  0.00    +0.134 C 
ATOM     17  C   UNL     1      -3.209  -3.957  -0.098  0.00  0.00    +0.199 C 
ATOM     18  O   UNL     1      -2.077  -4.706  -0.541  0.00  0.00    -0.369 OA
ATOM     19  C   UNL     1      -0.887  -4.422   0.203  0.00  0.00    +0.068 C 
ATOM     20  C   UNL     1      -0.423  -3.007  -0.148  0.00  0.00    +0.070 C 
ATOM     21  C   UNL     1      -1.183  -4.511   1.702  0.00  0.00    +0.041 C 
ATOM     22  C   UNL     1       0.205  -5.428  -0.167  0.00  0.00    +0.041 C 
ATOM     23  N   UNL     1       1.228  -0.569  -0.049  0.00  0.00    -0.128 NA
ATOM     24  N   UNL     1       2.293   0.140  -0.039  0.00  0.00    -0.041 NA
ATOM     25  N   UNL     1       2.313   1.421   0.030  0.00  0.00    -0.113 NA
ATOM     26  H   UNL     1       0.340   3.982   0.217  0.00  0.00    +0.148 HD
ATOM     27  N   UNL     1      -3.724  -0.217   0.098  0.00  0.00    -0.337 N 
ATOM     28  H   UNL     1      -4.504   0.448   0.151  0.00  0.00    +0.168 HD
ENDROOT
BRANCH   1  30
ATOM     29  C   UNL     1       2.990   4.295   1.605  0.00  0.00    +0.028 C 
ATOM     30  C   UNL     1       2.449   4.227   0.176  0.00  0.00    +0.069 C 
BRANCH  30  31
ATOM     31  C   UNL     1       2.225   5.645  -0.353  0.00  0.00    +0.026 C 
BRANCH  31  32
ATOM     32  C   UNL     1       1.802   5.580  -1.822  0.00  0.00    +0.037 C 
BRANCH  32  33
ATOM     33  C   UNL     1       1.582   6.977  -2.344  0.00  0.00    -0.047 A 
ATOM     34  C   UNL     1       0.331   7.558  -2.255  0.00  0.00    +0.003 A 
ATOM     35  C   UNL     1       0.130   8.841  -2.728  0.00  0.00    +0.000 A 
ATOM     36  C   UNL     1       1.177   9.539  -3.300  0.00  0.00    +0.000 A 
ATOM     37  C   UNL     1       2.427   8.955  -3.394  0.00  0.00    +0.000 A 
ATOM     38  C   UNL     1       2.629   7.674  -2.916  0.00  0.00    +0.003 A 
ENDBRANCH  32  33
ENDBRANCH  31  32
ENDBRANCH  30  31
ENDBRANCH   1  30
TORSDOF 4
