REMARK  Name = ZINC22921828
REMARK  9 active torsions:
REMARK  status: ('A' for Active; 'I' for Inactive)
REMARK    1  A    between atoms: C_1  and  C_2
REMARK    2  A    between atoms: C_2  and  C_3
REMARK    3  A    between atoms: C_8  and  N_9
REMARK    4  A    between atoms: C_10  and  C_12
REMARK    5  A    between atoms: C_12  and  N_13
REMARK    6  A    between atoms: N_16  and  C_19
REMARK    7  A    between atoms: C_19  and  C_20
REMARK    8  A    between atoms: N_22  and  C_23
REMARK    9  A    between atoms: N_22  and  C_29
REMARK                            x       y       z     vdW  Elec       q    Type
REMARK                         _______ _______ _______ _____ _____    ______ ____
ROOT
ATOM      1  N   UNL     1      -7.449  -1.478  -1.750  0.00  0.00    +0.387 N 
ATOM      2  C   UNL     1      -6.193  -1.936  -2.360  0.00  0.00    -0.063 C 
ATOM      3  C   UNL     1      -5.020  -1.168  -1.746  0.00  0.00    +0.066 C 
ATOM      4  N   UNL     1      -5.213   0.273  -1.965  0.00  0.00    -0.298 NA
ATOM      5  C   UNL     1      -6.469   0.731  -1.355  0.00  0.00    +0.066 C 
ATOM      6  C   UNL     1      -7.642  -0.037  -1.969  0.00  0.00    -0.063 C 
ATOM      7  H   UNL     1      -7.383  -1.651  -0.666  0.00  0.00    -0.081 HD
ENDROOT
BRANCH   1   8
ATOM      8  C   UNL     1      -8.592  -2.246  -2.260  0.00  0.00    +0.019 C 
BRANCH   8  10
ATOM      9  N   UNL     1      -9.361  -4.597  -2.245  0.00  0.00    -0.287 N 
ATOM     10  C   UNL     1      -8.479  -3.678  -1.804  0.00  0.00    +0.201 C 
ATOM     11  O   UNL     1      -7.595  -4.003  -1.040  0.00  0.00    -0.278 OA
ATOM     12  H   UNL     1     -10.121  -4.317  -2.989  0.00  0.00    +0.155 HD
BRANCH   9  18
ATOM     13  C   UNL     1     -10.450  -6.698  -1.763  0.00  0.00    -0.026 A 
ATOM     14  C   UNL     1     -10.395  -7.991  -1.280  0.00  0.00    +0.005 A 
ATOM     15  C   UNL     1      -9.205  -8.498  -0.790  0.00  0.00    +0.000 A 
ATOM     16  C   UNL     1      -8.067  -7.712  -0.781  0.00  0.00    +0.002 A 
ATOM     17  C   UNL     1      -8.114  -6.420  -1.268  0.00  0.00    +0.023 A 
ATOM     18  C   UNL     1      -9.309  -5.907  -1.756  0.00  0.00    +0.036 A 
BRANCH  13  20
ATOM     19  C   UNL     1     -11.789  -6.328  -3.817  0.00  0.00    +0.009 C 
ATOM     20  C   UNL     1     -11.746  -6.147  -2.298  0.00  0.00    +0.033 C 
ENDBRANCH  13  20
ENDBRANCH   9  18
ENDBRANCH   8  10
ENDBRANCH   1   8
BRANCH   4  21
ATOM     21  C   UNL     1      -4.070   1.041  -1.455  0.00  0.00    +0.181 C 
BRANCH  21  22
ATOM     22  C   UNL     1      -4.183   2.473  -1.910  0.00  0.00    +0.234 C 
ATOM     23  O   UNL     1      -5.069   2.799  -2.672  0.00  0.00    -0.274 OA
ATOM     24  N   UNL     1      -3.301   3.392  -1.470  0.00  0.00    -0.266 N 
BRANCH  24  25
ATOM     25  C   UNL     1      -2.150   2.975  -0.665  0.00  0.00    +0.104 C 
ATOM     26  C   UNL     1      -0.849   3.250  -1.438  0.00  0.00    +0.047 C 
ATOM     27  C   UNL     1       0.368   3.118  -0.488  0.00  0.00    +0.168 C 
ATOM     28  S   UNL     1      -0.350   3.556   1.147  0.00  0.00    -0.029 S 
ATOM     29  O   UNL     1       0.186   4.803   1.568  0.00  0.00    -0.174 OA
ATOM     30  O   UNL     1      -0.259   2.430   2.009  0.00  0.00    -0.174 OA
ATOM     31  C   UNL     1      -2.110   3.794   0.657  0.00  0.00    +0.188 C 
ENDBRANCH  24  25
BRANCH  24  32
ATOM     32  C   UNL     1      -3.484   4.743  -1.783  0.00  0.00    +0.037 A 
ATOM     33  C   UNL     1      -2.502   5.671  -1.462  0.00  0.00    +0.023 A 
ATOM     34  C   UNL     1      -2.683   7.004  -1.776  0.00  0.00    +0.002 A 
ATOM     35  C   UNL     1      -3.846   7.416  -2.400  0.00  0.00    +0.000 A 
ATOM     36  C   UNL     1      -4.829   6.495  -2.716  0.00  0.00    +0.002 A 
ATOM     37  C   UNL     1      -4.651   5.161  -2.409  0.00  0.00    +0.023 A 
ENDBRANCH  24  32
ENDBRANCH  21  22
ENDBRANCH   4  21
TORSDOF 8
