REMARK  Name = ZINC16177775
REMARK  5 active torsions:
REMARK  status: ('A' for Active; 'I' for Inactive)
REMARK    1  A    between atoms: C_8  and  C_11
REMARK    2  A    between atoms: N_13  and  C_14
REMARK    3  A    between atoms: C_14  and  C_15
REMARK    4  A    between atoms: C_18  and  S_20
REMARK    5  A    between atoms: S_20  and  N_23
REMARK                            x       y       z     vdW  Elec       q    Type
REMARK                         _______ _______ _______ _____ _____    ______ ____
ROOT
ATOM      1  C   UNL     1      -1.187   1.624   0.017  0.00  0.00    +0.244 C 
ATOM      2  O   UNL     1      -1.204   2.841   0.023  0.00  0.00    -0.270 OA
ATOM      3  N   UNL     1      -0.011   0.966   0.007  0.00  0.00    -0.307 N 
ATOM      4  H   UNL     1       0.002  -0.004   0.002  0.00  0.00    +0.149 HD
ENDROOT
BRANCH   1  12
ATOM      5  C   UNL     1      -7.229   0.499  -0.239  0.00  0.00    +0.001 A 
ATOM      6  C   UNL     1      -7.138  -0.840   0.108  0.00  0.00    +0.004 A 
ATOM      7  C   UNL     1      -5.916  -1.403   0.428  0.00  0.00    +0.046 A 
ATOM      8  C   UNL     1      -4.772  -0.626   0.403  0.00  0.00    +0.128 A 
ATOM      9  C   UNL     1      -4.862   0.732   0.050  0.00  0.00    +0.017 A 
ATOM     10  C   UNL     1      -6.099   1.290  -0.270  0.00  0.00    +0.011 A 
ATOM     11  C   UNL     1      -3.629   1.534   0.033  0.00  0.00    +0.023 C 
ATOM     12  C   UNL     1      -2.444   0.875   0.018  0.00  0.00    +0.052 C 
ATOM     13  C   UNL     1      -2.427  -0.631   0.010  0.00  0.00    +0.269 C 
ATOM     14  O   UNL     1      -3.559  -1.147   0.711  0.00  0.00    -0.487 OA
ENDBRANCH   1  12
BRANCH   3  15
ATOM     15  C   UNL     1       1.248   1.716  -0.001  0.00  0.00    +0.147 C 
BRANCH  15  16
ATOM     16  C   UNL     1       2.406   0.752  -0.017  0.00  0.00    +0.009 A 
ATOM     17  C   UNL     1       3.052   0.212  -1.079  0.00  0.00    +0.015 A 
ATOM     18  C   UNL     1       4.101  -0.659  -0.853  0.00  0.00    +0.036 A 
ATOM     19  C   UNL     1       4.453  -0.948   0.424  0.00  0.00    +0.142 A 
ATOM     20  S   UNL     1       3.289   0.032   1.358  0.00  0.00    -0.072 S 
BRANCH  19  21
ATOM     21  S   UNL     1       5.732  -2.008   1.010  0.00  0.00    +0.062 S 
ATOM     22  O   UNL     1       5.358  -2.410   2.321  0.00  0.00    -0.153 OA
ATOM     23  O   UNL     1       5.992  -2.943  -0.028  0.00  0.00    -0.153 OA
BRANCH  21  24
ATOM     24  N   UNL     1       7.099  -1.087   1.169  0.00  0.00    -0.203 NA
ATOM     25  H   UNL     1       7.759  -1.310   1.843  0.00  0.00    +0.144 HD
ATOM     26  H   UNL     1       7.239  -0.323   0.588  0.00  0.00    +0.144 HD
ENDBRANCH  21  24
ENDBRANCH  19  21
ENDBRANCH  15  16
ENDBRANCH   3  15
TORSDOF 5
