REMARK  Name = ZINC39228003
REMARK  6 active torsions:
REMARK  status: ('A' for Active; 'I' for Inactive)
REMARK    1  A    between atoms: C_1  and  C_2
REMARK    2  A    between atoms: C_5  and  C_8
REMARK    3  A    between atoms: C_8  and  C_9
REMARK    4  A    between atoms: C_9  and  N_10
REMARK    5  A    between atoms: C_11  and  C_13
REMARK    6  A    between atoms: C_15  and  O_40
REMARK                            x       y       z     vdW  Elec       q    Type
REMARK                         _______ _______ _______ _____ _____    ______ ____
ROOT
ATOM      1  C   UNL     1       2.723  -8.397  -0.059  0.00  0.00    +0.107 C 
ATOM      2  C   UNL     1       2.004  -8.911  -1.309  0.00  0.00    +0.127 C 
ATOM      3  C   UNL     1       2.029 -10.440  -1.327  0.00  0.00    +0.032 C 
ATOM      4  C   UNL     1       3.479 -10.933  -1.325  0.00  0.00    +0.004 C 
ATOM      5  C   UNL     1       4.181 -10.420  -0.068  0.00  0.00    -0.024 C 
ATOM      6  C   UNL     1       4.170  -8.889  -0.073  0.00  0.00    +0.004 C 
ATOM      7  C   UNL     1       4.915  -8.374   1.161  0.00  0.00    -0.005 C 
ATOM      8  C   UNL     1       6.335  -8.945   1.148  0.00  0.00    -0.020 C 
ATOM      9  C   UNL     1       7.099  -8.456   2.353  0.00  0.00    +0.006 A 
ATOM     10  H   UNL     1       6.594  -6.445   2.542  0.00  0.00    +0.166 HD
ATOM     11  C   UNL     1       7.913  -9.260   3.076  0.00  0.00    -0.022 A 
ATOM     12  C   UNL     1       8.469  -8.457   4.142  0.00  0.00    +0.003 A 
ATOM     13  C   UNL     1       9.358  -8.742   5.183  0.00  0.00    +0.010 A 
ATOM     14  C   UNL     1       9.674  -7.709   6.031  0.00  0.00    +0.001 A 
ATOM     15  C   UNL     1       9.143  -6.439   5.873  0.00  0.00    +0.002 A 
ATOM     16  C   UNL     1       8.261  -6.129   4.852  0.00  0.00    +0.026 A 
ATOM     17  C   UNL     1       7.923  -7.157   3.976  0.00  0.00    +0.047 A 
ATOM     18  N   UNL     1       7.101  -7.197   2.886  0.00  0.00    -0.359 N 
ATOM     19  C   UNL     1       8.139 -10.716   2.754  0.00  0.00    +0.019 C 
ATOM     20  C   UNL     1       7.620 -10.976   1.333  0.00  0.00    -0.073 C 
ATOM     21  N   UNL     1       6.273 -10.412   1.191  0.00  0.00    +0.386 N 
ATOM     22  C   UNL     1       5.629 -10.912  -0.033  0.00  0.00    -0.074 C 
ATOM     23  H   UNL     1       5.718 -10.693   1.985  0.00  0.00    -0.081 HD
ENDROOT
BRANCH   1  25
ATOM     24  N   UNL     1       1.527  -6.231  -0.040  0.00  0.00    -0.315 N 
ATOM     25  C   UNL     1       2.703  -6.890  -0.050  0.00  0.00    +0.219 C 
ATOM     26  O   UNL     1       3.745  -6.270  -0.053  0.00  0.00    -0.275 OA
ATOM     27  H   UNL     1       0.694  -6.727  -0.038  0.00  0.00    +0.149 HD
BRANCH  24  28
ATOM     28  C   UNL     1       1.508  -4.767  -0.032  0.00  0.00    +0.109 C 
BRANCH  28  29
ATOM     29  C   UNL     1       0.059  -4.275  -0.021  0.00  0.00    +0.054 C 
BRANCH  29  34
ATOM     30  C   UNL     1      -0.018   1.503   0.010  0.00  0.00    +0.044 C 
ATOM     31  C   UNL     1       0.002  -0.004   0.002  0.00  0.00    -0.050 A 
ATOM     32  C   UNL     1       0.006  -0.689  -1.199  0.00  0.00    +0.003 A 
ATOM     33  C   UNL     1       0.025  -2.071  -1.206  0.00  0.00    +0.004 A 
ATOM     34  C   UNL     1       0.040  -2.768  -0.013  0.00  0.00    -0.046 A 
ATOM     35  C   UNL     1       0.037  -2.084   1.188  0.00  0.00    +0.004 A 
ATOM     36  C   UNL     1       0.023  -0.702   1.195  0.00  0.00    +0.003 A 
ENDBRANCH  29  34
ENDBRANCH  28  29
ENDBRANCH  24  28
ENDBRANCH   1  25
BRANCH   2  37
ATOM     37  O   UNL     1       2.662  -8.412  -2.475  0.00  0.00    -0.391 OA
ATOM     38  H   UNL     1       2.260  -8.698  -3.306  0.00  0.00    +0.210 HD
ENDBRANCH   2  37
TORSDOF 5
