REMARK  Name = ZINC05320432
REMARK  5 active torsions:
REMARK  status: ('A' for Active; 'I' for Inactive)
REMARK    1  A    between atoms: C_1  and  O_2
REMARK    2  A    between atoms: O_2  and  C_3
REMARK    3  A    between atoms: C_4  and  C_11
REMARK    4  A    between atoms: N_12  and  N_13
REMARK    5  A    between atoms: N_18  and  N_19
REMARK                            x       y       z     vdW  Elec       q    Type
REMARK                         _______ _______ _______ _____ _____    ______ ____
ROOT
ATOM      1  C   UNL     1       0.002  -0.004   0.002  0.00  0.00    +0.142 C 
ATOM      2  N   UNL     1      -0.015   1.294   0.009  0.00  0.00    -0.187 NA
ENDROOT
BRANCH   1   4
ATOM      3  C   UNL     1      -2.489  -0.078   0.031  0.00  0.00    +0.143 A 
ATOM      4  C   UNL     1      -1.264  -0.758   0.010  0.00  0.00    +0.038 A 
ATOM      5  C   UNL     1      -1.250  -2.155   0.002  0.00  0.00    +0.028 A 
ATOM      6  C   UNL     1      -2.439  -2.855   0.010  0.00  0.00    +0.020 A 
ATOM      7  C   UNL     1      -3.647  -2.179   0.025  0.00  0.00    +0.034 A 
ATOM      8  C   UNL     1      -3.674  -0.796   0.033  0.00  0.00    +0.061 A 
ATOM      9 BR   UNL     1      -5.330   0.116   0.053  0.00  0.00    -0.046 Br
ATOM     10 BR   UNL     1      -2.418  -4.746  -0.001  0.00  0.00    -0.050 Br
BRANCH   3  12
ATOM     11  C   UNL     1      -2.542   1.941  -1.222  0.00  0.00    +0.277 C 
ATOM     12  O   UNL     1      -2.515   1.280   0.044  0.00  0.00    -0.493 OA
ENDBRANCH   3  12
ENDBRANCH   1   4
BRANCH   2  13
ATOM     13  N   UNL     1       1.188   2.011   0.002  0.00  0.00    -0.204 N 
ATOM     14  C   UNL     1       1.169   3.396   0.009  0.00  0.00    +0.253 A 
ATOM     15  N   UNL     1       0.103   4.162   0.024  0.00  0.00    -0.110 NA
ATOM     16  N   UNL     1       0.455   5.398   0.028  0.00  0.00    -0.135 NA
ATOM     17  C   UNL     1       1.755   5.494   0.016  0.00  0.00    +0.245 A 
ATOM     18  N   UNL     1       2.256   4.223   0.009  0.00  0.00    -0.223 N 
ATOM     19  H   UNL     1       2.035   1.538  -0.009  0.00  0.00    +0.177 HD
BRANCH  18  20
ATOM     20  N   UNL     1       3.572   3.855   0.000  0.00  0.00    -0.294 N 
ATOM     21  H   UNL     1       3.915   3.764  -0.944  0.00  0.00    +0.163 HD
ATOM     22  H   UNL     1       4.133   4.507   0.527  0.00  0.00    +0.163 HD
ENDBRANCH  18  20
ENDBRANCH   2  13
TORSDOF 4
