REMARK  Name = ZINC08770424
REMARK  9 active torsions:
REMARK  status: ('A' for Active; 'I' for Inactive)
REMARK    1  A    between atoms: C_1  and  O_2
REMARK    2  A    between atoms: O_2  and  C_3
REMARK    3  A    between atoms: C_8  and  O_9
REMARK    4  A    between atoms: O_9  and  C_10
REMARK    5  A    between atoms: C_11  and  C_15
REMARK    6  A    between atoms: C_16  and  O_26
REMARK    7  A    between atoms: C_18  and  O_25
REMARK    8  A    between atoms: N_19  and  C_22
REMARK    9  A    between atoms: C_22  and  C_23
REMARK                            x       y       z     vdW  Elec       q    Type
REMARK                         _______ _______ _______ _____ _____    ______ ____
ROOT
ATOM      1  C   UNL     1      -1.976   1.163   1.348  0.00  0.00    +0.162 A 
ATOM      2  C   UNL     1      -2.589   0.361   0.402  0.00  0.00    +0.053 A 
ATOM      3  C   UNL     1      -3.909  -0.032   0.564  0.00  0.00    -0.044 A 
ATOM      4  C   UNL     1      -4.618   0.377   1.674  0.00  0.00    -0.050 A 
ATOM      5  C   UNL     1      -4.006   1.179   2.627  0.00  0.00    +0.052 A 
ATOM      6  C   UNL     1      -2.688   1.569   2.473  0.00  0.00    +0.162 A 
ATOM      7  C   UNL     1      -6.055  -0.020   1.889  0.00  0.00    +0.001 C 
ATOM      8  C   UNL     1      -6.054  -0.886  -0.360  0.00  0.00    -0.077 C 
ATOM      9  C   UNL     1      -4.531  -0.908  -0.493  0.00  0.00    +0.016 C 
ATOM     10  N   UNL     1      -6.407  -1.169   1.044  0.00  0.00    +0.387 N 
ATOM     11  H   UNL     1      -7.416  -1.346   1.112  0.00  0.00    -0.085 HD
ATOM     12  H   UNL     1      -5.891  -1.997   1.364  0.00  0.00    -0.085 HD
ENDROOT
BRANCH   7  13
ATOM     13  C   UNL     1      -6.257  -0.392   3.336  0.00  0.00    +0.069 A 
ATOM     14  C   UNL     1      -7.064   0.377   4.156  0.00  0.00    +0.224 A 
ATOM     15  N   UNL     1      -7.233   0.027   5.436  0.00  0.00    -0.161 NA
ATOM     16  C   UNL     1      -6.639  -1.032   5.938  0.00  0.00    +0.302 A 
ATOM     17  N   UNL     1      -5.833  -1.818   5.178  0.00  0.00    -0.259 N 
ATOM     18  C   UNL     1      -5.627  -1.519   3.878  0.00  0.00    +0.262 A 
ATOM     19  O   UNL     1      -4.903  -2.219   3.187  0.00  0.00    -0.267 OA
BRANCH  16  20
ATOM     20  O   UNL     1      -6.834  -1.345   7.235  0.00  0.00    -0.479 OA
ATOM     21  H   UNL     1      -7.414  -0.764   7.745  0.00  0.00    +0.295 HD
ENDBRANCH  16  20
BRANCH  14  22
ATOM     22  O   UNL     1      -7.682   1.475   3.664  0.00  0.00    -0.492 OA
ATOM     23  H   UNL     1      -8.223   1.946   4.313  0.00  0.00    +0.294 HD
ENDBRANCH  14  22
BRANCH  17  24
ATOM     24  C   UNL     1      -5.186  -2.991   5.771  0.00  0.00    +0.156 C 
BRANCH  24  25
ATOM     25  C   UNL     1      -3.846  -2.594   6.335  0.00  0.00    -0.013 C 
ATOM     26  C   UNL     1      -3.564  -2.843   7.589  0.00  0.00    +0.005 C 
ENDBRANCH  24  25
ENDBRANCH  17  24
ENDBRANCH   7  13
BRANCH   1  28
ATOM     27  C   UNL     1      -0.013   1.086   0.008  0.00  0.00    +0.277 C 
ATOM     28  O   UNL     1      -0.682   1.547   1.184  0.00  0.00    -0.491 OA
ENDBRANCH   1  28
BRANCH   6  29
ATOM     29  O   UNL     1      -2.092   2.351   3.413  0.00  0.00    -0.491 OA
ATOM     30  C   UNL     1      -2.886   2.729   4.540  0.00  0.00    +0.277 C 
ENDBRANCH   6  29
TORSDOF 7
