REMARK  Name = ZINC45120318
REMARK  10 active torsions:
REMARK  status: ('A' for Active; 'I' for Inactive)
REMARK    1  A    between atoms: C_1  and  C_2
REMARK    2  A    between atoms: C_5  and  O_26
REMARK    3  A    between atoms: C_6  and  C_8
REMARK    4  A    between atoms: C_8  and  C_10
REMARK    5  A    between atoms: C_8  and  N_11
REMARK    6  A    between atoms: N_14  and  C_15
REMARK    7  A    between atoms: C_17  and  C_23
REMARK    8  A    between atoms: C_20  and  O_21
REMARK    9  A    between atoms: O_21  and  C_22
REMARK   10  A    between atoms: O_26  and  C_27
REMARK                            x       y       z     vdW  Elec       q    Type
REMARK                         _______ _______ _______ _____ _____    ______ ____
ROOT
ATOM      1  N   UNL     1       0.646  -1.995   3.533  0.00  0.00    -0.292 N 
ATOM      2  C   UNL     1       1.301  -2.560   4.566  0.00  0.00    +0.304 C 
ATOM      3  O   UNL     1       1.416  -3.769   4.625  0.00  0.00    -0.252 OA
ATOM      4  N   UNL     1       1.829  -1.785   5.534  0.00  0.00    -0.266 N 
ATOM      5  H   UNL     1       0.555  -1.031   3.485  0.00  0.00    +0.151 HD
ATOM      6  H   UNL     1       1.667  -0.829   5.532  0.00  0.00    +0.156 HD
ENDROOT
BRANCH   4   7
ATOM      7  C   UNL     1       2.612  -2.361   6.545  0.00  0.00    +0.077 A 
ATOM      8  C   UNL     1       3.269  -3.556   6.314  0.00  0.00    +0.040 A 
ATOM      9  C   UNL     1       4.048  -4.126   7.324  0.00  0.00    +0.038 A 
ATOM     10  C   UNL     1       4.161  -3.487   8.561  0.00  0.00    +0.017 A 
ATOM     11  C   UNL     1       3.505  -2.296   8.784  0.00  0.00    +0.048 A 
ATOM     12  C   UNL     1       2.734  -1.725   7.781  0.00  0.00    +0.141 A 
BRANCH   9  13
ATOM     13  C   UNL     1       4.751  -5.402   7.084  0.00  0.00    +0.242 C 
ATOM     14  O   UNL     1       4.651  -5.958   6.007  0.00  0.00    -0.270 OA
ATOM     15  N   UNL     1       5.502  -5.951   8.059  0.00  0.00    -0.325 N 
ATOM     16  H   UNL     1       5.582  -5.508   8.918  0.00  0.00    +0.145 HD
ATOM     17  H   UNL     1       5.964  -6.790   7.901  0.00  0.00    +0.145 HD
ENDBRANCH   9  13
BRANCH  12  18
ATOM     18  O   UNL     1       2.094  -0.549   8.004  0.00  0.00    -0.493 OA
ATOM     19  C   UNL     1       2.262   0.047   9.292  0.00  0.00    +0.277 C 
ENDBRANCH  12  18
ENDBRANCH   4   7
BRANCH   1  20
ATOM     20  C   UNL     1       0.073  -2.838   2.481  0.00  0.00    +0.105 C 
ATOM     21  C   UNL     1      -1.362  -3.215   2.854  0.00  0.00    +0.033 C 
BRANCH  20  27
ATOM     22  C   UNL     1       0.019   1.500  -0.012  0.00  0.00    +0.044 C 
ATOM     23  C   UNL     1       0.045  -0.007  -0.017  0.00  0.00    -0.050 A 
ATOM     24  C   UNL     1       0.066  -0.693  -1.218  0.00  0.00    +0.007 A 
ATOM     25  C   UNL     1       0.089  -2.074  -1.225  0.00  0.00    +0.046 A 
ATOM     26  C   UNL     1       0.092  -2.773  -0.026  0.00  0.00    +0.125 A 
ATOM     27  C   UNL     1       0.070  -2.082   1.177  0.00  0.00    +0.014 A 
ATOM     28  C   UNL     1       0.053  -0.701   1.179  0.00  0.00    +0.012 A 
BRANCH  26  29
ATOM     29  O   UNL     1       0.114  -4.132  -0.030  0.00  0.00    -0.495 OA
ATOM     30  C   UNL     1       0.134  -4.776  -1.306  0.00  0.00    +0.277 C 
ENDBRANCH  26  29
ENDBRANCH  20  27
ENDBRANCH   1  20
TORSDOF 6
