REMARK  Name = ZINC38799176
REMARK  8 active torsions:
REMARK  status: ('A' for Active; 'I' for Inactive)
REMARK    1  A    between atoms: C_1  and  C_2
REMARK    2  A    between atoms: C_2  and  C_4
REMARK    3  A    between atoms: C_2  and  S_16
REMARK    4  A    between atoms: N_6  and  C_7
REMARK    5  A    between atoms: C_12  and  N_13
REMARK    6  A    between atoms: S_16  and  C_17
REMARK    7  A    between atoms: C_21  and  C_30
REMARK    8  A    between atoms: N_22  and  C_23
REMARK                            x       y       z     vdW  Elec       q    Type
REMARK                         _______ _______ _______ _____ _____    ______ ____
ROOT
ATOM      1  C   UNL     1       2.628   0.016  -1.070  0.00  0.00    +0.242 C 
ATOM      2  N   UNL     1       3.258  -0.635   0.090  0.00  0.00    -0.237 N 
ATOM      3  N   UNL     1       3.768   0.391   0.894  0.00  0.00    -0.169 NA
ATOM      4  C   UNL     1       3.528   1.565   0.373  0.00  0.00    +0.151 C 
ATOM      5  N   UNL     1       2.833   1.455  -0.837  0.00  0.00    -0.254 N 
ATOM      6  H   UNL     1       3.310  -1.589   0.263  0.00  0.00    +0.171 HD
ENDROOT
BRANCH   4   7
ATOM      7  C   UNL     1       3.918   2.783   0.953  0.00  0.00    +0.022 C 
ATOM      8  C   UNL     1       4.695   2.961   2.098  0.00  0.00    +0.006 A 
ATOM      9  C   UNL     1       5.302   2.051   2.989  0.00  0.00    +0.010 A 
ATOM     10  C   UNL     1       6.018   2.518   4.044  0.00  0.00    +0.001 A 
ATOM     11  C   UNL     1       6.172   3.886   4.276  0.00  0.00    +0.002 A 
ATOM     12  C   UNL     1       5.616   4.816   3.461  0.00  0.00    +0.026 A 
ATOM     13  C   UNL     1       4.854   4.405   2.337  0.00  0.00    +0.043 A 
ATOM     14  N   UNL     1       4.224   5.098   1.409  0.00  0.00    -0.380 N 
ATOM     15  C   UNL     1       3.590   4.176   0.463  0.00  0.00    +0.152 C 
ATOM     16  H   UNL     1       4.188   6.066   1.359  0.00  0.00    +0.160 HD
ENDBRANCH   4   7
BRANCH   5  17
ATOM     17  C   UNL     1       2.415   2.502  -1.663  0.00  0.00    +0.038 A 
ATOM     18  C   UNL     1       1.482   3.422  -1.201  0.00  0.00    +0.025 A 
ATOM     19  C   UNL     1       1.071   4.456  -2.019  0.00  0.00    +0.022 A 
ATOM     20  C   UNL     1       1.587   4.576  -3.297  0.00  0.00    +0.041 A 
ATOM     21  C   UNL     1       2.516   3.661  -3.760  0.00  0.00    +0.022 A 
ATOM     22  C   UNL     1       2.936   2.629  -2.944  0.00  0.00    +0.025 A 
ATOM     23 CL   UNL     1       1.067   5.877  -4.323  0.00  0.00    -0.084 Cl
ENDBRANCH   5  17
BRANCH   1  24
ATOM     24  S   UNL     1       0.857  -0.371  -1.130  0.00  0.00    -0.105 S 
BRANCH  24  26
ATOM     25  C   UNL     1       0.344   1.342   0.940  0.00  0.00    +0.029 C 
ATOM     26  C   UNL     1       0.300  -0.145   0.582  0.00  0.00    +0.133 C 
BRANCH  26  27
ATOM     27  C   UNL     1      -1.112  -0.654   0.722  0.00  0.00    +0.230 C 
ATOM     28  O   UNL     1      -1.811  -0.781  -0.261  0.00  0.00    -0.274 OA
ATOM     29  N   UNL     1      -1.597  -0.967   1.940  0.00  0.00    -0.283 N 
ATOM     30  H   UNL     1      -1.065  -0.795   2.733  0.00  0.00    +0.155 HD
BRANCH  29  31
ATOM     31  C   UNL     1      -2.868  -1.541   2.060  0.00  0.00    +0.064 A 
ATOM     32  C   UNL     1      -3.895  -1.141   1.215  0.00  0.00    +0.025 A 
ATOM     33  C   UNL     1      -5.147  -1.708   1.337  0.00  0.00    +0.002 A 
ATOM     34  C   UNL     1      -5.380  -2.675   2.298  0.00  0.00    +0.002 A 
ATOM     35  C   UNL     1      -4.360  -3.075   3.141  0.00  0.00    +0.034 A 
ATOM     36  C   UNL     1      -3.103  -2.515   3.021  0.00  0.00    +0.147 A 
BRANCH  36  37
ATOM     37  N   UNL     1      -2.010  -2.949   3.919  0.00  0.00    +0.058 N 
ATOM     38  O   UNL     1      -2.192  -3.853   4.701  0.00  0.00    -0.126 OA
ATOM     39  O   UNL     1      -0.934  -2.400   3.872  0.00  0.00    -0.126 OA
ENDBRANCH  36  37
ENDBRANCH  29  31
ENDBRANCH  26  27
ENDBRANCH  24  26
ENDBRANCH   1  24
TORSDOF 7
