REMARK  Name = ZINC11666971
REMARK  10 active torsions:
REMARK  status: ('A' for Active; 'I' for Inactive)
REMARK    1  A    between atoms: C_1  and  O_2
REMARK    2  A    between atoms: O_2  and  C_3
REMARK    3  A    between atoms: C_6  and  C_9
REMARK    4  A    between atoms: C_14  and  O_20
REMARK    5  A    between atoms: O_20  and  C_21
REMARK    6  A    between atoms: C_23  and  O_36
REMARK    7  A    between atoms: C_25  and  O_35
REMARK    8  A    between atoms: C_27  and  O_34
REMARK    9  A    between atoms: C_29  and  C_32
REMARK   10  A    between atoms: C_32  and  O_33
REMARK                            x       y       z     vdW  Elec       q    Type
REMARK                         _______ _______ _______ _____ _____    ______ ____
ROOT
ATOM      1  C   UNL     1      -1.310   2.115   0.020  0.00  0.00    +0.064 A 
ATOM      2  C   UNL     1      -2.284   1.808  -0.876  0.00  0.00    +0.208 A 
ATOM      3  O   UNL     1      -3.464   2.433  -0.898  0.00  0.00    -0.462 OA
ATOM      4  C   UNL     1      -3.791   3.425  -0.048  0.00  0.00    +0.142 A 
ATOM      5  C   UNL     1      -5.034   4.041  -0.125  0.00  0.00    +0.092 A 
ATOM      6  C   UNL     1      -5.354   5.060   0.756  0.00  0.00    +0.128 A 
ATOM      7  C   UNL     1      -4.439   5.475   1.722  0.00  0.00    +0.047 A 
ATOM      8  C   UNL     1      -3.213   4.880   1.812  0.00  0.00    +0.019 A 
ATOM      9  C   UNL     1      -2.876   3.852   0.931  0.00  0.00    +0.065 A 
ATOM     10  C   UNL     1      -1.562   3.188   0.998  0.00  0.00    +0.200 A 
ATOM     11  O   UNL     1      -0.724   3.510   1.822  0.00  0.00    -0.286 OA
ENDROOT
BRANCH   1  15
ATOM     12  C   UNL     1       2.399   0.034  -0.021  0.00  0.00    +0.120 A 
ATOM     13  C   UNL     1       1.207  -0.676  -0.013  0.00  0.00    +0.046 A 
ATOM     14  C   UNL     1       0.002  -0.004   0.002  0.00  0.00    +0.012 A 
ATOM     15  C   UNL     1      -0.017   1.390   0.010  0.00  0.00    -0.011 A 
ATOM     16  C   UNL     1       1.182   2.100   0.002  0.00  0.00    +0.012 A 
ATOM     17  C   UNL     1       2.384   1.422  -0.013  0.00  0.00    +0.046 A 
BRANCH  12  19
ATOM     18  C   UNL     1       4.773   0.163  -0.044  0.00  0.00    +0.277 C 
ATOM     19  O   UNL     1       3.584  -0.630  -0.036  0.00  0.00    -0.495 OA
ENDBRANCH  12  19
ENDBRANCH   1  15
BRANCH   6  20
ATOM     20  O   UNL     1      -6.569   5.659   0.678  0.00  0.00    -0.461 OA
BRANCH  20  21
ATOM     21  C   UNL     1      -6.838   6.704   1.616  0.00  0.00    +0.339 C 
ATOM     22  C   UNL     1      -8.319   7.084   1.545  0.00  0.00    +0.214 C 
ATOM     23  C   UNL     1      -8.633   7.623   0.146  0.00  0.00    +0.180 C 
ATOM     24  C   UNL     1      -7.713   8.811  -0.150  0.00  0.00    +0.177 C 
ATOM     25  C   UNL     1      -6.255   8.364  -0.014  0.00  0.00    +0.179 C 
ATOM     26  O   UNL     1      -6.039   7.846   1.300  0.00  0.00    -0.331 OA
BRANCH  24  27
ATOM     27  O   UNL     1      -7.949   9.277  -1.481  0.00  0.00    -0.386 OA
ATOM     28  H   UNL     1      -8.855   9.573  -1.639  0.00  0.00    +0.210 HD
ENDBRANCH  24  27
BRANCH  23  29
ATOM     29  O   UNL     1      -8.414   6.595  -0.823  0.00  0.00    -0.386 OA
ATOM     30  H   UNL     1      -8.960   5.808  -0.691  0.00  0.00    +0.210 HD
ENDBRANCH  23  29
BRANCH  22  31
ATOM     31  O   UNL     1      -8.601   8.091   2.519  0.00  0.00    -0.383 OA
ATOM     32  H   UNL     1      -8.420   7.820   3.429  0.00  0.00    +0.210 HD
ENDBRANCH  22  31
BRANCH  25  33
ATOM     33  C   UNL     1      -5.331   9.560  -0.249  0.00  0.00    +0.190 C 
BRANCH  33  34
ATOM     34  O   UNL     1      -3.971   9.120  -0.237  0.00  0.00    -0.392 OA
ATOM     35  H   UNL     1      -3.328   9.828  -0.381  0.00  0.00    +0.210 HD
ENDBRANCH  33  34
ENDBRANCH  25  33
ENDBRANCH  20  21
ENDBRANCH   6  20
TORSDOF 9
