REMARK  Name = ZINC39534446
REMARK  10 active torsions:
REMARK  status: ('A' for Active; 'I' for Inactive)
REMARK    1  A    between atoms: C_1  and  C_2
REMARK    2  A    between atoms: C_2  and  C_3
REMARK    3  A    between atoms: C_2  and  S_4
REMARK    4  A    between atoms: S_4  and  C_7
REMARK    5  A    between atoms: C_10  and  C_13
REMARK    6  A    between atoms: C_13  and  C_15
REMARK    7  A    between atoms: C_13  and  N_18
REMARK    8  A    between atoms: C_15  and  N_16
REMARK    9  A    between atoms: C_22  and  C_25
REMARK   10  A    between atoms: C_30  and  O_31
REMARK                            x       y       z     vdW  Elec       q    Type
REMARK                         _______ _______ _______ _____ _____    ______ ____
ROOT
ATOM      1  C   UNL     1      -4.224   1.575  -5.002  0.00  0.00    +0.103 C 
ENDROOT
BRANCH   1   2
ATOM      2  N   UNL     1      -3.432   1.313  -6.211  0.00  0.00    -0.297 NA
ATOM      3  C   UNL     1      -2.025   1.686  -6.010  0.00  0.00    +0.066 C 
ATOM      4  C   UNL     1      -1.224   1.344  -7.268  0.00  0.00    -0.066 C 
ATOM      5  N   UNL     1      -1.782   2.071  -8.416  0.00  0.00    +0.385 N 
ATOM      6  C   UNL     1      -3.180   1.670  -8.620  0.00  0.00    -0.023 C 
ATOM      7  C   UNL     1      -3.997   2.015  -7.373  0.00  0.00    +0.074 C 
ATOM      8  H   UNL     1      -1.739   3.063  -8.238  0.00  0.00    -0.085 HD
ATOM      9  H   UNL     1      -1.246   1.855  -9.243  0.00  0.00    -0.085 HD
BRANCH   6  10
ATOM     10  C   UNL     1      -3.745   2.403  -9.809  0.00  0.00    -0.019 A 
ATOM     11  C   UNL     1      -3.137   3.559 -10.261  0.00  0.00    +0.005 A 
ATOM     12  C   UNL     1      -3.655   4.233 -11.351  0.00  0.00    +0.000 A 
ATOM     13  C   UNL     1      -4.782   3.752 -11.993  0.00  0.00    +0.004 A 
ATOM     14  C   UNL     1      -5.393   2.596 -11.546  0.00  0.00    +0.045 A 
ATOM     15  C   UNL     1      -4.872   1.916 -10.454  0.00  0.00    +0.118 A 
BRANCH  15  16
ATOM     16  O   UNL     1      -5.467   0.776 -10.016  0.00  0.00    -0.507 OA
ATOM     17  H   UNL     1      -6.154   0.921  -9.351  0.00  0.00    +0.292 HD
ENDBRANCH  15  16
ENDBRANCH   6  10
ENDBRANCH   1   2
BRANCH   1  21
ATOM     18  C   UNL     1      -2.649  -0.699  -1.747  0.00  0.00    +0.088 A 
ATOM     19  C   UNL     1      -3.079   0.599  -1.540  0.00  0.00    +0.027 A 
ATOM     20  C   UNL     1      -3.589   1.334  -2.593  0.00  0.00    +0.007 A 
ATOM     21  C   UNL     1      -3.668   0.773  -3.854  0.00  0.00    -0.029 A 
ATOM     22  C   UNL     1      -3.237  -0.524  -4.061  0.00  0.00    +0.007 A 
ATOM     23  C   UNL     1      -2.723  -1.258  -3.009  0.00  0.00    +0.027 A 
BRANCH  18  24
ATOM     24  S   UNL     1      -1.999  -1.637  -0.404  0.00  0.00    -0.001 S 
ATOM     25  O   UNL     1      -2.232  -2.992  -0.762  0.00  0.00    -0.169 OA
ATOM     26  O   UNL     1      -2.605  -1.079   0.754  0.00  0.00    -0.169 OA
BRANCH  24  28
ATOM     27  C   UNL     1       0.006   0.214  -0.212  0.00  0.00    +0.032 C 
ATOM     28  C   UNL     1      -0.219  -1.286  -0.409  0.00  0.00    +0.130 C 
ATOM     29  C   UNL     1       0.455  -2.056   0.728  0.00  0.00    +0.032 C 
ENDBRANCH  24  28
ENDBRANCH  18  24
ENDBRANCH   1  21
BRANCH   1  30
ATOM     30  C   UNL     1      -5.679   1.171  -5.248  0.00  0.00    +0.140 C 
BRANCH  30  31
ATOM     31  N   UNL     1      -6.488   1.509  -4.069  0.00  0.00    -0.157 NA
ATOM     32  F   UNL     1      -7.707   1.076  -4.201  0.00  0.00    -0.136 F 
ATOM     33  H   UNL     1      -6.474   2.502  -3.894  0.00  0.00    +0.159 HD
ENDBRANCH  30  31
ENDBRANCH   1  30
TORSDOF 8
