REMARK  Name = ZINC24814322
REMARK  10 active torsions:
REMARK  status: ('A' for Active; 'I' for Inactive)
REMARK    1  A    between atoms: C_1  and  C_2
REMARK    2  A    between atoms: C_3  and  C_30
REMARK    3  A    between atoms: C_4  and  C_29
REMARK    4  A    between atoms: C_7  and  C_8
REMARK    5  A    between atoms: C_8  and  C_10
REMARK    6  A    between atoms: C_10  and  C_12
REMARK    7  A    between atoms: C_10  and  N_13
REMARK    8  A    between atoms: N_16  and  S_19
REMARK    9  A    between atoms: S_19  and  C_22
REMARK   10  A    between atoms: C_30  and  C_32
REMARK                            x       y       z     vdW  Elec       q    Type
REMARK                         _______ _______ _______ _____ _____    ______ ____
ROOT
ATOM      1  N   UNL     1      -2.409   1.238   0.651  0.00  0.00    +0.388 N 
ATOM      2  C   UNL     1      -2.410   0.508  -0.624  0.00  0.00    -0.060 C 
ATOM      3  C   UNL     1      -3.522  -0.546  -0.604  0.00  0.00    +0.091 C 
ATOM      4  N   UNL     1      -4.790   0.118  -0.266  0.00  0.00    -0.180 NA
ATOM      5  C   UNL     1      -4.829   0.979   0.925  0.00  0.00    +0.091 C 
ATOM      6  C   UNL     1      -3.666   1.974   0.845  0.00  0.00    -0.060 C 
ATOM      7  H   UNL     1      -2.326   0.498   1.460  0.00  0.00    -0.081 HD
ENDROOT
BRANCH   4   8
ATOM      8  S   UNL     1      -6.138  -0.099  -1.202  0.00  0.00    +0.061 S 
ATOM      9  O   UNL     1      -5.969  -1.337  -1.878  0.00  0.00    -0.153 OA
ATOM     10  O   UNL     1      -7.258   0.167  -0.369  0.00  0.00    -0.153 OA
BRANCH   8  11
ATOM     11  C   UNL     1      -6.121   1.156  -2.439  0.00  0.00    +0.107 A 
ATOM     12  C   UNL     1      -6.739   2.369  -2.201  0.00  0.00    +0.028 A 
ATOM     13  C   UNL     1      -6.721   3.356  -3.169  0.00  0.00    +0.003 A 
ATOM     14  C   UNL     1      -6.095   3.126  -4.380  0.00  0.00    +0.015 A 
ATOM     15  C   UNL     1      -5.481   1.910  -4.620  0.00  0.00    +0.020 A 
ATOM     16  C   UNL     1      -5.495   0.925  -3.649  0.00  0.00    +0.043 A 
ATOM     17 BR   UNL     1      -4.625   1.594  -6.277  0.00  0.00    -0.050 Br
ENDBRANCH   8  11
ENDBRANCH   4   8
BRANCH   1  18
ATOM     18  C   UNL     1      -1.252   2.139   0.740  0.00  0.00    +0.003 C 
ATOM     19  C   UNL     1      -1.226   2.800   2.120  0.00  0.00    -0.005 C 
BRANCH  18  20
ATOM     20  C   UNL     1       0.016   1.351   0.537  0.00  0.00    +0.166 C 
ATOM     21  O   UNL     1      -0.005   0.139   0.608  0.00  0.00    -0.292 OA
BRANCH  20  28
ATOM     22  C   UNL     1       2.749  -0.050   0.067  0.00  0.00    +0.047 C 
ATOM     23  C   UNL     1       2.453   1.427   0.044  0.00  0.00    -0.012 A 
ATOM     24  C   UNL     1       3.378   2.468  -0.199  0.00  0.00    +0.041 A 
ATOM     25  C   UNL     1       2.677   3.663  -0.125  0.00  0.00    +0.024 A 
ATOM     26  N   UNL     1       1.392   3.389   0.141  0.00  0.00    -0.355 N 
ATOM     27  H   UNL     1       0.663   4.208   0.233  0.00  0.00    +0.166 HD
ATOM     28  C   UNL     1       1.230   2.023   0.256  0.00  0.00    +0.084 A 
ATOM     29  C   UNL     1       3.260   5.038  -0.319  0.00  0.00    +0.064 C 
BRANCH  24  30
ATOM     30  C   UNL     1       4.810   2.314  -0.477  0.00  0.00    +0.162 C 
ATOM     31  O   UNL     1       5.607   2.301   0.438  0.00  0.00    -0.292 OA
ATOM     32  C   UNL     1       5.291   2.173  -1.898  0.00  0.00    +0.091 C 
ENDBRANCH  24  30
ENDBRANCH  20  28
ENDBRANCH  18  20
ENDBRANCH   1  18
TORSDOF 6
