REMARK  Name = ZINC18153101
REMARK  7 active torsions:
REMARK  status: ('A' for Active; 'I' for Inactive)
REMARK    1  A    between atoms: C_6  and  C_7
REMARK    2  A    between atoms: C_7  and  C_8
REMARK    3  A    between atoms: C_13  and  O_14
REMARK    4  A    between atoms: N_16  and  C_17
REMARK    5  A    between atoms: C_17  and  C_18
REMARK    6  A    between atoms: C_18  and  C_19
REMARK    7  A    between atoms: C_19  and  C_20
REMARK                            x       y       z     vdW  Elec       q    Type
REMARK                         _______ _______ _______ _____ _____    ______ ____
ROOT
ATOM      1  C   UNL     1      -1.273  -0.766   0.124  0.00  0.00    +0.053 C 
ATOM      2  N   UNL     1      -2.353  -0.047   0.001  0.00  0.00    -0.383 N 
ATOM      3  H   UNL     1      -3.215  -0.480  -0.099  0.00  0.00    +0.160 HD
ENDROOT
BRANCH   1   9
ATOM      4  C   UNL     1       1.006  -0.442   1.080  0.00  0.00    +0.011 A 
ATOM      5  C   UNL     1       2.243   0.168   1.064  0.00  0.00    +0.020 A 
ATOM      6  C   UNL     1       2.544   1.105   0.088  0.00  0.00    +0.041 A 
ATOM      7  C   UNL     1       1.605   1.434  -0.875  0.00  0.00    +0.020 A 
ATOM      8  C   UNL     1       0.365   0.830  -0.868  0.00  0.00    +0.011 A 
ATOM      9  C   UNL     1       0.057  -0.114   0.112  0.00  0.00    -0.001 A 
ATOM     10 CL   UNL     1       4.102   1.869   0.074  0.00  0.00    -0.084 Cl
ENDBRANCH   1   9
BRANCH   1  11
ATOM     11  C   UNL     1      -1.375  -2.234   0.276  0.00  0.00    +0.043 A 
ATOM     12  C   UNL     1      -1.959  -2.782   1.419  0.00  0.00    +0.052 A 
ATOM     13  C   UNL     1      -2.052  -4.153   1.554  0.00  0.00    +0.124 A 
ATOM     14  C   UNL     1      -1.566  -4.987   0.559  0.00  0.00    +0.042 A 
ATOM     15  C   UNL     1      -0.986  -4.455  -0.576  0.00  0.00    +0.049 A 
ATOM     16  C   UNL     1      -0.892  -3.081  -0.729  0.00  0.00    +0.126 A 
ATOM     17  F   UNL     1      -2.616  -4.683   2.661  0.00  0.00    -0.205 F 
BRANCH  16  18
ATOM     18  O   UNL     1      -0.328  -2.557  -1.848  0.00  0.00    -0.506 OA
ATOM     19  H   UNL     1       0.627  -2.420  -1.779  0.00  0.00    +0.292 HD
ENDBRANCH  16  18
ENDBRANCH   1  11
BRANCH   2  20
ATOM     20  C   UNL     1      -2.264   1.415   0.015  0.00  0.00    +0.113 C 
BRANCH  20  21
ATOM     21  C   UNL     1      -2.722   1.967  -1.337  0.00  0.00    +0.030 C 
BRANCH  21  22
ATOM     22  C   UNL     1      -2.630   3.494  -1.322  0.00  0.00    +0.097 C 
BRANCH  22  23
ATOM     23  C   UNL     1      -3.080   4.037  -2.654  0.00  0.00    +0.211 C 
ATOM     24  O   UNL     1      -3.440   3.278  -3.528  0.00  0.00    -0.276 OA
ATOM     25  N   UNL     1      -3.083   5.367  -2.873  0.00  0.00    -0.329 N 
ATOM     26  H   UNL     1      -2.796   5.974  -2.173  0.00  0.00    +0.145 HD
ATOM     27  H   UNL     1      -3.374   5.717  -3.730  0.00  0.00    +0.145 HD
ENDBRANCH  22  23
ENDBRANCH  21  22
ENDBRANCH  20  21
ENDBRANCH   2  20
TORSDOF 7
