REMARK  Name = ZINC03271801
REMARK  7 active torsions:
REMARK  status: ('A' for Active; 'I' for Inactive)
REMARK    1  A    between atoms: C_1  and  O_2
REMARK    2  A    between atoms: O_2  and  C_3
REMARK    3  A    between atoms: C_6  and  N_11
REMARK    4  A    between atoms: C_8  and  O_9
REMARK    5  A    between atoms: O_9  and  C_10
REMARK    6  A    between atoms: N_22  and  S_23
REMARK    7  A    between atoms: S_23  and  C_26
REMARK                            x       y       z     vdW  Elec       q    Type
REMARK                         _______ _______ _______ _____ _____    ______ ____
ROOT
ATOM      1  N   UNL     1       1.200  -3.740  -4.278  0.00  0.00    -0.297 N 
ATOM      2  C   UNL     1       2.359  -3.191  -3.749  0.00  0.00    +0.165 A 
ATOM      3  C   UNL     1       2.380  -2.759  -2.400  0.00  0.00    +0.179 A 
ATOM      4  N   UNL     1       3.472  -2.232  -1.887  0.00  0.00    -0.226 NA
ATOM      5  C   UNL     1       4.573  -2.111  -2.643  0.00  0.00    +0.091 A 
ATOM      6  C   UNL     1       5.751  -1.556  -2.117  0.00  0.00    +0.030 A 
ATOM      7  C   UNL     1       6.855  -1.439  -2.906  0.00  0.00    +0.002 A 
ATOM      8  C   UNL     1       6.833  -1.863  -4.232  0.00  0.00    +0.002 A 
ATOM      9  C   UNL     1       5.708  -2.406  -4.775  0.00  0.00    +0.030 A 
ATOM     10  C   UNL     1       4.552  -2.542  -3.991  0.00  0.00    +0.091 A 
ATOM     11  N   UNL     1       3.432  -3.073  -4.503  0.00  0.00    -0.227 NA
ATOM     12  N   UNL     1       1.243  -2.888  -1.617  0.00  0.00    -0.197 N 
ATOM     13  H   UNL     1       0.434  -3.902  -3.705  0.00  0.00    +0.154 HD
ATOM     14  H   UNL     1       0.436  -3.273  -1.994  0.00  0.00    +0.175 HD
ENDROOT
BRANCH   1  18
ATOM     15  C   UNL     1       1.013  -4.688  -8.336  0.00  0.00    +0.162 A 
ATOM     16  C   UNL     1       1.761  -3.602  -7.911  0.00  0.00    +0.051 A 
ATOM     17  C   UNL     1       1.818  -3.284  -6.568  0.00  0.00    +0.027 A 
ATOM     18  C   UNL     1       1.136  -4.059  -5.639  0.00  0.00    +0.036 A 
ATOM     19  C   UNL     1       0.386  -5.149  -6.062  0.00  0.00    +0.072 A 
ATOM     20  C   UNL     1       0.324  -5.464  -7.409  0.00  0.00    +0.163 A 
BRANCH  15  22
ATOM     21  C   UNL     1       1.685  -4.157 -10.556  0.00  0.00    +0.277 C 
ATOM     22  O   UNL     1       0.953  -4.996  -9.660  0.00  0.00    -0.491 OA
ENDBRANCH  15  22
BRANCH  20  23
ATOM     23  O   UNL     1      -0.410  -6.531  -7.825  0.00  0.00    -0.491 OA
ATOM     24  C   UNL     1      -1.091  -7.282  -6.819  0.00  0.00    +0.277 C 
ENDBRANCH  20  23
ENDBRANCH   1  18
BRANCH  12  25
ATOM     25  S   UNL     1       1.263  -2.385  -0.040  0.00  0.00    +0.074 S 
ATOM     26  O   UNL     1       2.430  -2.942   0.550  0.00  0.00    -0.150 OA
ATOM     27  O   UNL     1      -0.039  -2.622   0.478  0.00  0.00    -0.150 OA
BRANCH  25  28
ATOM     28  C   UNL     1       1.490  -0.638  -0.052  0.00  0.00    +0.109 A 
ATOM     29  C   UNL     1       0.392   0.201  -0.092  0.00  0.00    +0.030 A 
ATOM     30  C   UNL     1       0.569   1.572  -0.101  0.00  0.00    +0.017 A 
ATOM     31  C   UNL     1       1.845   2.104  -0.072  0.00  0.00    +0.018 A 
ATOM     32  C   UNL     1       2.944   1.264  -0.033  0.00  0.00    +0.017 A 
ATOM     33  C   UNL     1       2.765  -0.106  -0.023  0.00  0.00    +0.030 A 
ATOM     34 BR   UNL     1       2.088   3.979  -0.085  0.00  0.00    -0.050 Br
ENDBRANCH  25  28
ENDBRANCH  12  25
TORSDOF 5
