REMARK  Name = ZINC63279663
REMARK  6 active torsions:
REMARK  status: ('A' for Active; 'I' for Inactive)
REMARK    1  A    between atoms: C_1  and  C_2
REMARK    2  A    between atoms: C_2  and  C_4
REMARK    3  A    between atoms: C_2  and  N_14
REMARK    4  A    between atoms: C_4  and  C_5
REMARK    5  A    between atoms: C_15  and  C_17
REMARK    6  A    between atoms: C_17  and  N_18
REMARK                            x       y       z     vdW  Elec       q    Type
REMARK                         _______ _______ _______ _____ _____    ______ ____
ROOT
ATOM      1  N   UNL     1       0.711  -0.489   1.189  0.00  0.00    -0.311 N 
ATOM      2  C   UNL     1       0.051  -0.633   2.355  0.00  0.00    +0.232 C 
ATOM      3  O   UNL     1      -1.129  -0.361   2.423  0.00  0.00    -0.274 OA
ATOM      4  H   UNL     1       1.654  -0.707   1.135  0.00  0.00    +0.149 HD
ENDROOT
BRANCH   1   6
ATOM      5  C   UNL     1      -0.019   1.526   0.010  0.00  0.00    +0.028 C 
ATOM      6  C   UNL     1       0.002  -0.004   0.002  0.00  0.00    +0.074 C 
BRANCH   6   7
ATOM      7  C   UNL     1       0.718  -0.497  -1.257  0.00  0.00    +0.055 C 
BRANCH   7   8
ATOM      8  C   UNL     1       0.632  -2.000  -1.327  0.00  0.00    -0.040 C 
ATOM      9  C   UNL     1      -0.283  -2.731  -2.005  0.00  0.00    -0.001 A 
ATOM     10  C   UNL     1      -1.427  -2.360  -2.845  0.00  0.00    +0.010 A 
ATOM     11  C   UNL     1      -2.177  -3.338  -3.402  0.00  0.00    +0.001 A 
ATOM     12  C   UNL     1      -1.890  -4.695  -3.196  0.00  0.00    +0.002 A 
ATOM     13  C   UNL     1      -0.855  -5.114  -2.437  0.00  0.00    +0.026 A 
ATOM     14  C   UNL     1       0.000  -4.170  -1.804  0.00  0.00    +0.043 A 
ATOM     15  N   UNL     1       1.049  -4.323  -1.032  0.00  0.00    -0.380 N 
ATOM     16  C   UNL     1       1.554  -2.997  -0.661  0.00  0.00    +0.144 C 
ATOM     17  H   UNL     1       1.429  -5.171  -0.756  0.00  0.00    +0.160 HD
ENDBRANCH   7   8
ENDBRANCH   6   7
ENDBRANCH   1   6
BRANCH   2  18
ATOM     18  C   UNL     1       0.780  -1.133   3.576  0.00  0.00    +0.224 C 
BRANCH  18  19
ATOM     19  N   UNL     1      -0.150  -1.201   4.706  0.00  0.00    -0.208 N 
ATOM     20  C   UNL     1      -0.837  -2.345   4.926  0.00  0.00    +0.264 C 
ATOM     21  O   UNL     1      -0.627  -3.344   4.264  0.00  0.00    -0.269 OA
ATOM     22  C   UNL     1      -1.850  -2.338   5.999  0.00  0.00    +0.060 A 
ATOM     23  C   UNL     1      -2.444  -3.495   6.486  0.00  0.00    +0.015 A 
ATOM     24  C   UNL     1      -3.387  -3.399   7.490  0.00  0.00    +0.001 A 
ATOM     25  C   UNL     1      -3.739  -2.163   8.010  0.00  0.00    +0.002 A 
ATOM     26  C   UNL     1      -3.153  -1.005   7.535  0.00  0.00    +0.025 A 
ATOM     27  C   UNL     1      -2.207  -1.083   6.531  0.00  0.00    +0.055 A 
ATOM     28  N   UNL     1      -1.566   0.032   6.004  0.00  0.00    -0.264 N 
ATOM     29  N   UNL     1      -0.296  -0.113   5.511  0.00  0.00    -0.158 NA
ATOM     30  H   UNL     1      -2.008   0.895   5.989  0.00  0.00    +0.168 HD
ATOM     31  H   UNL     1       0.387  -0.119   6.254  0.00  0.00    +0.168 HD
ENDBRANCH  18  19
ENDBRANCH   2  18
TORSDOF 5
