REMARK  Name = ZINC25059308
REMARK  10 active torsions:
REMARK  status: ('A' for Active; 'I' for Inactive)
REMARK    1  A    between atoms: C_1  and  C_2
REMARK    2  A    between atoms: C_2  and  O_3
REMARK    3  A    between atoms: O_3  and  C_4
REMARK    4  A    between atoms: C_4  and  C_6
REMARK    5  A    between atoms: C_7  and  C_28
REMARK    6  A    between atoms: C_11  and  C_15
REMARK    7  A    between atoms: C_15  and  N_16
REMARK    8  A    between atoms: N_16  and  C_17
REMARK    9  A    between atoms: C_17  and  C_19
REMARK   10  A    between atoms: C_17  and  C_20
REMARK                            x       y       z     vdW  Elec       q    Type
REMARK                         _______ _______ _______ _____ _____    ______ ____
ROOT
ATOM      1  C   UNL     1      -8.562   5.178  -5.065  0.00  0.00    +0.102 A 
ATOM      2  C   UNL     1      -8.841   4.833  -3.777  0.00  0.00    -0.017 A 
ATOM      3  C   UNL     1      -7.977   3.978  -3.081  0.00  0.00    +0.051 A 
ATOM      4  C   UNL     1      -8.073   3.492  -1.742  0.00  0.00    +0.128 A 
ATOM      5  N   UNL     1      -7.135   2.680  -1.283  0.00  0.00    -0.219 NA
ATOM      6  C   UNL     1      -6.102   2.308  -2.018  0.00  0.00    +0.116 A 
ATOM      7  N   UNL     1      -5.957   2.722  -3.262  0.00  0.00    -0.227 NA
ATOM      8  C   UNL     1      -6.845   3.529  -3.805  0.00  0.00    +0.114 A 
ATOM      9  S   UNL     1      -7.038   4.307  -5.388  0.00  0.00    -0.062 S 
ATOM     10  N   UNL     1      -9.133   3.860  -0.939  0.00  0.00    -0.343 N 
ATOM     11  C   UNL     1     -10.077   5.371  -3.102  0.00  0.00    +0.046 C 
ATOM     12  H   UNL     1      -9.199   3.481   0.091  0.00  0.00    +0.144 HD
ATOM     13  H   UNL     1      -9.911   4.532  -1.329  0.00  0.00    +0.144 HD
ENDROOT
BRANCH   1  14
ATOM     14  C   UNL     1      -9.325   6.050  -5.964  0.00  0.00    +0.346 C 
ATOM     15  O   UNL     1     -10.354   6.569  -5.578  0.00  0.00    -0.244 OA
BRANCH  14  16
ATOM     16  O   UNL     1      -8.884   6.275  -7.218  0.00  0.00    -0.461 OA
BRANCH  16  18
ATOM     17  C   UNL     1      -9.037   7.284  -9.430  0.00  0.00    +0.048 C 
ATOM     18  C   UNL     1      -9.690   7.149  -8.053  0.00  0.00    +0.229 C 
ENDBRANCH  16  18
ENDBRANCH  14  16
ENDBRANCH   1  14
BRANCH   6  19
ATOM     19  C   UNL     1      -5.071   1.384  -1.424  0.00  0.00    -0.004 C 
BRANCH  19  20
ATOM     20  N   UNL     1      -4.014   2.177  -0.783  0.00  0.00    +0.388 N 
ATOM     21  H   UNL     1      -3.537   2.827  -1.532  0.00  0.00    -0.084 HD
ATOM     22  H   UNL     1      -4.453   2.797   0.013  0.00  0.00    -0.084 HD
BRANCH  20  23
ATOM     23  C   UNL     1      -2.988   1.308  -0.191  0.00  0.00    -0.042 C 
ATOM     24  C   UNL     1      -3.428   0.881   1.211  0.00  0.00    -0.009 C 
BRANCH  23  25
ATOM     25  C   UNL     1      -1.685   2.059  -0.102  0.00  0.00    -0.043 A 
ATOM     26  C   UNL     1      -1.685   3.439  -0.035  0.00  0.00    +0.003 A 
ATOM     27  C   UNL     1      -0.489   4.128   0.042  0.00  0.00    +0.000 A 
ATOM     28  C   UNL     1       0.708   3.436   0.057  0.00  0.00    +0.001 A 
ATOM     29  C   UNL     1       0.710   2.056  -0.005  0.00  0.00    +0.020 A 
ATOM     30  C   UNL     1      -0.487   1.366  -0.082  0.00  0.00    +0.043 A 
ATOM     31 CL   UNL     1      -0.486  -0.368  -0.160  0.00  0.00    -0.083 Cl
ENDBRANCH  23  25
ENDBRANCH  20  23
ENDBRANCH  19  20
ENDBRANCH   6  19
TORSDOF 7
