REMARK  Name = ZINC09970364
REMARK  13 active torsions:
REMARK  status: ('A' for Active; 'I' for Inactive)
REMARK    1  A    between atoms: C_1  and  C_2
REMARK    2  A    between atoms: N_4  and  C_5
REMARK    3  A    between atoms: C_5  and  C_30
REMARK    4  A    between atoms: C_6  and  C_28
REMARK    5  A    between atoms: C_6  and  O_29
REMARK    6  A    between atoms: C_7  and  C_26
REMARK    7  A    between atoms: C_7  and  O_27
REMARK    8  A    between atoms: C_8  and  C_23
REMARK    9  A    between atoms: C_8  and  C_24
REMARK   10  A    between atoms: C_10  and  C_11
REMARK   11  A    between atoms: C_10  and  O_12
REMARK   12  A    between atoms: O_12  and  C_13
REMARK   13  A    between atoms: C_24  and  O_25
REMARK                            x       y       z     vdW  Elec       q    Type
REMARK                         _______ _______ _______ _____ _____    ______ ____
ROOT
ATOM      1  C   UNL     1       1.497   1.824   0.109  0.00  0.00    +0.128 C 
ATOM      2  C   UNL     1       2.019   0.857   1.162  0.00  0.00    +0.121 C 
ATOM      3  C   UNL     1       1.480  -0.556   1.001  0.00  0.00    +0.124 C 
ATOM      4  C   UNL     1       0.002  -0.628   0.640  0.00  0.00    +0.125 C 
ATOM      5  O   UNL     1      -0.373   0.346  -0.315  0.00  0.00    -0.326 OA
ATOM      6  C   UNL     1      -0.011   1.698  -0.092  0.00  0.00    +0.234 C 
ATOM      7  C   UNL     1      -0.398   2.515  -1.341  0.00  0.00    +0.091 C 
ATOM      8  C   UNL     1      -0.868  -0.537   1.896  0.00  0.00    +0.047 C 
ATOM      9  C   UNL     1       1.700  -1.321   2.318  0.00  0.00    +0.047 C 
ATOM     10  C   UNL     1       1.734   1.393   2.569  0.00  0.00    +0.047 C 
ATOM     11  C   UNL     1       1.819   3.262   0.547  0.00  0.00    +0.041 C 
ENDROOT
BRANCH   1  15
ATOM     12  C   UNL     1       4.220   1.398  -2.552  0.00  0.00    +0.109 C 
ATOM     13  C   UNL     1       3.502   1.777  -1.282  0.00  0.00    +0.211 C 
ATOM     14  O   UNL     1       4.119   2.269  -0.360  0.00  0.00    -0.276 OA
ATOM     15  N   UNL     1       2.175   1.570  -1.170  0.00  0.00    -0.302 N 
ATOM     16  H   UNL     1       1.668   1.254  -1.934  0.00  0.00    +0.150 HD
ENDBRANCH   1  15
BRANCH   3  17
ATOM     17  O   UNL     1       2.235  -1.229  -0.022  0.00  0.00    -0.383 OA
ATOM     18  H   UNL     1       2.005  -2.162  -0.131  0.00  0.00    +0.210 HD
ENDBRANCH   3  17
BRANCH   2  19
ATOM     19  O   UNL     1       3.458   0.794   1.019  0.00  0.00    -0.384 OA
ATOM     20  H   UNL     1       3.894   0.228   1.670  0.00  0.00    +0.210 HD
ENDBRANCH   2  19
BRANCH   6  21
ATOM     21  O   UNL     1      -0.712   2.249   1.023  0.00  0.00    -0.458 OA
BRANCH  21  22
ATOM     22  C   UNL     1      -2.067   2.175   0.997  0.00  0.00    +0.132 A 
ATOM     23  C   UNL     1      -2.700   1.497  -0.007  0.00  0.00    +0.046 A 
ATOM     24  C   UNL     1      -4.089   1.412  -0.048  0.00  0.00    +0.004 A 
ATOM     25  C   UNL     1      -4.857   2.001   0.910  0.00  0.00    +0.009 A 
ATOM     26  C   UNL     1      -4.245   2.708   1.959  0.00  0.00    -0.014 A 
ATOM     27  C   UNL     1      -2.831   2.792   2.008  0.00  0.00    +0.024 A 
ATOM     28  C   UNL     1      -2.220   3.504   3.053  0.00  0.00    +0.012 A 
ATOM     29  C   UNL     1      -2.990   4.091   4.009  0.00  0.00    +0.001 A 
ATOM     30  C   UNL     1      -4.380   4.004   3.965  0.00  0.00    +0.001 A 
ATOM     31  C   UNL     1      -5.007   3.328   2.964  0.00  0.00    +0.008 A 
ENDBRANCH  21  22
ENDBRANCH   6  21
BRANCH   4  32
ATOM     32  C   UNL     1      -0.254  -2.018   0.011  0.00  0.00    +0.193 C 
BRANCH  32  33
ATOM     33  O   UNL     1      -1.639  -2.146  -0.315  0.00  0.00    -0.392 OA
ATOM     34  H   UNL     1      -1.873  -2.995  -0.715  0.00  0.00    +0.210 HD
ENDBRANCH  32  33
ENDBRANCH   4  32
TORSDOF 7
