REMARK  Name = ZINC39560785
REMARK  10 active torsions:
REMARK  status: ('A' for Active; 'I' for Inactive)
REMARK    1  A    between atoms: C_1  and  C_2
REMARK    2  A    between atoms: C_2  and  C_3
REMARK    3  A    between atoms: C_2  and  N_4
REMARK    4  A    between atoms: N_4  and  C_5
REMARK    5  A    between atoms: C_8  and  C_30
REMARK    6  A    between atoms: C_24  and  C_26
REMARK    7  A    between atoms: C_26  and  O_28
REMARK    8  A    between atoms: O_28  and  C_29
REMARK    9  A    between atoms: C_33  and  O_36
REMARK   10  A    between atoms: O_36  and  C_37
REMARK                            x       y       z     vdW  Elec       q    Type
REMARK                         _______ _______ _______ _____ _____    ______ ____
ROOT
ATOM      1  C   UNL     1      -3.128  -0.324  -0.749  0.00  0.00    -0.068 C 
ATOM      2  C   UNL     1      -2.126  -0.909  -1.748  0.00  0.00    +0.008 C 
ATOM      3  C   UNL     1      -2.520  -0.493  -3.168  0.00  0.00    +0.087 C 
ATOM      4  N   UNL     1      -3.875  -0.977  -3.458  0.00  0.00    -0.274 NA
ATOM      5  C   UNL     1      -4.857  -0.372  -2.545  0.00  0.00    +0.106 C 
ATOM      6  C   UNL     1      -4.540  -0.796  -1.110  0.00  0.00    +0.009 C 
ATOM      7  C   UNL     1      -6.229  -0.864  -2.932  0.00  0.00    +0.063 C 
ATOM      8  N   UNL     1      -7.336  -0.824  -2.235  0.00  0.00    -0.250 NA
ATOM      9  C   UNL     1      -8.330  -1.368  -2.949  0.00  0.00    +0.068 C 
ATOM     10  C   UNL     1      -9.677  -1.551  -2.638  0.00  0.00    +0.028 C 
ATOM     11  C   UNL     1     -10.493  -2.165  -3.610  0.00  0.00    -0.002 C 
ATOM     12  C   UNL     1     -10.048  -2.575  -4.793  0.00  0.00    -0.022 C 
ATOM     13  C   UNL     1      -8.628  -2.448  -5.267  0.00  0.00    +0.064 C 
ATOM     14  C   UNL     1      -7.795  -1.788  -4.205  0.00  0.00    -0.013 C 
ATOM     15  C   UNL     1      -6.492  -1.468  -4.182  0.00  0.00    -0.017 C 
ATOM     16  C   UNL     1      -5.428  -1.666  -5.233  0.00  0.00    +0.067 C 
ATOM     17  C   UNL     1      -4.232  -0.775  -4.866  0.00  0.00    +0.172 C 
ENDROOT
BRANCH   3  18
ATOM     18  C   UNL     1      -1.550  -1.089  -4.154  0.00  0.00    -0.030 A 
ATOM     19  C   UNL     1      -1.687  -2.408  -4.546  0.00  0.00    +0.009 A 
ATOM     20  C   UNL     1      -0.798  -2.958  -5.450  0.00  0.00    +0.046 A 
ATOM     21  C   UNL     1       0.232  -2.185  -5.965  0.00  0.00    +0.130 A 
ATOM     22  C   UNL     1       0.367  -0.861  -5.571  0.00  0.00    +0.046 A 
ATOM     23  C   UNL     1      -0.527  -0.315  -4.671  0.00  0.00    +0.009 A 
BRANCH  21  24
ATOM     24  O   UNL     1       1.108  -2.723  -6.854  0.00  0.00    -0.406 OA
BRANCH  24  25
ATOM     25  C   UNL     1       2.143  -1.868  -7.343  0.00  0.00    +0.575 C 
ATOM     26  F   UNL     1       2.923  -1.421  -6.271  0.00  0.00    -0.133 F 
ATOM     27  F   UNL     1       2.948  -2.578  -8.241  0.00  0.00    -0.133 F 
ATOM     28  F   UNL     1       1.573  -0.770  -7.995  0.00  0.00    -0.133 F 
ENDBRANCH  24  25
ENDBRANCH  21  24
ENDBRANCH   3  18
BRANCH   1  29
ATOM     29  N   UNL     1      -2.791  -0.779   0.607  0.00  0.00    +0.383 N 
ATOM     30  H   UNL     1      -2.748  -1.787   0.622  0.00  0.00    -0.085 HD
ATOM     31  H   UNL     1      -3.497  -0.462   1.253  0.00  0.00    -0.085 HD
BRANCH  29  33
ATOM     32  C   UNL     1      -1.585   1.296   1.095  0.00  0.00    -0.014 C 
ATOM     33  C   UNL     1      -1.486  -0.228   0.998  0.00  0.00    -0.078 C 
ATOM     34  C   UNL     1      -1.078  -0.800   2.357  0.00  0.00    -0.014 C 
ENDBRANCH  29  33
ENDBRANCH   1  29
BRANCH  17  35
ATOM     35  C   UNL     1      -4.598   0.670  -5.087  0.00  0.00    +0.325 C 
ATOM     36  O   UNL     1      -5.377   1.217  -4.343  0.00  0.00    -0.249 OA
BRANCH  35  37
ATOM     37  O   UNL     1      -4.058   1.349  -6.111  0.00  0.00    -0.467 OA
ATOM     38  C   UNL     1      -4.449   2.716  -6.261  0.00  0.00    +0.280 C 
ENDBRANCH  35  37
ENDBRANCH  17  35
TORSDOF 7
