REMARK  Name = ZINC21968972
REMARK  5 active torsions:
REMARK  status: ('A' for Active; 'I' for Inactive)
REMARK    1  A    between atoms: C_1  and  C_2
REMARK    2  A    between atoms: C_7  and  C_15
REMARK    3  A    between atoms: C_9  and  N_10
REMARK    4  A    between atoms: N_10  and  C_11
REMARK    5  A    between atoms: C_11  and  C_12
REMARK                            x       y       z     vdW  Elec       q    Type
REMARK                         _______ _______ _______ _____ _____    ______ ____
ROOT
ATOM      1  N   UNL     1       1.392   3.520   0.013  0.00  0.00    +0.387 N 
ATOM      2  H   UNL     1       2.168   4.047  -0.563  0.00  0.00    -0.085 HD
ATOM      3  H   UNL     1       0.407   3.717  -0.435  0.00  0.00    -0.085 HD
ENDROOT
BRANCH   1  10
ATOM      4  C   UNL     1      -0.669   1.655  -0.807  0.00  0.00    +0.006 C 
ATOM      5  C   UNL     1       0.365   1.312   0.267  0.00  0.00    -0.028 C 
ATOM      6  C   UNL     1       0.645  -0.192   0.244  0.00  0.00    +0.002 C 
ATOM      7  C   UNL     1       1.188  -0.589  -1.130  0.00  0.00    +0.000 C 
ATOM      8  C   UNL     1       2.484   0.176  -1.407  0.00  0.00    +0.002 C 
ATOM      9  C   UNL     1       2.204   1.680  -1.384  0.00  0.00    -0.028 C 
ATOM     10  C   UNL     1       1.661   2.076  -0.009  0.00  0.00    -0.065 C 
ATOM     11  C   UNL     1       3.500   2.444  -1.661  0.00  0.00    +0.006 C 
ENDBRANCH   1  10
BRANCH   1  12
ATOM     12  C   UNL     1       1.396   4.035   1.389  0.00  0.00    +0.015 C 
BRANCH  12  13
ATOM     13  C   UNL     1       1.249   5.535   1.364  0.00  0.00    +0.193 C 
ATOM     14  O   UNL     1       1.151   6.117   0.304  0.00  0.00    -0.278 OA
ATOM     15  N   UNL     1       1.227   6.229   2.519  0.00  0.00    -0.331 N 
ATOM     16  H   UNL     1       1.119   7.324   2.501  0.00  0.00    +0.145 HD
ATOM     17  H   UNL     1       1.316   5.701   3.480  0.00  0.00    +0.145 HD
ENDBRANCH  12  13
ENDBRANCH   1  12
TORSDOF 3
