REMARK  Name = ZINC39916294
REMARK  6 active torsions:
REMARK  status: ('A' for Active; 'I' for Inactive)
REMARK    1  A    between atoms: C_1  and  C_2
REMARK    2  A    between atoms: C_2  and  O_3
REMARK    3  A    between atoms: O_3  and  C_4
REMARK    4  A    between atoms: C_4  and  C_6
REMARK    5  A    between atoms: C_7  and  N_29
REMARK    6  A    between atoms: C_21  and  C_23
REMARK                            x       y       z     vdW  Elec       q    Type
REMARK                         _______ _______ _______ _____ _____    ______ ____
ROOT
ATOM      1  C   UNL     1       1.447  -2.321  -2.456  0.00  0.00    +0.102 C 
ATOM      2  C   UNL     1       1.597  -3.663  -2.554  0.00  0.00    +0.194 C 
ATOM      3  O   UNL     1       2.168  -4.240  -3.637  0.00  0.00    -0.445 OA
ATOM      4  C   UNL     1       2.748  -3.420  -4.516  0.00  0.00    +0.129 C 
ATOM      5  C   UNL     1       3.954  -3.700  -5.141  0.00  0.00    +0.035 A 
ATOM      6  C   UNL     1       4.642  -4.907  -4.899  0.00  0.00    +0.013 A 
ATOM      7  C   UNL     1       5.818  -5.151  -5.540  0.00  0.00    +0.001 A 
ATOM      8  C   UNL     1       6.361  -4.229  -6.430  0.00  0.00    +0.002 A 
ATOM      9  C   UNL     1       5.747  -3.043  -6.700  0.00  0.00    +0.024 A 
ATOM     10  C   UNL     1       4.530  -2.724  -6.075  0.00  0.00    +0.044 A 
ATOM     11  N   UNL     1       3.931  -1.555  -6.334  0.00  0.00    -0.284 N 
ATOM     12  C   UNL     1       2.780  -1.186  -5.808  0.00  0.00    +0.229 C 
ATOM     13  O   UNL     1       2.300  -0.104  -6.090  0.00  0.00    -0.275 OA
ATOM     14  C   UNL     1       2.057  -2.110  -4.853  0.00  0.00    +0.154 C 
ATOM     15  C   UNL     1       1.910  -1.369  -3.523  0.00  0.00    +0.082 C 
ATOM     16  H   UNL     1       4.370  -0.943  -6.945  0.00  0.00    +0.155 HD
ENDROOT
BRANCH  15  17
ATOM     17  C   UNL     1       3.244  -0.786  -3.131  0.00  0.00    -0.020 A 
ATOM     18  C   UNL     1       3.390   0.583  -2.962  0.00  0.00    +0.007 A 
ATOM     19  C   UNL     1       4.635   1.074  -2.601  0.00  0.00    +0.020 A 
ATOM     20  C   UNL     1       5.681   0.189  -2.421  0.00  0.00    +0.111 A 
ATOM     21  N   UNL     1       5.506  -1.107  -2.590  0.00  0.00    -0.263 NA
ATOM     22  C   UNL     1       4.335  -1.609  -2.928  0.00  0.00    +0.115 A 
ENDBRANCH  15  17
BRANCH   2  23
ATOM     23  N   UNL     1       1.158  -4.459  -1.530  0.00  0.00    -0.329 N 
ATOM     24  H   UNL     1       0.665  -4.070  -0.791  0.00  0.00    +0.145 HD
ATOM     25  H   UNL     1       1.341  -5.411  -1.543  0.00  0.00    +0.145 HD
ENDBRANCH   2  23
BRANCH   1  26
ATOM     26  C   UNL     1       0.827  -1.797  -1.310  0.00  0.00    +0.341 C 
ATOM     27  O   UNL     1      -0.338  -1.445  -1.355  0.00  0.00    -0.245 OA
BRANCH  26  28
ATOM     28  O   UNL     1       1.522  -1.683  -0.158  0.00  0.00    -0.462 OA
BRANCH  28  30
ATOM     29  C   UNL     1       1.772  -1.090   2.172  0.00  0.00    +0.048 C 
ATOM     30  C   UNL     1       0.829  -1.141   0.968  0.00  0.00    +0.229 C 
ENDBRANCH  28  30
ENDBRANCH  26  28
ENDBRANCH   1  26
TORSDOF 5
