REMARK  Name = ZINC38848145
REMARK  11 active torsions:
REMARK  status: ('A' for Active; 'I' for Inactive)
REMARK    1  A    between atoms: C_1  and  C_2
REMARK    2  A    between atoms: N_11  and  C_12
REMARK    3  A    between atoms: C_12  and  C_13
REMARK    4  A    between atoms: C_13  and  C_14
REMARK    5  A    between atoms: C_14  and  N_15
REMARK    6  A    between atoms: C_20  and  C_22
REMARK    7  A    between atoms: C_23  and  C_24
REMARK    8  A    between atoms: C_27  and  O_32
REMARK    9  A    between atoms: C_28  and  O_30
REMARK   10  A    between atoms: O_30  and  C_31
REMARK   11  A    between atoms: O_32  and  C_33
REMARK                            x       y       z     vdW  Elec       q    Type
REMARK                         _______ _______ _______ _____ _____    ______ ____
ROOT
ATOM      1  C   UNL     1       0.014   1.502   0.008  0.00  0.00    +0.046 C 
ATOM      2  C   UNL     1       0.028  -0.004   0.000  0.00  0.00    -0.023 A 
ATOM      3  C   UNL     1      -0.068  -0.677  -1.190  0.00  0.00    +0.025 A 
ATOM      4  C   UNL     1      -0.059  -2.064  -1.242  0.00  0.00    +0.042 A 
ATOM      5  C   UNL     1       0.050  -2.785  -0.066  0.00  0.00    +0.037 A 
ATOM      6  C   UNL     1       0.147  -2.119   1.130  0.00  0.00    +0.042 A 
ATOM      7  C   UNL     1       0.147  -0.709   1.221  0.00  0.00    +0.083 A 
ATOM      8  N   UNL     1       0.256  -0.202   2.468  0.00  0.00    -0.224 NA
ATOM      9  C   UNL     1       0.360  -0.964   3.532  0.00  0.00    +0.168 A 
ATOM     10  S   UNL     1       0.300  -2.607   2.832  0.00  0.00    -0.052 S 
ATOM     11  N   UNL     1       0.478  -0.590   4.859  0.00  0.00    -0.247 N 
ATOM     12  C   UNL     1       0.394   0.710   5.203  0.00  0.00    +0.245 C 
ATOM     13  O   UNL     1       0.120   1.546   4.361  0.00  0.00    -0.270 OA
ATOM     14 CL   UNL     1      -0.184  -2.886  -2.766  0.00  0.00    -0.083 Cl
ENDROOT
BRANCH  12  15
ATOM     15  C   UNL     1       0.631   1.117   6.587  0.00  0.00    +0.068 C 
ATOM     16  C   UNL     1       0.647   2.428   6.912  0.00  0.00    +0.013 C 
BRANCH  16  17
ATOM     17  C   UNL     1       0.995   2.842   8.278  0.00  0.00    -0.021 A 
ATOM     18  C   UNL     1       1.420   1.891   9.213  0.00  0.00    +0.012 A 
ATOM     19  C   UNL     1       1.747   2.282  10.493  0.00  0.00    +0.050 A 
ATOM     20  C   UNL     1       1.655   3.618  10.859  0.00  0.00    +0.162 A 
ATOM     21  C   UNL     1       1.233   4.572   9.934  0.00  0.00    +0.162 A 
ATOM     22  C   UNL     1       0.909   4.189   8.647  0.00  0.00    +0.057 A 
BRANCH  21  23
ATOM     23  O   UNL     1       1.144   5.879  10.297  0.00  0.00    -0.491 OA
ATOM     24  C   UNL     1       0.704   6.802   9.298  0.00  0.00    +0.277 C 
ENDBRANCH  21  23
BRANCH  20  25
ATOM     25  O   UNL     1       1.978   3.998  12.123  0.00  0.00    -0.491 OA
ATOM     26  C   UNL     1       2.403   2.970  13.020  0.00  0.00    +0.277 C 
ENDBRANCH  20  25
ENDBRANCH  16  17
ENDBRANCH  12  15
BRANCH  11  27
ATOM     27  C   UNL     1       0.694  -1.608   5.891  0.00  0.00    +0.117 C 
BRANCH  27  28
ATOM     28  C   UNL     1       2.196  -1.827   6.085  0.00  0.00    +0.041 C 
BRANCH  28  29
ATOM     29  C   UNL     1       2.421  -2.890   7.162  0.00  0.00    +0.124 C 
BRANCH  29  30
ATOM     30  N   UNL     1       3.859  -3.099   7.348  0.00  0.00    -0.338 N 
ATOM     31  C   UNL     1       4.643  -3.997   6.675  0.00  0.00    +0.104 A 
ATOM     32  C   UNL     1       5.894  -3.857   7.153  0.00  0.00    +0.101 A 
ATOM     33  N   UNL     1       5.875  -2.901   8.093  0.00  0.00    -0.352 N 
ATOM     34  C   UNL     1       4.660  -2.438   8.212  0.00  0.00    +0.173 A 
ATOM     35  H   UNL     1       6.643  -2.597   8.602  0.00  0.00    +0.166 HD
ENDBRANCH  29  30
ENDBRANCH  28  29
ENDBRANCH  27  28
ENDBRANCH  11  27
TORSDOF 8
