REMARK  Name = ZINC65432150
REMARK  12 active torsions:
REMARK  status: ('A' for Active; 'I' for Inactive)
REMARK    1  A    between atoms: C_1  and  C_2
REMARK    2  A    between atoms: C_2  and  O_3
REMARK    3  A    between atoms: O_3  and  C_4
REMARK    4  A    between atoms: C_4  and  C_6
REMARK    5  A    between atoms: C_6  and  C_7
REMARK    6  A    between atoms: C_7  and  C_8
REMARK    7  A    between atoms: C_7  and  N_15
REMARK    8  A    between atoms: N_18  and  C_19
REMARK    9  A    between atoms: C_21  and  C_27
REMARK   10  A    between atoms: C_21  and  C_28
REMARK   11  A    between atoms: C_23  and  C_25
REMARK   12  A    between atoms: C_23  and  C_26
REMARK                            x       y       z     vdW  Elec       q    Type
REMARK                         _______ _______ _______ _____ _____    ______ ____
ROOT
ATOM      1  N   UNL     1       1.876  -4.892  -1.225  0.00  0.00    -0.292 N 
ATOM      2  C   UNL     1       1.742  -6.097  -0.634  0.00  0.00    +0.300 C 
ATOM      3  O   UNL     1       0.908  -6.883  -1.040  0.00  0.00    -0.253 OA
ATOM      4  N   UNL     1       2.534  -6.429   0.405  0.00  0.00    -0.297 N 
ATOM      5  H   UNL     1       2.541  -4.265  -0.901  0.00  0.00    +0.151 HD
ATOM      6  H   UNL     1       3.199  -5.802   0.728  0.00  0.00    +0.151 HD
ENDROOT
BRANCH   4   7
ATOM      7  C   UNL     1       2.388  -7.741   1.048  0.00  0.00    +0.072 C 
ATOM      8  C   UNL     1       3.246  -8.764   0.301  0.00  0.00    +0.009 C 
ATOM      9  C   UNL     1       3.115 -10.134   0.966  0.00  0.00    -0.072 C 
ATOM     10  N   UNL     1       3.418 -10.084   2.389  0.00  0.00    +0.386 N 
ATOM     11  C   UNL     1       2.815  -9.017   3.171  0.00  0.00    -0.072 C 
ATOM     12  C   UNL     1       2.890  -7.655   2.489  0.00  0.00    +0.009 C 
ATOM     13  C   UNL     1       1.364  -9.336   3.541  0.00  0.00    -0.010 C 
ATOM     14  C   UNL     1       3.605  -8.909   4.497  0.00  0.00    -0.010 C 
ATOM     15  C   UNL     1       4.152 -11.068   0.300  0.00  0.00    -0.010 C 
ATOM     16  C   UNL     1       1.732 -10.724   0.693  0.00  0.00    -0.010 C 
ATOM     17  H   UNL     1       3.152 -10.979   2.806  0.00  0.00    -0.084 HD
ATOM     18  H   UNL     1       4.434 -10.029   2.498  0.00  0.00    -0.084 HD
ENDBRANCH   4   7
BRANCH   1  19
ATOM     19  C   UNL     1       1.016  -4.531  -2.354  0.00  0.00    +0.115 C 
BRANCH  19  20
ATOM     20  C   UNL     1       1.614  -5.062  -3.631  0.00  0.00    -0.026 A 
ATOM     21  C   UNL     1       2.982  -5.009  -3.828  0.00  0.00    +0.008 A 
ATOM     22  C   UNL     1       3.532  -5.496  -4.998  0.00  0.00    +0.038 A 
ATOM     23  C   UNL     1       2.713  -6.037  -5.974  0.00  0.00    +0.123 A 
ATOM     24  C   UNL     1       1.343  -6.090  -5.777  0.00  0.00    +0.038 A 
ATOM     25  C   UNL     1       0.796  -5.607  -4.603  0.00  0.00    +0.008 A 
ATOM     26  F   UNL     1       3.249  -6.513  -7.119  0.00  0.00    -0.205 F 
ENDBRANCH  19  20
BRANCH  19  27
ATOM     27  C   UNL     1       0.900  -3.008  -2.440  0.00  0.00    +0.147 C 
BRANCH  27  28
ATOM     28  C   UNL     1       0.190  -2.488  -1.216  0.00  0.00    +0.309 C 
ATOM     29  O   UNL     1      -0.185  -3.257  -0.363  0.00  0.00    -0.251 OA
BRANCH  28  30
ATOM     30  O   UNL     1      -0.026  -1.171  -1.074  0.00  0.00    -0.465 OA
BRANCH  30  32
ATOM     31  C   UNL     1      -0.858   0.773   0.095  0.00  0.00    +0.048 C 
ATOM     32  C   UNL     1      -0.705  -0.749   0.110  0.00  0.00    +0.229 C 
ENDBRANCH  30  32
ENDBRANCH  28  30
ENDBRANCH  27  28
ENDBRANCH  19  27
ENDBRANCH   1  19
TORSDOF 7
