REMARK  Name = ZINC10336740
REMARK  2 active torsions:
REMARK  status: ('A' for Active; 'I' for Inactive)
REMARK    1  A    between atoms: C_5  and  C_7
REMARK    2  A    between atoms: C_18  and  C_20
REMARK                            x       y       z     vdW  Elec       q    Type
REMARK                         _______ _______ _______ _____ _____    ______ ____
ROOT
ATOM      1  C   UNL     1       1.861  -1.878   0.241  0.00  0.00    +0.163 C 
ATOM      2  C   UNL     1       1.620  -2.427  -1.149  0.00  0.00    +0.028 C 
ATOM      3  C   UNL     1       0.475  -3.104  -1.374  0.00  0.00    +0.083 C 
ATOM      4  C   UNL     1       0.257  -3.645  -2.740  0.00  0.00    +0.044 A 
ATOM      5  C   UNL     1      -0.997  -4.067  -3.160  0.00  0.00    +0.033 A 
ATOM      6  C   UNL     1      -1.156  -4.563  -4.441  0.00  0.00    +0.042 A 
ATOM      7  C   UNL     1      -0.072  -4.636  -5.300  0.00  0.00    +0.023 A 
ATOM      8  C   UNL     1       1.180  -4.218  -4.887  0.00  0.00    +0.048 A 
ATOM      9  C   UNL     1       1.354  -3.722  -3.607  0.00  0.00    +0.131 A 
ATOM     10  O   UNL     1       2.573  -3.311  -3.174  0.00  0.00    -0.479 OA
ATOM     11  C   UNL     1       2.616  -2.220  -2.252  0.00  0.00    +0.241 C 
ATOM     12 CL   UNL     1      -2.720  -5.094  -4.975  0.00  0.00    -0.084 Cl
ATOM     13  N   UNL     1      -0.445  -3.288  -0.395  0.00  0.00    -0.213 NA
ATOM     14  C   UNL     1      -0.315  -2.847   0.828  0.00  0.00    +0.232 C 
ATOM     15  N   UNL     1       0.801  -2.137   1.220  0.00  0.00    -0.193 N 
ATOM     16  N   UNL     1       0.602  -1.832   2.567  0.00  0.00    -0.165 N 
ATOM     17  N   UNL     1      -0.539  -2.324   2.911  0.00  0.00    -0.086 NA
ATOM     18  N   UNL     1      -1.102  -2.924   1.936  0.00  0.00    -0.231 N 
ATOM     19  H   UNL     1       1.210  -1.339   3.139  0.00  0.00    +0.195 HD
ATOM     20  H   UNL     1      -1.965  -3.364   1.977  0.00  0.00    +0.193 HD
ENDROOT
BRANCH   1  25
ATOM     21  C   UNL     1       1.123   1.823   0.117  0.00  0.00    +0.001 A 
ATOM     22  C   UNL     1       2.387   2.352  -0.069  0.00  0.00    +0.003 A 
ATOM     23  C   UNL     1       3.482   1.513  -0.155  0.00  0.00    +0.039 A 
ATOM     24  C   UNL     1       3.313   0.142  -0.054  0.00  0.00    +0.129 A 
ATOM     25  C   UNL     1       2.047  -0.386   0.132  0.00  0.00    +0.014 A 
ATOM     26  C   UNL     1       0.953   0.455   0.217  0.00  0.00    +0.008 A 
ATOM     27  F   UNL     1       4.382  -0.679  -0.138  0.00  0.00    -0.205 F 
ENDBRANCH   1  25
BRANCH  11  28
ATOM     28  C   UNL     1       2.294  -0.940  -2.980  0.00  0.00    +0.034 A 
ATOM     29  C   UNL     1       2.956   0.243  -2.959  0.00  0.00    +0.015 A 
ATOM     30  C   UNL     1       2.473   1.294  -3.716  0.00  0.00    +0.008 A 
ATOM     31  C   UNL     1       1.353   1.111  -4.457  0.00  0.00    +0.045 A 
ATOM     32  S   UNL     1       0.948  -0.591  -4.100  0.00  0.00    -0.098 S 
ENDBRANCH  11  28
TORSDOF 2
