REMARK  Name = ZINC51606937
REMARK  9 active torsions:
REMARK  status: ('A' for Active; 'I' for Inactive)
REMARK    1  A    between atoms: C_1  and  C_2
REMARK    2  A    between atoms: C_6  and  C_7
REMARK    3  A    between atoms: C_7  and  C_9
REMARK    4  A    between atoms: C_7  and  S_13
REMARK    5  A    between atoms: C_9  and  C_11
REMARK    6  A    between atoms: C_9  and  N_12
REMARK    7  A    between atoms: S_13  and  C_14
REMARK    8  A    between atoms: C_16  and  C_21
REMARK    9  A    between atoms: C_18  and  C_20
REMARK                            x       y       z     vdW  Elec       q    Type
REMARK                         _______ _______ _______ _____ _____    ______ ____
ROOT
ATOM      1  C   UNL     1       0.015  -0.116   2.559  0.00  0.00    +0.076 C 
ENDROOT
BRANCH   1   7
ATOM      2  C   UNL     1       0.287   1.673   0.077  0.00  0.00    +0.044 C 
ATOM      3  C   UNL     1       0.286   0.167   0.005  0.00  0.00    -0.039 A 
ATOM      4  C   UNL     1       0.416  -0.476  -1.212  0.00  0.00    +0.011 A 
ATOM      5  C   UNL     1       0.411  -1.832  -1.242  0.00  0.00    +0.046 A 
ATOM      6  S   UNL     1       0.218  -2.239   0.486  0.00  0.00    -0.100 S 
ATOM      7  C   UNL     1       0.162  -0.575   1.132  0.00  0.00    +0.004 A 
ENDBRANCH   1   7
BRANCH   1   8
ATOM      8  C   UNL     1      -1.434  -0.307   3.010  0.00  0.00    -0.060 C 
ATOM      9  C   UNL     1      -1.606   0.246   4.426  0.00  0.00    -0.013 C 
BRANCH   8  10
ATOM     10  N   UNL     1      -2.331   0.408   2.092  0.00  0.00    +0.381 N 
ATOM     11  H   UNL     1      -2.103   1.391   2.099  0.00  0.00    -0.090 HD
ATOM     12  H   UNL     1      -2.218   0.043   1.159  0.00  0.00    -0.090 HD
ATOM     13  H   UNL     1      -3.287   0.282   2.389  0.00  0.00    -0.090 HD
ENDBRANCH   8  10
ENDBRANCH   1   8
BRANCH   1  14
ATOM     14  S   UNL     1       1.113  -1.091   3.624  0.00  0.00    -0.079 S 
BRANCH  14  15
ATOM     15  C   UNL     1       2.731  -0.580   3.151  0.00  0.00    +0.189 A 
ATOM     16  N   UNL     1       2.872   0.270   2.143  0.00  0.00    -0.227 NA
ATOM     17  C   UNL     1       4.073   0.673   1.763  0.00  0.00    +0.043 A 
ATOM     18  C   UNL     1       5.190   0.197   2.431  0.00  0.00    +0.046 A 
ATOM     19  C   UNL     1       5.007  -0.691   3.480  0.00  0.00    +0.043 A 
ATOM     20  N   UNL     1       3.779  -1.051   3.813  0.00  0.00    -0.227 NA
ATOM     21  C   UNL     1       6.192  -1.235   4.234  0.00  0.00    +0.066 C 
ATOM     22  C   UNL     1       4.225   1.640   0.616  0.00  0.00    +0.066 C 
ENDBRANCH  14  15
ENDBRANCH   1  14
TORSDOF 5
