REMARK  Name = ZINC09360283
REMARK  7 active torsions:
REMARK  status: ('A' for Active; 'I' for Inactive)
REMARK    1  A    between atoms: C_1  and  C_2
REMARK    2  A    between atoms: C_5  and  N_9
REMARK    3  A    between atoms: C_7  and  C_8
REMARK    4  A    between atoms: C_14  and  C_19
REMARK    5  A    between atoms: C_16  and  O_18
REMARK    6  A    between atoms: C_19  and  S_20
REMARK    7  A    between atoms: S_20  and  C_21
REMARK                            x       y       z     vdW  Elec       q    Type
REMARK                         _______ _______ _______ _____ _____    ______ ____
ROOT
ATOM      1  N   UNL     1      -5.487   7.343   3.624  0.00  0.00    -0.328 N 
ATOM      2  C   UNL     1      -5.099   7.637   2.337  0.00  0.00    +0.180 C 
ATOM      3  N   UNL     1      -3.762   7.643   2.004  0.00  0.00    -0.296 N 
ATOM      4  C   UNL     1      -3.374   7.872   0.691  0.00  0.00    +0.234 A 
ATOM      5  N   UNL     1      -2.085   7.874   0.389  0.00  0.00    -0.216 NA
ATOM      6  C   UNL     1      -1.677   8.088  -0.853  0.00  0.00    +0.060 A 
ATOM      7  C   UNL     1      -2.616   8.317  -1.841  0.00  0.00    +0.091 A 
ATOM      8  C   UNL     1      -3.966   8.303  -1.494  0.00  0.00    +0.217 A 
ATOM      9  N   UNL     1      -4.303   8.082  -0.229  0.00  0.00    -0.177 NA
ATOM     10  H   UNL     1      -6.418   7.425   3.881  0.00  0.00    +0.169 HD
ATOM     11  H   UNL     1      -6.956   8.002   1.584  0.00  0.00    +0.159 HD
ATOM     12  H   UNL     1      -3.091   7.488   2.687  0.00  0.00    +0.172 HD
ATOM     13  N   UNL     1      -5.962   7.917   1.371  0.00  0.00    -0.371 N 
ATOM     14  H   UNL     1      -5.630   8.048   0.408  0.00  0.00    +0.159 HD
ENDROOT
BRANCH   1  19
ATOM     15  C   UNL     1      -1.634   5.653   7.429  0.00  0.00    +0.044 C 
ATOM     16  C   UNL     1      -2.658   6.101   6.418  0.00  0.00    -0.047 A 
ATOM     17  C   UNL     1      -2.484   5.800   5.080  0.00  0.00    +0.005 A 
ATOM     18  C   UNL     1      -3.423   6.205   4.152  0.00  0.00    +0.026 A 
ATOM     19  C   UNL     1      -4.537   6.926   4.562  0.00  0.00    +0.042 A 
ATOM     20  C   UNL     1      -4.708   7.227   5.907  0.00  0.00    +0.029 A 
ATOM     21  C   UNL     1      -3.768   6.814   6.831  0.00  0.00    -0.046 A 
ATOM     22  C   UNL     1      -3.954   7.140   8.290  0.00  0.00    +0.044 C 
ENDBRANCH   1  19
BRANCH   8  23
ATOM     23  O   UNL     1      -4.919   8.519  -2.432  0.00  0.00    -0.492 OA
ATOM     24  H   UNL     1      -5.159   9.449  -2.542  0.00  0.00    +0.294 HD
ENDBRANCH   8  23
BRANCH   6  25
ATOM     25  C   UNL     1      -0.207   8.088  -1.183  0.00  0.00    +0.130 C 
BRANCH  25  26
ATOM     26  S   UNL     1       0.313   6.408  -1.628  0.00  0.00    -0.119 S 
BRANCH  26  27
ATOM     27  C   UNL     1       2.031   6.573  -1.981  0.00  0.00    +0.008 A 
ATOM     28  C   UNL     1       2.646   7.815  -1.883  0.00  0.00    +0.016 A 
ATOM     29  C   UNL     1       3.992   7.942  -2.165  0.00  0.00    +0.021 A 
ATOM     30  C   UNL     1       4.728   6.834  -2.548  0.00  0.00    +0.041 A 
ATOM     31  C   UNL     1       4.118   5.596  -2.647  0.00  0.00    +0.021 A 
ATOM     32  C   UNL     1       2.773   5.462  -2.365  0.00  0.00    +0.016 A 
ATOM     33 CL   UNL     1       6.419   6.998  -2.903  0.00  0.00    -0.084 Cl
ENDBRANCH  26  27
ENDBRANCH  25  26
ENDBRANCH   6  25
TORSDOF 5
