REMARK  Name = ZINC63330567
REMARK  9 active torsions:
REMARK  status: ('A' for Active; 'I' for Inactive)
REMARK    1  A    between atoms: C_1  and  C_2
REMARK    2  A    between atoms: C_4  and  C_35
REMARK    3  A    between atoms: N_10  and  C_11
REMARK    4  A    between atoms: N_13  and  C_14
REMARK    5  A    between atoms: C_17  and  O_20
REMARK    6  A    between atoms: O_20  and  C_21
REMARK    7  A    between atoms: N_22  and  C_23
REMARK    8  A    between atoms: C_23  and  C_24
REMARK    9  A    between atoms: C_24  and  C_25
REMARK                            x       y       z     vdW  Elec       q    Type
REMARK                         _______ _______ _______ _____ _____    ______ ____
ROOT
ATOM      1  C   UNL     1      -0.397  -7.251   5.753  0.00  0.00    +0.066 C 
ATOM      2  C   UNL     1      -0.375  -6.742   4.335  0.00  0.00    +0.044 A 
ATOM      3  C   UNL     1      -0.302  -7.630   3.272  0.00  0.00    +0.046 A 
ATOM      4  C   UNL     1      -0.285  -7.120   1.984  0.00  0.00    +0.044 A 
ATOM      5  N   UNL     1      -0.338  -5.810   1.808  0.00  0.00    -0.217 NA
ATOM      6  C   UNL     1      -0.407  -4.989   2.845  0.00  0.00    +0.231 A 
ATOM      7  N   UNL     1      -0.431  -5.444   4.088  0.00  0.00    -0.217 NA
ATOM      8  N   UNL     1      -0.461  -3.620   2.623  0.00  0.00    -0.297 N 
ATOM      9  C   UNL     1      -0.424  -2.753   3.681  0.00  0.00    +0.198 C 
ATOM     10  N   UNL     1      -0.232  -3.214   4.906  0.00  0.00    -0.129 NA
ATOM     11  N   UNL     1      -0.585  -1.415   3.473  0.00  0.00    -0.357 N 
ATOM     12  C   UNL     1      -0.206  -8.046   0.798  0.00  0.00    +0.066 C 
ATOM     13  H   UNL     1      -0.525  -3.277   1.718  0.00  0.00    +0.171 HD
ATOM     14  H   UNL     1      -0.475  -0.793   4.209  0.00  0.00    +0.162 HD
ENDROOT
BRANCH  10  15
ATOM     15  C   UNL     1      -0.082  -2.358   5.928  0.00  0.00    +0.330 C 
ATOM     16  O   UNL     1      -0.221  -1.162   5.746  0.00  0.00    -0.250 OA
ATOM     17  N   UNL     1       0.223  -2.822   7.156  0.00  0.00    -0.268 N 
ATOM     18  H   UNL     1       0.410  -3.765   7.285  0.00  0.00    +0.156 HD
BRANCH  17  19
ATOM     19  C   UNL     1       0.271  -1.943   8.245  0.00  0.00    +0.035 A 
ATOM     20  C   UNL     1      -0.609  -0.870   8.310  0.00  0.00    +0.027 A 
ATOM     21  C   UNL     1      -0.562  -0.004   9.385  0.00  0.00    +0.047 A 
ATOM     22  C   UNL     1       0.364  -0.204  10.398  0.00  0.00    +0.120 A 
ATOM     23  C   UNL     1       1.243  -1.276  10.333  0.00  0.00    +0.047 A 
ATOM     24  C   UNL     1       1.193  -2.146   9.262  0.00  0.00    +0.027 A 
BRANCH  22  25
ATOM     25  O   UNL     1       0.409   0.649  11.456  0.00  0.00    -0.495 OA
ATOM     26  C   UNL     1       1.387   0.382  12.463  0.00  0.00    +0.277 C 
ENDBRANCH  22  25
ENDBRANCH  17  19
ENDBRANCH  10  15
BRANCH  11  27
ATOM     27  C   UNL     1      -0.924  -0.917   2.137  0.00  0.00    +0.120 C 
BRANCH  27  28
ATOM     28  C   UNL     1      -0.925   0.613   2.148  0.00  0.00    +0.054 C 
BRANCH  28  29
ATOM     29  C   UNL     1      -1.393   1.125   0.810  0.00  0.00    -0.040 C 
ATOM     30  C   UNL     1      -2.649   1.496   0.475  0.00  0.00    +0.000 A 
ATOM     31  C   UNL     1      -3.909   1.532   1.228  0.00  0.00    +0.030 A 
ATOM     32  C   UNL     1      -5.032   1.961   0.607  0.00  0.00    +0.042 A 
ATOM     33  C   UNL     1      -5.022   2.372  -0.735  0.00  0.00    +0.022 A 
ATOM     34  C   UNL     1      -3.903   2.367  -1.490  0.00  0.00    +0.027 A 
ATOM     35  C   UNL     1      -2.665   1.934  -0.939  0.00  0.00    +0.043 A 
ATOM     36  N   UNL     1      -1.465   1.838  -1.457  0.00  0.00    -0.380 N 
ATOM     37  C   UNL     1      -0.550   1.333  -0.428  0.00  0.00    +0.144 C 
ATOM     38 CL   UNL     1      -6.524   2.005   1.493  0.00  0.00    -0.084 Cl
ATOM     39  H   UNL     1      -1.222   2.067  -2.368  0.00  0.00    +0.160 HD
ENDBRANCH  28  29
ENDBRANCH  27  28
ENDBRANCH  11  27
TORSDOF 6
