REMARK  Name = ZINC22461530
REMARK  10 active torsions:
REMARK  status: ('A' for Active; 'I' for Inactive)
REMARK    1  A    between atoms: C_1  and  C_2
REMARK    2  A    between atoms: C_3  and  C_16
REMARK    3  A    between atoms: C_4  and  C_15
REMARK    4  A    between atoms: C_9  and  C_11
REMARK    5  A    between atoms: C_16  and  C_17
REMARK    6  A    between atoms: C_17  and  C_18
REMARK    7  A    between atoms: N_20  and  C_21
REMARK    8  A    between atoms: C_21  and  C_22
REMARK    9  A    between atoms: C_22  and  C_24
REMARK   10  A    between atoms: C_22  and  N_31
REMARK                            x       y       z     vdW  Elec       q    Type
REMARK                         _______ _______ _______ _____ _____    ______ ____
ROOT
ATOM      1  C   UNL     1      -4.093  -0.253  -2.770  0.00  0.00    +0.213 C 
ATOM      2  O   UNL     1      -3.339  -0.093  -3.707  0.00  0.00    -0.276 OA
ATOM      3  N   UNL     1      -3.836   0.343  -1.589  0.00  0.00    -0.317 N 
ATOM      4  H   UNL     1      -4.520   0.197  -0.739  0.00  0.00    +0.149 HD
ENDROOT
BRANCH   1   5
ATOM      5  C   UNL     1      -5.316  -1.119  -2.927  0.00  0.00    +0.100 C 
BRANCH   5   6
ATOM      6  C   UNL     1      -5.370  -1.671  -4.353  0.00  0.00    +0.048 C 
BRANCH   6   9
ATOM      7  C   UNL     1      -7.891  -0.505  -5.231  0.00  0.00    +0.066 C 
ATOM      8  C   UNL     1      -7.807  -1.979  -4.933  0.00  0.00    +0.047 A 
ATOM      9  C   UNL     1      -6.593  -2.537  -4.510  0.00  0.00    -0.005 A 
ATOM     10  C   UNL     1      -6.531  -3.868  -4.250  0.00  0.00    +0.048 A 
ATOM     11  N   UNL     1      -7.652  -4.623  -4.396  0.00  0.00    -0.200 N 
ATOM     12  C   UNL     1      -8.821  -4.047  -4.810  0.00  0.00    +0.254 A 
ATOM     13  N   UNL     1      -8.872  -2.736  -5.069  0.00  0.00    -0.216 NA
ATOM     14  N   UNL     1      -9.734  -5.010  -4.868  0.00  0.00    -0.186 NA
ATOM     15  C   UNL     1      -9.191  -6.165  -4.509  0.00  0.00    +0.257 A 
ATOM     16  N   UNL     1      -7.926  -5.984  -4.212  0.00  0.00    -0.139 NA
ATOM     17  C   UNL     1      -5.238  -4.499  -3.799  0.00  0.00    +0.066 C 
BRANCH  15  18
ATOM     18  C   UNL     1      -9.916  -7.485  -4.450  0.00  0.00    +0.454 C 
ATOM     19  F   UNL     1     -11.126  -7.383  -5.144  0.00  0.00    -0.163 F 
ATOM     20  F   UNL     1      -9.125  -8.479  -5.036  0.00  0.00    -0.163 F 
ATOM     21  F   UNL     1     -10.171  -7.818  -3.115  0.00  0.00    -0.163 F 
ENDBRANCH  15  18
ENDBRANCH   6   9
ENDBRANCH   5   6
ENDBRANCH   1   5
BRANCH   3  22
ATOM     22  C   UNL     1      -2.647   1.185  -1.436  0.00  0.00    +0.093 C 
BRANCH  22  23
ATOM     23  C   UNL     1      -2.660   1.839  -0.053  0.00  0.00    -0.019 C 
BRANCH  23  24
ATOM     24  C   UNL     1      -3.830   2.784   0.045  0.00  0.00    -0.041 A 
ATOM     25  C   UNL     1      -4.983   2.390   0.698  0.00  0.00    +0.003 A 
ATOM     26  C   UNL     1      -6.058   3.254   0.783  0.00  0.00    +0.000 A 
ATOM     27  C   UNL     1      -5.979   4.515   0.221  0.00  0.00    +0.001 A 
ATOM     28  C   UNL     1      -4.825   4.911  -0.427  0.00  0.00    +0.020 A 
ATOM     29  C   UNL     1      -3.748   4.046  -0.513  0.00  0.00    +0.043 A 
ATOM     30 CL   UNL     1      -2.298   4.544  -1.328  0.00  0.00    -0.083 Cl
ENDBRANCH  23  24
BRANCH  23  31
ATOM     31  N   UNL     1      -2.781   0.801   0.979  0.00  0.00    +0.385 N 
ATOM     32  C   UNL     1      -1.715  -0.224   0.830  0.00  0.00    -0.078 C 
ATOM     33  C   UNL     1      -1.665  -0.888   2.229  0.00  0.00    -0.020 C 
ATOM     34  C   UNL     1      -1.900   0.304   3.186  0.00  0.00    -0.020 C 
ATOM     35  C   UNL     1      -2.603   1.373   2.331  0.00  0.00    -0.078 C 
ATOM     36  H   UNL     1      -3.784   0.368   0.852  0.00  0.00    -0.081 HD
ENDBRANCH  23  31
ENDBRANCH  22  23
ENDBRANCH   3  22
TORSDOF 8
