REMARK  Name = ZINC40518844
REMARK  8 active torsions:
REMARK  status: ('A' for Active; 'I' for Inactive)
REMARK    1  A    between atoms: C_1  and  C_2
REMARK    2  A    between atoms: C_3  and  C_8
REMARK    3  A    between atoms: C_5  and  C_7
REMARK    4  A    between atoms: C_8  and  C_10
REMARK    5  A    between atoms: C_8  and  N_11
REMARK    6  A    between atoms: N_11  and  C_12
REMARK    7  A    between atoms: C_12  and  C_13
REMARK    8  A    between atoms: N_15  and  C_16
REMARK                            x       y       z     vdW  Elec       q    Type
REMARK                         _______ _______ _______ _____ _____    ______ ____
ROOT
ATOM      1  N   UNL     1      -0.983  -0.991  -3.360  0.00  0.00    +0.389 N 
ATOM      2  H   UNL     1      -0.672  -1.950  -3.415  0.00  0.00    -0.084 HD
ATOM      3  H   UNL     1      -1.886  -0.956  -2.911  0.00  0.00    -0.084 HD
ENDROOT
BRANCH   1   4
ATOM      4  C   UNL     1      -0.016  -0.207  -2.580  0.00  0.00    -0.035 C 
ATOM      5  C   UNL     1       1.378  -0.363  -3.190  0.00  0.00    -0.008 C 
BRANCH   4   8
ATOM      6  C   UNL     1      -0.041   1.504   0.017  0.00  0.00    +0.066 C 
ATOM      7  C   UNL     1      -0.009  -0.002   0.006  0.00  0.00    +0.047 A 
ATOM      8  C   UNL     1       0.000  -0.703  -1.157  0.00  0.00    -0.002 A 
ATOM      9  S   UNL     1       0.038  -2.376  -0.532  0.00  0.00    -0.079 S 
ATOM     10  C   UNL     1       0.037  -2.009   1.110  0.00  0.00    +0.076 A 
ATOM     11  N   UNL     1       0.015  -0.700   1.124  0.00  0.00    -0.249 NA
ATOM     12  C   UNL     1       0.062  -2.958   2.281  0.00  0.00    +0.073 C 
ENDBRANCH   4   8
ENDBRANCH   1   4
BRANCH   1  13
ATOM     13  C   UNL     1      -1.087  -0.432  -4.715  0.00  0.00    +0.016 C 
BRANCH  13  14
ATOM     14  C   UNL     1      -2.079  -1.236  -5.516  0.00  0.00    +0.200 C 
ATOM     15  O   UNL     1      -2.643  -2.182  -5.008  0.00  0.00    -0.278 OA
ATOM     16  N   UNL     1      -2.338  -0.904  -6.796  0.00  0.00    -0.287 N 
ATOM     17  H   UNL     1      -1.939  -0.109  -7.181  0.00  0.00    +0.155 HD
BRANCH  16  18
ATOM     18  C   UNL     1      -3.185  -1.707  -7.569  0.00  0.00    +0.033 A 
ATOM     19  C   UNL     1      -2.934  -1.878  -8.924  0.00  0.00    +0.024 A 
ATOM     20  C   UNL     1      -3.771  -2.672  -9.685  0.00  0.00    +0.017 A 
ATOM     21  C   UNL     1      -4.857  -3.295  -9.098  0.00  0.00    +0.018 A 
ATOM     22  C   UNL     1      -5.109  -3.126  -7.748  0.00  0.00    +0.017 A 
ATOM     23  C   UNL     1      -4.273  -2.338  -6.981  0.00  0.00    +0.024 A 
ATOM     24 BR   UNL     1      -6.001  -4.380 -10.143  0.00  0.00    -0.050 Br
ENDBRANCH  16  18
ENDBRANCH  13  14
ENDBRANCH   1  13
TORSDOF 5
