REMARK  Name = ZINC36637305
REMARK  11 active torsions:
REMARK  status: ('A' for Active; 'I' for Inactive)
REMARK    1  A    between atoms: C_1  and  C_2
REMARK    2  A    between atoms: C_2  and  O_3
REMARK    3  A    between atoms: O_3  and  C_4
REMARK    4  A    between atoms: N_13  and  C_14
REMARK    5  A    between atoms: C_14  and  C_15
REMARK    6  A    between atoms: C_15  and  N_16
REMARK    7  A    between atoms: N_16  and  C_17
REMARK    8  A    between atoms: N_16  and  C_18
REMARK    9  A    between atoms: C_19  and  C_21
REMARK   10  A    between atoms: C_24  and  S_27
REMARK   11  A    between atoms: S_27  and  N_30
REMARK                            x       y       z     vdW  Elec       q    Type
REMARK                         _______ _______ _______ _____ _____    ______ ____
ROOT
ATOM      1  C   UNL     1       0.691  -1.647  -2.579  0.00  0.00    +0.122 A 
ATOM      2  C   UNL     1       0.278  -2.336  -1.442  0.00  0.00    +0.048 A 
ATOM      3  C   UNL     1       0.478  -3.685  -1.312  0.00  0.00    +0.032 A 
ATOM      4  C   UNL     1       1.115  -4.425  -2.335  0.00  0.00    +0.081 A 
ATOM      5  C   UNL     1       1.522  -3.695  -3.474  0.00  0.00    +0.044 A 
ATOM      6  C   UNL     1       1.315  -2.344  -3.603  0.00  0.00    +0.063 A 
ATOM      7  S   UNL     1       2.256  -4.955  -4.489  0.00  0.00    -0.052 S 
ATOM      8  C   UNL     1       1.986  -6.326  -3.375  0.00  0.00    +0.168 A 
ATOM      9  N   UNL     1       1.385  -5.749  -2.361  0.00  0.00    -0.224 NA
ATOM     10  N   UNL     1       2.324  -7.659  -3.540  0.00  0.00    -0.248 N 
ATOM     11  C   UNL     1       2.945  -8.062  -4.666  0.00  0.00    +0.252 C 
ATOM     12  O   UNL     1       3.274  -7.246  -5.505  0.00  0.00    -0.270 OA
ENDROOT
BRANCH  11  13
ATOM     13  C   UNL     1       3.226  -9.497  -4.882  0.00  0.00    +0.037 A 
ATOM     14  C   UNL     1       2.287 -10.460  -4.506  0.00  0.00    +0.015 A 
ATOM     15  C   UNL     1       2.555 -11.797  -4.710  0.00  0.00    +0.029 A 
ATOM     16  C   UNL     1       3.751 -12.186  -5.287  0.00  0.00    +0.106 A 
ATOM     17  C   UNL     1       4.686 -11.237  -5.661  0.00  0.00    +0.029 A 
ATOM     18  C   UNL     1       4.428  -9.896  -5.468  0.00  0.00    +0.015 A 
BRANCH  16  19
ATOM     19  S   UNL     1       4.086 -13.896  -5.545  0.00  0.00    +0.061 S 
ATOM     20  O   UNL     1       5.500 -14.030  -5.598  0.00  0.00    -0.153 OA
ATOM     21  O   UNL     1       3.288 -14.611  -4.611  0.00  0.00    -0.153 OA
BRANCH  19  22
ATOM     22  N   UNL     1       3.516 -14.285  -7.050  0.00  0.00    -0.172 NA
ATOM     23  C   UNL     1       2.133 -14.752  -7.239  0.00  0.00    +0.137 C 
ATOM     24  C   UNL     1       1.492 -13.921  -8.356  0.00  0.00    +0.177 C 
ATOM     25  O   UNL     1       2.336 -13.952  -9.510  0.00  0.00    -0.377 OA
ATOM     26  C   UNL     1       3.626 -13.372  -9.306  0.00  0.00    +0.177 C 
ATOM     27  C   UNL     1       4.376 -14.169  -8.239  0.00  0.00    +0.137 C 
ENDBRANCH  19  22
ENDBRANCH  16  19
ENDBRANCH  11  13
BRANCH   1  28
ATOM     28  O   UNL     1       0.481  -0.308  -2.686  0.00  0.00    -0.492 OA
BRANCH  28  30
ATOM     29  C   UNL     1      -0.315   1.830  -1.889  0.00  0.00    +0.048 C 
ATOM     30  C   UNL     1      -0.167   0.337  -1.588  0.00  0.00    +0.225 C 
ENDBRANCH  28  30
ENDBRANCH   1  28
BRANCH  10  31
ATOM     31  C   UNL     1       2.008  -8.630  -2.490  0.00  0.00    +0.097 C 
BRANCH  31  32
ATOM     32  C   UNL     1       0.505  -8.921  -2.500  0.00  0.00    -0.060 C 
BRANCH  32  33
ATOM     33  N   UNL     1       0.209  -9.999  -1.547  0.00  0.00    +0.377 N 
ATOM     34  C   UNL     1       0.507  -9.543  -0.183  0.00  0.00    -0.097 C 
ATOM     35  C   UNL     1      -1.212 -10.359  -1.643  0.00  0.00    -0.097 C 
ATOM     36  H   UNL     1       0.775 -10.805  -1.764  0.00  0.00    -0.083 HD
ENDBRANCH  32  33
ENDBRANCH  31  32
ENDBRANCH  10  31
TORSDOF 8
