REMARK  Name = ZINC44534039
REMARK  6 active torsions:
REMARK  status: ('A' for Active; 'I' for Inactive)
REMARK    1  A    between atoms: C_1  and  N_2
REMARK    2  A    between atoms: C_6  and  C_9
REMARK    3  A    between atoms: C_9  and  N_10
REMARK    4  A    between atoms: N_10  and  S_11
REMARK    5  A    between atoms: S_11  and  C_14
REMARK    6  A    between atoms: C_16  and  N_22
REMARK                            x       y       z     vdW  Elec       q    Type
REMARK                         _______ _______ _______ _____ _____    ______ ____
ROOT
ATOM      1  S   UNL     1       2.253  -4.839   3.578  0.00  0.00    +0.060 S 
ATOM      2  O   UNL     1       1.856  -6.199   3.471  0.00  0.00    -0.153 OA
ATOM      3  O   UNL     1       3.582  -4.410   3.311  0.00  0.00    -0.153 OA
ENDROOT
BRANCH   1   4
ATOM      4  C   UNL     1       1.883  -4.334   5.225  0.00  0.00    +0.125 A 
ATOM      5  C   UNL     1       1.340  -5.239   6.118  0.00  0.00    +0.055 A 
ATOM      6  C   UNL     1       1.049  -4.841   7.415  0.00  0.00    +0.062 A 
ATOM      7  C   UNL     1       1.304  -3.533   7.813  0.00  0.00    +0.145 A 
ATOM      8  C   UNL     1       1.847  -2.633   6.915  0.00  0.00    +0.062 A 
ATOM      9  C   UNL     1       2.141  -3.035   5.623  0.00  0.00    +0.070 A 
ATOM     10 CL   UNL     1       2.829  -1.905   4.500  0.00  0.00    -0.081 Cl
ATOM     11  F   UNL     1       1.022  -3.143   9.075  0.00  0.00    -0.204 F 
BRANCH   6  12
ATOM     12  N   UNL     1       0.499  -5.755   8.321  0.00  0.00    -0.356 N 
ATOM     13  H   UNL     1       0.321  -6.667   8.043  0.00  0.00    +0.142 HD
ATOM     14  H   UNL     1       0.296  -5.476   9.228  0.00  0.00    +0.142 HD
ENDBRANCH   6  12
ENDBRANCH   1   4
BRANCH   1  15
ATOM     15  N   UNL     1       1.265  -3.976   2.567  0.00  0.00    -0.190 NA
ATOM     16  H   UNL     1       0.592  -4.434   2.040  0.00  0.00    +0.148 HD
BRANCH  15  17
ATOM     17  C   UNL     1       1.408  -2.521   2.470  0.00  0.00    +0.107 C 
BRANCH  17  23
ATOM     18  C   UNL     1      -0.018   1.465   0.010  0.00  0.00    -0.096 C 
ATOM     19  N   UNL     1       0.002  -0.004   0.002  0.00  0.00    +0.378 N 
ATOM     20  C   UNL     1       0.681  -0.476  -1.210  0.00  0.00    -0.079 C 
ATOM     21  C   UNL     1       0.634  -2.005  -1.264  0.00  0.00    -0.018 C 
ATOM     22  C   UNL     1       1.336  -2.575  -0.029  0.00  0.00    +0.001 C 
ATOM     23  C   UNL     1       0.666  -2.018   1.230  0.00  0.00    -0.012 C 
ATOM     24  C   UNL     1       0.712  -0.489   1.192  0.00  0.00    -0.074 C 
ATOM     25  H   UNL     1      -0.945  -0.352   0.012  0.00  0.00    -0.082 HD
ENDBRANCH  17  23
ENDBRANCH  15  17
ENDBRANCH   1  15
TORSDOF 5
