REMARK  Name = ZINC63069311
REMARK  10 active torsions:
REMARK  status: ('A' for Active; 'I' for Inactive)
REMARK    1  A    between atoms: C_1  and  C_2
REMARK    2  A    between atoms: C_3  and  C_28
REMARK    3  A    between atoms: C_4  and  C_25
REMARK    4  A    between atoms: C_5  and  S_9
REMARK    5  A    between atoms: C_7  and  C_8
REMARK    6  A    between atoms: S_9  and  C_10
REMARK    7  A    between atoms: C_10  and  C_11
REMARK    8  A    between atoms: N_13  and  C_14
REMARK    9  A    between atoms: C_14  and  C_15
REMARK   10  A    between atoms: C_15  and  C_16
REMARK                            x       y       z     vdW  Elec       q    Type
REMARK                         _______ _______ _______ _____ _____    ______ ____
ROOT
ATOM      1  C   UNL     1       0.079  -4.854   1.950  0.00  0.00    +0.171 C 
ENDROOT
BRANCH   1   2
ATOM      2  C   UNL     1       0.100  -6.346   2.162  0.00  0.00    +0.223 C 
ATOM      3  O   UNL     1       0.105  -7.094   1.207  0.00  0.00    -0.275 OA
ATOM      4  N   UNL     1       0.113  -6.849   3.412  0.00  0.00    -0.314 N 
ATOM      5  H   UNL     1       0.109  -6.251   4.175  0.00  0.00    +0.149 HD
BRANCH   4   6
ATOM      6  C   UNL     1       0.134  -8.300   3.618  0.00  0.00    +0.108 C 
BRANCH   6   7
ATOM      7  C   UNL     1       0.145  -8.601   5.118  0.00  0.00    +0.052 C 
BRANCH   7   8
ATOM      8  C   UNL     1       0.167 -10.093   5.329  0.00  0.00    -0.040 C 
ATOM      9  C   UNL     1       1.255 -10.870   5.537  0.00  0.00    -0.001 A 
ATOM     10  C   UNL     1       2.689 -10.569   5.623  0.00  0.00    +0.010 A 
ATOM     11  C   UNL     1       3.559 -11.581   5.844  0.00  0.00    +0.001 A 
ATOM     12  C   UNL     1       3.126 -12.906   5.991  0.00  0.00    +0.002 A 
ATOM     13  C   UNL     1       1.826 -13.260   5.924  0.00  0.00    +0.026 A 
ATOM     14  C   UNL     1       0.824 -12.277   5.697  0.00  0.00    +0.043 A 
ATOM     15  N   UNL     1      -0.480 -12.367   5.592  0.00  0.00    -0.380 N 
ATOM     16  C   UNL     1      -1.024 -11.025   5.359  0.00  0.00    +0.144 C 
ATOM     17  H   UNL     1      -0.998 -13.184   5.660  0.00  0.00    +0.160 HD
ENDBRANCH   7   8
ENDBRANCH   6   7
ENDBRANCH   4   6
ENDBRANCH   1   2
BRANCH   1  18
ATOM     18  S   UNL     1       0.065  -4.496   0.171  0.00  0.00    -0.096 S 
BRANCH  18  23
ATOM     19  C   UNL     1      -0.018   1.503   0.010  0.00  0.00    +0.046 C 
ATOM     20  C   UNL     1       0.002  -0.004   0.002  0.00  0.00    -0.026 A 
ATOM     21  C   UNL     1       0.006  -0.694  -1.197  0.00  0.00    -0.031 A 
ATOM     22  C   UNL     1       0.026  -2.093  -1.159  0.00  0.00    +0.071 A 
ATOM     23  C   UNL     1       0.041  -2.736   0.091  0.00  0.00    +0.110 A 
ATOM     24  N   UNL     1       0.036  -2.026   1.209  0.00  0.00    -0.245 NA
ATOM     25  C   UNL     1       0.023  -0.707   1.194  0.00  0.00    +0.043 A 
ATOM     26  C   UNL     1       0.025   0.048   2.498  0.00  0.00    +0.066 C 
ATOM     27  C   UNL     1      -0.011   0.042  -2.512  0.00  0.00    +0.045 C 
BRANCH  22  28
ATOM     28  C   UNL     1       0.030  -2.878  -2.407  0.00  0.00    +0.244 C 
ATOM     29  O   UNL     1       1.085  -3.187  -2.927  0.00  0.00    -0.270 OA
ATOM     30  N   UNL     1      -1.135  -3.253  -2.971  0.00  0.00    -0.325 N 
ATOM     31  H   UNL     1      -1.976  -3.006  -2.557  0.00  0.00    +0.145 HD
ATOM     32  H   UNL     1      -1.132  -3.769  -3.793  0.00  0.00    +0.145 HD
ENDBRANCH  22  28
ENDBRANCH  18  23
ENDBRANCH   1  18
TORSDOF 7
