REMARK  Name = ZINC59170598
REMARK  9 active torsions:
REMARK  status: ('A' for Active; 'I' for Inactive)
REMARK    1  A    between atoms: C_1  and  C_2
REMARK    2  A    between atoms: C_2  and  O_3
REMARK    3  A    between atoms: O_3  and  C_4
REMARK    4  A    between atoms: C_8  and  N_10
REMARK    5  A    between atoms: C_11  and  C_13
REMARK    6  A    between atoms: N_23  and  N_24
REMARK    7  A    between atoms: N_24  and  S_25
REMARK    8  A    between atoms: S_25  and  C_28
REMARK    9  A    between atoms: C_31  and  C_34
REMARK                            x       y       z     vdW  Elec       q    Type
REMARK                         _______ _______ _______ _____ _____    ______ ____
ROOT
ATOM      1  C   UNL     1      -5.921  -6.141  -0.616  0.00  0.00    +0.099 A 
ATOM      2  C   UNL     1      -6.037  -7.510  -0.570  0.00  0.00    +0.030 A 
ATOM      3  C   UNL     1      -7.321  -8.069  -0.130  0.00  0.00    +0.020 A 
ATOM      4  C   UNL     1      -7.434  -9.423   0.199  0.00  0.00    +0.031 A 
ATOM      5  C   UNL     1      -8.651  -9.925   0.613  0.00  0.00    +0.042 A 
ATOM      6  C   UNL     1      -9.758  -9.094   0.703  0.00  0.00    +0.023 A 
ATOM      7  C   UNL     1      -9.659  -7.754   0.380  0.00  0.00    +0.048 A 
ATOM      8  C   UNL     1      -8.447  -7.231  -0.038  0.00  0.00    +0.138 A 
ATOM      9  O   UNL     1      -8.337  -5.918  -0.365  0.00  0.00    -0.437 OA
ATOM     10  C   UNL     1      -7.104  -5.347  -0.211  0.00  0.00    +0.225 A 
ATOM     11  N   UNL     1      -6.973  -4.144   0.272  0.00  0.00    -0.260 N 
ATOM     12 CL   UNL     1      -8.797 -11.606   1.022  0.00  0.00    -0.084 Cl
ATOM     13  H   UNL     1      -6.090  -3.799   0.481  0.00  0.00    +0.189 HD
ENDROOT
BRANCH   1  15
ATOM     14  N   UNL     1      -3.557  -6.228  -1.224  0.00  0.00    -0.281 N 
ATOM     15  C   UNL     1      -4.671  -5.492  -1.044  0.00  0.00    +0.253 C 
ATOM     16  O   UNL     1      -4.645  -4.291  -1.236  0.00  0.00    -0.270 OA
ATOM     17  H   UNL     1      -3.601  -7.195  -1.173  0.00  0.00    +0.155 HD
BRANCH  14  22
ATOM     18  C   UNL     1       0.062  -5.577  -1.373  0.00  0.00    +0.122 A 
ATOM     19  C   UNL     1       0.078  -4.340  -2.002  0.00  0.00    +0.046 A 
ATOM     20  C   UNL     1      -1.109  -3.734  -2.369  0.00  0.00    +0.005 A 
ATOM     21  C   UNL     1      -2.314  -4.358  -2.113  0.00  0.00    +0.023 A 
ATOM     22  C   UNL     1      -2.337  -5.596  -1.484  0.00  0.00    +0.037 A 
ATOM     23  C   UNL     1      -1.145  -6.209  -1.120  0.00  0.00    +0.069 A 
BRANCH  18  24
ATOM     24  O   UNL     1       1.229  -6.172  -1.013  0.00  0.00    -0.492 OA
BRANCH  24  26
ATOM     25  C   UNL     1       3.636  -6.283  -0.829  0.00  0.00    +0.048 C 
ATOM     26  C   UNL     1       2.435  -5.463  -1.305  0.00  0.00    +0.225 C 
ENDBRANCH  24  26
ENDBRANCH  18  24
ENDBRANCH  14  22
ENDBRANCH   1  15
BRANCH  11  27
ATOM     27  N   UNL     1      -8.105  -3.348   0.488  0.00  0.00    -0.157 N 
ATOM     28  H   UNL     1      -8.992  -3.720   0.358  0.00  0.00    +0.194 HD
BRANCH  27  29
ATOM     29  S   UNL     1      -7.931  -1.773   0.968  0.00  0.00    +0.085 S 
ATOM     30  O   UNL     1      -9.201  -1.156   0.805  0.00  0.00    -0.149 OA
ATOM     31  O   UNL     1      -7.253  -1.801   2.216  0.00  0.00    -0.149 OA
BRANCH  29  32
ATOM     32  C   UNL     1      -6.843  -0.996  -0.180  0.00  0.00    +0.110 A 
ATOM     33  C   UNL     1      -5.478  -1.024   0.035  0.00  0.00    +0.029 A 
ATOM     34  C   UNL     1      -4.624  -0.415  -0.866  0.00  0.00    +0.005 A 
ATOM     35  C   UNL     1      -5.136   0.222  -1.981  0.00  0.00    -0.050 A 
ATOM     36  C   UNL     1      -6.501   0.250  -2.195  0.00  0.00    +0.005 A 
ATOM     37  C   UNL     1      -7.354  -0.363  -1.297  0.00  0.00    +0.029 A 
ATOM     38  C   UNL     1      -4.205   0.887  -2.962  0.00  0.00    +0.044 C 
ENDBRANCH  29  32
ENDBRANCH  27  29
ENDBRANCH  11  27
TORSDOF 7
