REMARK  Name = ZINC39958855
REMARK  7 active torsions:
REMARK  status: ('A' for Active; 'I' for Inactive)
REMARK    1  A    between atoms: C_1  and  C_2
REMARK    2  A    between atoms: C_2  and  C_30
REMARK    3  A    between atoms: C_4  and  N_10
REMARK    4  A    between atoms: C_6  and  C_8
REMARK    5  A    between atoms: C_6  and  C_9
REMARK    6  A    between atoms: C_11  and  C_13
REMARK    7  A    between atoms: C_16  and  C_20
REMARK                            x       y       z     vdW  Elec       q    Type
REMARK                         _______ _______ _______ _____ _____    ______ ____
ROOT
ATOM      1  N   UNL     1       1.633  -2.333  -2.511  0.00  0.00    -0.309 N 
ATOM      2  C   UNL     1       1.548  -3.603  -2.954  0.00  0.00    +0.259 C 
ATOM      3  O   UNL     1       0.917  -4.424  -2.323  0.00  0.00    -0.271 OA
ATOM      4  H   UNL     1       2.137  -1.676  -3.016  0.00  0.00    +0.149 HD
ENDROOT
BRANCH   1   8
ATOM      5  C   UNL     1      -0.019   1.542   0.011  0.00  0.00    -0.010 C 
ATOM      6  C   UNL     1       0.002  -0.004   0.002  0.00  0.00    -0.072 C 
ATOM      7  C   UNL     1       0.670  -0.443  -1.297  0.00  0.00    +0.009 C 
ATOM      8  C   UNL     1       0.963  -1.944  -1.265  0.00  0.00    +0.070 C 
ATOM      9  C   UNL     1       1.892  -2.223  -0.084  0.00  0.00    +0.009 C 
ATOM     10  C   UNL     1       1.233  -1.798   1.224  0.00  0.00    -0.072 C 
ATOM     11  N   UNL     1       0.711  -0.443   1.191  0.00  0.00    +0.386 N 
ATOM     12  C   UNL     1       2.314  -1.859   2.328  0.00  0.00    -0.010 C 
ATOM     13  C   UNL     1       0.143  -2.805   1.606  0.00  0.00    -0.010 C 
ATOM     14  C   UNL     1      -1.457  -0.473   0.018  0.00  0.00    -0.010 C 
ATOM     15  H   UNL     1       1.489   0.204   1.356  0.00  0.00    -0.084 HD
ATOM     16  H   UNL     1       0.093  -0.317   1.998  0.00  0.00    -0.084 HD
ENDBRANCH   1   8
BRANCH   2  17
ATOM     17  C   UNL     1       2.236  -4.003  -4.234  0.00  0.00    +0.297 C 
ATOM     18  N   UNL     1       1.546  -3.391  -5.388  0.00  0.00    -0.262 NA
ATOM     19  C   UNL     1       1.088  -4.513  -6.241  0.00  0.00    +0.180 C 
ATOM     20  N   UNL     1       1.989  -5.633  -5.858  0.00  0.00    -0.177 NA
ATOM     21  O   UNL     1       2.169  -5.431  -4.401  0.00  0.00    -0.270 OA
ATOM     22  H   UNL     1       0.767  -2.826  -5.085  0.00  0.00    +0.127 HD
ATOM     23  H   UNL     1       2.872  -5.569  -6.342  0.00  0.00    +0.156 HD
BRANCH  19  24
ATOM     24  C   UNL     1       1.251  -4.172  -7.699  0.00  0.00    -0.014 C 
ATOM     25  C   UNL     1       0.159  -4.145  -8.521  0.00  0.00    +0.012 C 
ATOM     26  C   UNL     1       0.418  -3.756  -9.848  0.00  0.00    -0.018 C 
ATOM     27  C   UNL     1      -0.152  -4.073 -11.022  0.00  0.00    +0.025 C 
ATOM     28  C   UNL     1       0.682  -3.640 -12.078  0.00  0.00    +0.106 C 
ATOM     29  N   UNL     1       1.700  -2.951 -11.648  0.00  0.00    -0.279 NA
ATOM     30  C   UNL     1       1.568  -2.828 -10.204  0.00  0.00    +0.158 C 
ATOM     31  C   UNL     1       2.764  -3.266  -9.413  0.00  0.00    +0.004 C 
ATOM     32  C   UNL     1       2.575  -3.864  -8.232  0.00  0.00    +0.005 C 
ENDBRANCH  19  24
ENDBRANCH   2  17
TORSDOF 3
