REMARK  Name = ZINC20467290
REMARK  10 active torsions:
REMARK  status: ('A' for Active; 'I' for Inactive)
REMARK    1  A    between atoms: C_1  and  C_2
REMARK    2  A    between atoms: C_2  and  N_3
REMARK    3  A    between atoms: N_6  and  C_7
REMARK    4  A    between atoms: C_11  and  C_36
REMARK    5  A    between atoms: C_14  and  C_24
REMARK    6  A    between atoms: C_16  and  O_23
REMARK    7  A    between atoms: C_20  and  C_22
REMARK    8  A    between atoms: C_24  and  C_26
REMARK    9  A    between atoms: C_24  and  C_27
REMARK   10  A    between atoms: N_29  and  C_30
REMARK                            x       y       z     vdW  Elec       q    Type
REMARK                         _______ _______ _______ _____ _____    ______ ____
ROOT
ATOM      1  C   UNL     1      -2.955   1.399   1.631  0.00  0.00    +0.078 C 
ATOM      2  C   UNL     1      -2.387   0.973   2.986  0.00  0.00    +0.023 C 
ATOM      3  C   UNL     1      -0.875   1.204   3.001  0.00  0.00    +0.009 C 
ATOM      4  C   UNL     1      -0.221   0.378   1.892  0.00  0.00    -0.027 C 
ATOM      5  C   UNL     1       1.291   0.610   1.907  0.00  0.00    +0.007 C 
ATOM      6  C   UNL     1       1.945  -0.217   0.797  0.00  0.00    +0.007 C 
ATOM      7  C   UNL     1       1.377   0.210  -0.558  0.00  0.00    +0.029 C 
ATOM      8  C   UNL     1      -0.135  -0.021  -0.573  0.00  0.00    +0.122 C 
ATOM      9  C   UNL     1      -0.789   0.805   0.536  0.00  0.00    +0.028 C 
ATOM     10  C   UNL     1      -2.301   0.573   0.521  0.00  0.00    +0.012 C 
ATOM     11  C   UNL     1      -2.869   1.000  -0.834  0.00  0.00    +0.010 C 
ATOM     12  C   UNL     1      -0.512  -1.106   2.122  0.00  0.00    +0.011 C 
ENDROOT
BRANCH   1  16
ATOM     13  N   UNL     1      -6.565   1.911   2.100  0.00  0.00    -0.300 N 
ATOM     14  C   UNL     1      -5.233   2.115   2.114  0.00  0.00    +0.300 C 
ATOM     15  O   UNL     1      -4.780   3.145   2.575  0.00  0.00    -0.253 OA
ATOM     16  N   UNL     1      -4.403   1.177   1.616  0.00  0.00    -0.296 N 
ATOM     17  H   UNL     1      -6.975   0.980   1.683  0.00  0.00    +0.150 HD
ATOM     18  H   UNL     1      -4.812   0.246   1.199  0.00  0.00    +0.151 HD
BRANCH  13  20
ATOM     19  C   UNL     1      -8.915   2.454   2.505  0.00  0.00    +0.024 C 
ATOM     20  C   UNL     1      -7.468   2.931   2.641  0.00  0.00    +0.102 C 
ENDBRANCH  13  20
ENDBRANCH   1  16
BRANCH   8  21
ATOM     21  O   UNL     1      -0.665   0.377  -1.839  0.00  0.00    -0.391 OA
ATOM     22  H   UNL     1      -1.743   0.283  -2.038  0.00  0.00    +0.210 HD
ENDBRANCH   8  21
BRANCH   7  23
ATOM     23  C   UNL     1       1.668   1.694  -0.788  0.00  0.00    +0.077 C 
ATOM     24  C   UNL     1       1.047   2.136  -2.115  0.00  0.00    +0.017 C 
BRANCH  23  25
ATOM     25  C   UNL     1       3.159   1.913  -0.834  0.00  0.00    +0.216 C 
ATOM     26  O   UNL     1       3.914   0.974  -0.696  0.00  0.00    -0.276 OA
ATOM     27  N   UNL     1       3.653   3.152  -1.028  0.00  0.00    -0.312 N 
ATOM     28  H   UNL     1       2.968   4.003  -1.154  0.00  0.00    +0.149 HD
BRANCH  27  29
ATOM     29  C   UNL     1       5.101   3.364  -1.073  0.00  0.00    +0.073 C 
ATOM     30  C   UNL     1       5.636   3.533   0.351  0.00  0.00    +0.022 C 
ATOM     31  C   UNL     1       7.149   3.755   0.304  0.00  0.00    +0.002 C 
ATOM     32  C   UNL     1       7.455   5.015  -0.509  0.00  0.00    +0.000 C 
ATOM     33  C   UNL     1       6.921   4.845  -1.932  0.00  0.00    +0.002 C 
ATOM     34  C   UNL     1       5.408   4.624  -1.886  0.00  0.00    +0.022 C 
ENDBRANCH  27  29
ENDBRANCH  23  25
ENDBRANCH   7  23
TORSDOF 6
