REMARK  Name = ZINC42739831
REMARK  8 active torsions:
REMARK  status: ('A' for Active; 'I' for Inactive)
REMARK    1  A    between atoms: C_1  and  C_2
REMARK    2  A    between atoms: C_2  and  N_3
REMARK    3  A    between atoms: N_3  and  C_4
REMARK    4  A    between atoms: N_3  and  C_9
REMARK    5  A    between atoms: C_4  and  C_5
REMARK    6  A    between atoms: C_12  and  S_16
REMARK    7  A    between atoms: C_14  and  N_15
REMARK    8  A    between atoms: S_16  and  N_19
REMARK                            x       y       z     vdW  Elec       q    Type
REMARK                         _______ _______ _______ _____ _____    ______ ____
ROOT
ATOM      1  C   UNL     1      -0.040  -0.713  -2.376  0.00  0.00    +0.051 A 
ATOM      2  C   UNL     1      -0.216   0.303  -3.302  0.00  0.00    +0.027 A 
ATOM      3  C   UNL     1      -0.935   0.067  -4.460  0.00  0.00    +0.030 A 
ATOM      4  C   UNL     1      -1.480  -1.181  -4.697  0.00  0.00    +0.107 A 
ATOM      5  C   UNL     1      -1.310  -2.200  -3.778  0.00  0.00    +0.053 A 
ATOM      6  C   UNL     1      -0.586  -1.974  -2.617  0.00  0.00    +0.048 A 
ENDROOT
BRANCH   6   7
ATOM      7  N   UNL     1      -0.408  -3.006  -1.688  0.00  0.00    -0.356 N 
ATOM      8  H   UNL     1       0.095  -2.845  -0.875  0.00  0.00    +0.142 HD
ATOM      9  H   UNL     1      -0.789  -3.882  -1.857  0.00  0.00    +0.142 HD
ENDBRANCH   6   7
BRANCH   4  10
ATOM     10  S   UNL     1      -2.396  -1.474  -6.174  0.00  0.00    +0.056 S 
ATOM     11  O   UNL     1      -3.264  -2.565  -5.904  0.00  0.00    -0.153 OA
ATOM     12  O   UNL     1      -2.874  -0.209  -6.612  0.00  0.00    -0.153 OA
BRANCH  10  13
ATOM     13  N   UNL     1      -1.321  -1.996  -7.320  0.00  0.00    -0.204 NA
ATOM     14  H   UNL     1      -0.381  -2.085  -7.099  0.00  0.00    +0.144 HD
ATOM     15  H   UNL     1      -1.632  -2.213  -8.213  0.00  0.00    +0.144 HD
ENDBRANCH  10  13
ENDBRANCH   4  10
BRANCH   1  16
ATOM     16  N   UNL     1       0.688  -0.476  -1.203  0.00  0.00    -0.320 N 
BRANCH  16  18
ATOM     17  C   UNL     1      -0.019   1.526   0.010  0.00  0.00    +0.024 C 
ATOM     18  C   UNL     1       0.002  -0.004   0.002  0.00  0.00    +0.102 C 
ENDBRANCH  16  18
BRANCH  16  19
ATOM     19  C   UNL     1       2.135  -0.701  -1.182  0.00  0.00    +0.218 C 
BRANCH  19  20
ATOM     20  C   UNL     1       2.421  -2.145  -0.763  0.00  0.00    +0.405 C 
ATOM     21  F   UNL     1       1.827  -3.022  -1.677  0.00  0.00    -0.169 F 
ATOM     22  F   UNL     1       3.804  -2.359  -0.743  0.00  0.00    -0.169 F 
ATOM     23  F   UNL     1       1.895  -2.373   0.512  0.00  0.00    -0.169 F 
ENDBRANCH  19  20
ENDBRANCH  16  19
ENDBRANCH   1  16
TORSDOF 7
