REMARK  Name = ZINC35666535
REMARK  13 active torsions:
REMARK  status: ('A' for Active; 'I' for Inactive)
REMARK    1  A    between atoms: C_1  and  C_2
REMARK    2  A    between atoms: C_2  and  C_3
REMARK    3  A    between atoms: C_2  and  C_4
REMARK    4  A    between atoms: C_4  and  C_6
REMARK    5  A    between atoms: C_4  and  N_28
REMARK    6  A    between atoms: C_10  and  O_26
REMARK    7  A    between atoms: C_11  and  O_24
REMARK    8  A    between atoms: N_19  and  C_20
REMARK    9  A    between atoms: C_20  and  C_21
REMARK   10  A    between atoms: C_20  and  C_22
REMARK   11  A    between atoms: C_20  and  C_23
REMARK   12  A    between atoms: O_24  and  C_25
REMARK   13  A    between atoms: O_26  and  C_27
REMARK                            x       y       z     vdW  Elec       q    Type
REMARK                         _______ _______ _______ _____ _____    ______ ____
ROOT
ATOM      1  C   UNL     1       0.747  -1.586  -0.747  0.00  0.00    +0.094 C 
ATOM      2  C   UNL     1      -0.720  -1.919  -0.861  0.00  0.00    -0.022 A 
ATOM      3  C   UNL     1      -1.591  -1.316   0.036  0.00  0.00    +0.055 A 
ATOM      4  C   UNL     1      -2.949  -1.571  -0.022  0.00  0.00    +0.162 A 
ATOM      5  C   UNL     1      -3.443  -2.440  -0.991  0.00  0.00    +0.162 A 
ATOM      6  C   UNL     1      -2.571  -3.042  -1.879  0.00  0.00    +0.053 A 
ATOM      7  C   UNL     1      -1.206  -2.787  -1.814  0.00  0.00    -0.037 A 
ATOM      8  C   UNL     1      -0.317  -3.501  -2.798  0.00  0.00    +0.054 C 
ATOM      9  C   UNL     1       1.028  -2.788  -2.933  0.00  0.00    +0.114 C 
ATOM     10  N   UNL     1       1.528  -2.508  -1.578  0.00  0.00    -0.280 N 
ATOM     11  C   UNL     1       2.661  -3.076  -1.119  0.00  0.00    +0.303 C 
ATOM     12  O   UNL     1       3.008  -2.897   0.033  0.00  0.00    -0.253 OA
ATOM     13  N   UNL     1       3.410  -3.842  -1.937  0.00  0.00    -0.294 N 
ATOM     14  H   UNL     1       3.170  -3.931  -2.872  0.00  0.00    +0.151 HD
ENDROOT
BRANCH  13  15
ATOM     15  C   UNL     1       4.587  -4.539  -1.413  0.00  0.00    +0.028 C 
ATOM     16  C   UNL     1       4.159  -5.497  -0.299  0.00  0.00    +0.031 C 
ATOM     17  C   UNL     1       5.254  -5.332  -2.539  0.00  0.00    +0.031 C 
ATOM     18  C   UNL     1       5.579  -3.517  -0.853  0.00  0.00    +0.031 C 
ENDBRANCH  13  15
BRANCH   5  19
ATOM     19  O   UNL     1      -4.776  -2.697  -1.063  0.00  0.00    -0.491 OA
ATOM     20  C   UNL     1      -5.209  -3.599  -2.083  0.00  0.00    +0.277 C 
ENDBRANCH   5  19
BRANCH   4  21
ATOM     21  O   UNL     1      -3.796  -0.978   0.861  0.00  0.00    -0.491 OA
ATOM     22  C   UNL     1      -3.232  -0.015   1.754  0.00  0.00    +0.277 C 
ENDBRANCH   4  21
BRANCH   1  23
ATOM     23  C   UNL     1       0.981  -0.150  -1.221  0.00  0.00    -0.047 C 
BRANCH  23  24
ATOM     24  N   UNL     1       0.593  -0.032  -2.633  0.00  0.00    +0.382 N 
ATOM     25  H   UNL     1       1.321  -0.417  -3.215  0.00  0.00    -0.090 HD
ATOM     26  H   UNL     1      -0.266  -0.537  -2.789  0.00  0.00    -0.090 HD
ATOM     27  H   UNL     1       0.458   0.941  -2.864  0.00  0.00    -0.090 HD
ENDBRANCH  23  24
BRANCH  23  29
ATOM     28  C   UNL     1       2.724   1.580  -1.679  0.00  0.00    +0.005 C 
ATOM     29  C   UNL     1       2.462   0.202  -1.067  0.00  0.00    -0.030 C 
ATOM     30  C   UNL     1       2.830   0.225   0.417  0.00  0.00    +0.005 C 
ENDBRANCH  23  29
ENDBRANCH   1  23
TORSDOF 6
