REMARK  Name = ZINC37163237
REMARK  7 active torsions:
REMARK  status: ('A' for Active; 'I' for Inactive)
REMARK    1  A    between atoms: C_1  and  C_2
REMARK    2  A    between atoms: C_5  and  C_7
REMARK    3  A    between atoms: C_7  and  C_9
REMARK    4  A    between atoms: C_7  and  N_10
REMARK    5  A    between atoms: N_10  and  C_11
REMARK    6  A    between atoms: C_11  and  C_13
REMARK    7  A    between atoms: C_11  and  C_14
REMARK                            x       y       z     vdW  Elec       q    Type
REMARK                         _______ _______ _______ _____ _____    ______ ____
ROOT
ATOM      1  C   UNL     1       2.739  -5.517   0.854  0.00  0.00    -0.043 C 
ATOM      2  C   UNL     1       3.374  -5.792  -0.510  0.00  0.00    -0.009 C 
ENDROOT
BRANCH   1   3
ATOM      3  C   UNL     1       3.776  -5.687   1.935  0.00  0.00    -0.060 A 
ATOM      4  C   UNL     1       4.677  -4.668   2.192  0.00  0.00    +0.004 A 
ATOM      5  C   UNL     1       5.631  -4.814   3.180  0.00  0.00    +0.028 A 
ATOM      6  C   UNL     1       5.687  -5.987   3.917  0.00  0.00    +0.067 A 
ATOM      7  C   UNL     1       4.778  -7.015   3.657  0.00  0.00    +0.067 A 
ATOM      8  C   UNL     1       3.820  -6.857   2.667  0.00  0.00    +0.029 A 
ATOM      9  N   UNL     1       5.076  -8.048   4.543  0.00  0.00    -0.306 N 
ATOM     10  H   UNL     1       4.612  -8.898   4.600  0.00  0.00    +0.170 HD
ATOM     11  C   UNL     1       6.117  -7.666   5.306  0.00  0.00    +0.325 A 
ATOM     12  O   UNL     1       6.628  -8.339   6.182  0.00  0.00    -0.247 OA
ATOM     13  N   UNL     1       6.508  -6.427   4.952  0.00  0.00    -0.306 N 
ATOM     14  H   UNL     1       7.237  -5.927   5.350  0.00  0.00    +0.170 HD
ENDBRANCH   1   3
BRANCH   1  15
ATOM     15  N   UNL     1       2.220  -4.143   0.885  0.00  0.00    +0.388 N 
ATOM     16  H   UNL     1       2.955  -3.500   0.629  0.00  0.00    -0.084 HD
ATOM     17  H   UNL     1       1.894  -3.928   1.816  0.00  0.00    -0.084 HD
BRANCH  15  18
ATOM     18  C   UNL     1       1.107  -4.018  -0.065  0.00  0.00    -0.036 C 
ATOM     19  C   UNL     1       0.657  -2.558  -0.134  0.00  0.00    -0.008 C 
BRANCH  18  24
ATOM     20  C   UNL     1      -2.979  -6.930   2.566  0.00  0.00    +0.051 C 
ATOM     21  C   UNL     1      -1.988  -6.263   1.646  0.00  0.00    -0.013 A 
ATOM     22  C   UNL     1      -1.876  -6.359   0.298  0.00  0.00    +0.011 A 
ATOM     23  C   UNL     1      -0.879  -5.648  -0.343  0.00  0.00    +0.010 A 
ATOM     24  C   UNL     1      -0.043  -4.877   0.394  0.00  0.00    -0.024 A 
ATOM     25  S   UNL     1      -0.663  -5.137   2.048  0.00  0.00    -0.100 S 
ENDBRANCH  18  24
ENDBRANCH  15  18
ENDBRANCH   1  15
TORSDOF 4
