REMARK  Name = ZINC43596612
REMARK  7 active torsions:
REMARK  status: ('A' for Active; 'I' for Inactive)
REMARK    1  A    between atoms: C_1  and  C_2
REMARK    2  A    between atoms: N_8  and  C_9
REMARK    3  A    between atoms: C_9  and  C_10
REMARK    4  A    between atoms: C_10  and  C_11
REMARK    5  A    between atoms: C_11  and  N_12
REMARK    6  A    between atoms: N_12  and  C_13
REMARK    7  A    between atoms: C_16  and  N_20
REMARK                            x       y       z     vdW  Elec       q    Type
REMARK                         _______ _______ _______ _____ _____    ______ ____
ROOT
ATOM      1  N   UNL     1       0.983  -0.177   6.069  0.00  0.00    -0.343 N 
ATOM      2  H   UNL     1       1.787  -0.710   5.968  0.00  0.00    +0.146 HD
ENDROOT
BRANCH   1   3
ATOM      3  C   UNL     1       0.563   0.224   7.343  0.00  0.00    +0.041 A 
ATOM      4  C   UNL     1      -0.591   0.983   7.487  0.00  0.00    +0.026 A 
ATOM      5  C   UNL     1      -1.005   1.378   8.744  0.00  0.00    +0.024 A 
ATOM      6  C   UNL     1      -0.267   1.018   9.864  0.00  0.00    +0.026 A 
ATOM      7  C   UNL     1       0.887   0.260   9.720  0.00  0.00    +0.039 A 
ATOM      8  C   UNL     1       1.298  -0.141   8.464  0.00  0.00    +0.040 A 
ATOM      9 BR   UNL     1       2.866  -1.181   8.268  0.00  0.00    -0.048 Br
BRANCH   6  10
ATOM     10  N   UNL     1      -0.687   1.419  11.138  0.00  0.00    -0.358 N 
ATOM     11  H   UNL     1      -1.493   1.949  11.238  0.00  0.00    +0.142 HD
ATOM     12  H   UNL     1      -0.171   1.168  11.920  0.00  0.00    +0.142 HD
ENDBRANCH   6  10
ENDBRANCH   1   3
BRANCH   1  13
ATOM     13  C   UNL     1       0.207   0.209   4.887  0.00  0.00    +0.100 C 
BRANCH  13  14
ATOM     14  C   UNL     1       0.877  -0.353   3.631  0.00  0.00    +0.000 C 
BRANCH  14  15
ATOM     15  C   UNL     1       0.067   0.050   2.397  0.00  0.00    -0.077 C 
BRANCH  15  22
ATOM     16  C   UNL     1      -0.019   1.526   0.010  0.00  0.00    -0.013 C 
ATOM     17  C   UNL     1       0.002  -0.004   0.002  0.00  0.00    -0.072 C 
ATOM     18  C   UNL     1       0.717  -0.497  -1.258  0.00  0.00    -0.016 C 
ATOM     19  C   UNL     1       0.735  -2.028  -1.262  0.00  0.00    -0.003 C 
ATOM     20  C   UNL     1       1.410  -2.524   0.020  0.00  0.00    -0.019 C 
ATOM     21  C   UNL     1       0.669  -1.956   1.232  0.00  0.00    -0.078 C 
ATOM     22  N   UNL     1       0.711  -0.490   1.192  0.00  0.00    +0.381 N 
ATOM     23  H   UNL     1       1.671  -0.182   1.159  0.00  0.00    -0.081 HD
ENDBRANCH  15  22
ENDBRANCH  14  15
ENDBRANCH  13  14
ENDBRANCH   1  13
TORSDOF 6
