REMARK  Name = ZINC52094486
REMARK  4 active torsions:
REMARK  status: ('A' for Active; 'I' for Inactive)
REMARK    1  A    between atoms: C_1  and  N_2
REMARK    2  A    between atoms: N_2  and  C_3
REMARK    3  A    between atoms: C_3  and  C_5
REMARK    4  A    between atoms: C_3  and  C_12
REMARK                            x       y       z     vdW  Elec       q    Type
REMARK                         _______ _______ _______ _____ _____    ______ ____
ROOT
ATOM      1  C   UNL     1       0.106  -0.110   2.518  0.00  0.00    -0.041 A 
ATOM      2  C   UNL     1      -1.265  -0.007   2.643  0.00  0.00    +0.031 A 
ATOM      3  C   UNL     1      -1.823   0.344   3.863  0.00  0.00    +0.067 A 
ATOM      4  C   UNL     1      -0.996   0.592   4.961  0.00  0.00    +0.068 A 
ATOM      5  C   UNL     1       0.380   0.487   4.826  0.00  0.00    +0.043 A 
ATOM      6  C   UNL     1       0.927   0.131   3.608  0.00  0.00    +0.022 A 
ATOM      7 BR   UNL     1       2.803  -0.021   3.425  0.00  0.00    -0.050 Br
ATOM      8  N   UNL     1      -1.829   0.916   6.028  0.00  0.00    -0.306 N 
ATOM      9  H   UNL     1      -1.540   1.140   6.927  0.00  0.00    +0.170 HD
ATOM     10  C   UNL     1      -3.105   0.868   5.600  0.00  0.00    +0.325 A 
ATOM     11  O   UNL     1      -4.083   1.099   6.285  0.00  0.00    -0.247 OA
ATOM     12  N   UNL     1      -3.134   0.525   4.298  0.00  0.00    -0.306 N 
ATOM     13  H   UNL     1      -3.931   0.423   3.756  0.00  0.00    +0.170 HD
ENDROOT
BRANCH   1  14
ATOM     14  C   UNL     1       0.713  -0.491   1.192  0.00  0.00    -0.008 C 
BRANCH  14  15
ATOM     15  C   UNL     1       0.921  -1.982   1.145  0.00  0.00    -0.044 A 
ATOM     16  C   UNL     1       0.257  -2.801   2.040  0.00  0.00    +0.003 A 
ATOM     17  C   UNL     1       0.448  -4.170   1.997  0.00  0.00    +0.000 A 
ATOM     18  C   UNL     1       1.302  -4.720   1.059  0.00  0.00    +0.001 A 
ATOM     19  C   UNL     1       1.966  -3.902   0.165  0.00  0.00    +0.014 A 
ATOM     20  C   UNL     1       1.771  -2.533   0.204  0.00  0.00    +0.015 A 
ATOM     21  I   UNL     1       2.770  -1.293  -1.157  0.00  0.00    -0.044 I 
ENDBRANCH  14  15
BRANCH  14  23
ATOM     22  C   UNL     1      -0.300   1.377   0.078  0.00  0.00    -0.099 C 
ATOM     23  N   UNL     1      -0.192  -0.088   0.107  0.00  0.00    +0.384 N 
ATOM     24  H   UNL     1      -1.104  -0.490   0.262  0.00  0.00    -0.085 HD
ATOM     25  H   UNL     1       0.174  -0.416  -0.775  0.00  0.00    -0.085 HD
ENDBRANCH  14  23
ENDBRANCH   1  14
TORSDOF 3
