REMARK  Name = ZINC63089922
REMARK  8 active torsions:
REMARK  status: ('A' for Active; 'I' for Inactive)
REMARK    1  A    between atoms: C_1  and  C_2
REMARK    2  A    between atoms: C_2  and  C_4
REMARK    3  A    between atoms: C_2  and  N_9
REMARK    4  A    between atoms: C_4  and  C_5
REMARK    5  A    between atoms: N_6  and  O_7
REMARK    6  A    between atoms: N_9  and  C_10
REMARK    7  A    between atoms: N_9  and  C_11
REMARK    8  A    between atoms: C_11  and  C_12
REMARK                            x       y       z     vdW  Elec       q    Type
REMARK                         _______ _______ _______ _____ _____    ______ ____
ROOT
ATOM      1  N   UNL     1      -1.513  -0.210   0.143  0.00  0.00    +0.383 N 
ATOM      2  C   UNL     1      -1.435  -1.665  -0.046  0.00  0.00    -0.095 C 
ATOM      3  H   UNL     1      -1.784  -0.009   1.094  0.00  0.00    -0.081 HD
ENDROOT
BRANCH   1   5
ATOM      4  C   UNL     1      -0.295   1.910   0.010  0.00  0.00    -0.013 C 
ATOM      5  C   UNL     1      -0.200   0.390  -0.129  0.00  0.00    -0.065 C 
BRANCH   5   6
ATOM      6  C   UNL     1       0.825  -0.150   0.871  0.00  0.00    +0.059 C 
BRANCH   6   7
ATOM      7  C   UNL     1       2.200   0.335   0.493  0.00  0.00    +0.130 C 
ATOM      8  N   UNL     1       2.373   0.996  -0.603  0.00  0.00    -0.077 NA
ATOM      9  N   UNL     1       3.273   0.073   1.315  0.00  0.00    -0.344 N 
ATOM     10  H   UNL     1       3.144  -0.424   2.138  0.00  0.00    +0.143 HD
ATOM     11  H   UNL     1       4.159   0.385   1.071  0.00  0.00    +0.143 HD
BRANCH   8  12
ATOM     12  O   UNL     1       3.666   1.452  -0.959  0.00  0.00    -0.408 OA
ATOM     13  H   UNL     1       3.695   1.937  -1.795  0.00  0.00    +0.328 HD
ENDBRANCH   8  12
ENDBRANCH   6   7
ENDBRANCH   5   6
ENDBRANCH   1   5
BRANCH   1  14
ATOM     14  C   UNL     1      -2.508   0.351  -0.779  0.00  0.00    -0.042 C 
BRANCH  14  15
ATOM     15  C   UNL     1      -3.876  -0.171  -0.421  0.00  0.00    -0.047 A 
ATOM     16  C   UNL     1      -4.425  -1.219  -1.137  0.00  0.00    +0.041 A 
ATOM     17  C   UNL     1      -5.681  -1.698  -0.808  0.00  0.00    +0.124 A 
ATOM     18  C   UNL     1      -6.387  -1.128   0.238  0.00  0.00    +0.039 A 
ATOM     19  C   UNL     1      -5.837  -0.081   0.952  0.00  0.00    +0.018 A 
ATOM     20  C   UNL     1      -4.579   0.394   0.626  0.00  0.00    +0.019 A 
ATOM     21 BR   UNL     1      -3.824   1.822   1.610  0.00  0.00    -0.050 Br
ATOM     22  F   UNL     1      -6.218  -2.722  -1.507  0.00  0.00    -0.205 F 
ENDBRANCH  14  15
ENDBRANCH   1  14
TORSDOF 6
