REMARK  Name = ZINC49415358
REMARK  8 active torsions:
REMARK  status: ('A' for Active; 'I' for Inactive)
REMARK    1  A    between atoms: C_1  and  C_2
REMARK    2  A    between atoms: C_2  and  C_3
REMARK    3  A    between atoms: C_2  and  N_4
REMARK    4  A    between atoms: C_7  and  C_10
REMARK    5  A    between atoms: C_10  and  N_11
REMARK    6  A    between atoms: N_14  and  C_15
REMARK    7  A    between atoms: C_15  and  C_16
REMARK    8  A    between atoms: C_16  and  N_17
REMARK                            x       y       z     vdW  Elec       q    Type
REMARK                         _______ _______ _______ _____ _____    ______ ____
ROOT
ATOM      1  N   UNL     1      -0.601  -2.239   5.447  0.00  0.00    -0.299 N 
ATOM      2  C   UNL     1      -0.515  -2.268   6.792  0.00  0.00    +0.300 C 
ATOM      3  O   UNL     1      -0.099  -1.298   7.396  0.00  0.00    -0.253 OA
ATOM      4  N   UNL     1      -0.889  -3.373   7.467  0.00  0.00    -0.298 N 
ATOM      5  H   UNL     1      -0.933  -3.013   4.966  0.00  0.00    +0.150 HD
ATOM      6  H   UNL     1      -1.221  -4.146   6.986  0.00  0.00    +0.150 HD
ENDROOT
BRANCH   1   7
ATOM      7  C   UNL     1      -0.194  -1.038   4.713  0.00  0.00    +0.107 C 
BRANCH   7  11
ATOM      8  N   UNL     1       0.713  -0.491   1.192  0.00  0.00    +0.381 N 
ATOM      9  C   UNL     1       0.717  -1.969   1.199  0.00  0.00    -0.078 C 
ATOM     10  C   UNL     1       0.581  -2.358   2.692  0.00  0.00    -0.015 C 
ATOM     11  C   UNL     1      -0.391  -1.266   3.213  0.00  0.00    -0.012 C 
ATOM     12  C   UNL     1       0.026  -0.018   2.408  0.00  0.00    -0.074 C 
ATOM     13  H   UNL     1       1.662  -0.150   1.184  0.00  0.00    -0.081 HD
BRANCH   8  15
ATOM     14  C   UNL     1      -0.019   1.526   0.010  0.00  0.00    -0.014 C 
ATOM     15  C   UNL     1       0.002  -0.004   0.002  0.00  0.00    -0.075 C 
ATOM     16  C   UNL     1       0.718  -0.497  -1.257  0.00  0.00    -0.014 C 
ENDBRANCH   8  15
ENDBRANCH   7  11
ENDBRANCH   1   7
BRANCH   4  17
ATOM     17  C   UNL     1      -0.795  -3.405   8.929  0.00  0.00    +0.127 C 
BRANCH  17  18
ATOM     18  C   UNL     1      -1.278  -4.763   9.442  0.00  0.00    +0.141 C 
BRANCH  18  19
ATOM     19  N   UNL     1      -1.184  -4.795  10.903  0.00  0.00    -0.337 N 
ATOM     20  C   UNL     1      -0.104  -5.200  11.639  0.00  0.00    +0.104 A 
ATOM     21  C   UNL     1      -0.443  -5.068  12.935  0.00  0.00    +0.101 A 
ATOM     22  N   UNL     1      -1.697  -4.595  12.990  0.00  0.00    -0.352 N 
ATOM     23  C   UNL     1      -2.146  -4.424  11.777  0.00  0.00    +0.173 A 
ATOM     24  H   UNL     1      -2.191  -4.406  13.803  0.00  0.00    +0.166 HD
ENDBRANCH  18  19
ENDBRANCH  17  18
ENDBRANCH   4  17
TORSDOF 6
