REMARK  Name = ZINC63362617
REMARK  9 active torsions:
REMARK  status: ('A' for Active; 'I' for Inactive)
REMARK    1  A    between atoms: C_1  and  C_2
REMARK    2  A    between atoms: C_2  and  C_3
REMARK    3  A    between atoms: C_3  and  C_4
REMARK    4  A    between atoms: C_4  and  O_5
REMARK    5  A    between atoms: O_5  and  C_6
REMARK    6  A    between atoms: C_9  and  N_12
REMARK    7  A    between atoms: C_13  and  C_15
REMARK    8  A    between atoms: C_18  and  N_21
REMARK    9  A    between atoms: C_24  and  C_40
REMARK                            x       y       z     vdW  Elec       q    Type
REMARK                         _______ _______ _______ _____ _____    ______ ____
ROOT
ATOM      1  C   UNL     1      -4.802 -10.045   0.200  0.00  0.00    +0.037 A 
ATOM      2  C   UNL     1      -3.682 -10.880   0.175  0.00  0.00    +0.015 A 
ATOM      3  C   UNL     1      -3.840 -12.244   0.273  0.00  0.00    +0.025 A 
ATOM      4  C   UNL     1      -5.112 -12.791   0.396  0.00  0.00    +0.045 A 
ATOM      5  C   UNL     1      -6.229 -11.964   0.422  0.00  0.00    +0.025 A 
ATOM      6  C   UNL     1      -6.078 -10.598   0.331  0.00  0.00    +0.015 A 
ENDROOT
BRANCH   4   7
ATOM      7  N   UNL     1      -5.269 -14.177   0.494  0.00  0.00    -0.192 N 
ATOM      8  C   UNL     1      -6.462 -14.807   0.494  0.00  0.00    +0.253 C 
ATOM      9  O   UNL     1      -7.560 -14.296   0.447  0.00  0.00    -0.272 OA
ATOM     10  C   UNL     1      -6.143 -16.284   0.564  0.00  0.00    +0.137 C 
ATOM     11  C   UNL     1      -6.773 -16.914   1.806  0.00  0.00    +0.139 C 
ATOM     12  C   UNL     1      -5.639 -17.283   2.751  0.00  0.00    -0.034 C 
ATOM     13  C   UNL     1      -5.905 -16.675   3.905  0.00  0.00    -0.001 A 
ATOM     14  C   UNL     1      -5.216 -16.705   5.205  0.00  0.00    +0.010 A 
ATOM     15  C   UNL     1      -5.762 -15.942   6.189  0.00  0.00    +0.001 A 
ATOM     16  C   UNL     1      -6.909 -15.163   6.011  0.00  0.00    +0.002 A 
ATOM     17  C   UNL     1      -7.609 -15.081   4.851  0.00  0.00    +0.026 A 
ATOM     18  C   UNL     1      -7.134 -15.842   3.744  0.00  0.00    +0.043 A 
ATOM     19  N   UNL     1      -7.621 -15.964   2.529  0.00  0.00    -0.375 N 
ATOM     20  C   UNL     1      -4.451 -18.120   2.345  0.00  0.00    +0.052 C 
ATOM     21  C   UNL     1      -3.879 -17.495   1.057  0.00  0.00    +0.115 C 
ATOM     22  N   UNL     1      -4.676 -16.307   0.740  0.00  0.00    -0.268 N 
ATOM     23  C   UNL     1      -4.252 -15.044   0.594  0.00  0.00    +0.316 C 
ATOM     24  O   UNL     1      -3.081 -14.722   0.560  0.00  0.00    -0.252 OA
ATOM     25  C   UNL     1      -6.563 -17.006  -0.718  0.00  0.00    +0.044 C 
ATOM     26  H   UNL     1      -8.398 -15.509   2.168  0.00  0.00    +0.160 HD
ENDBRANCH   4   7
BRANCH   1  28
ATOM     27  N   UNL     1      -3.405  -8.050  -0.030  0.00  0.00    -0.281 N 
ATOM     28  C   UNL     1      -4.637  -8.582   0.096  0.00  0.00    +0.248 C 
ATOM     29  O   UNL     1      -5.612  -7.856   0.123  0.00  0.00    -0.270 OA
ATOM     30  H   UNL     1      -2.634  -8.630  -0.129  0.00  0.00    +0.155 HD
BRANCH  27  34
ATOM     31  C   UNL     1      -2.908  -3.911   0.007  0.00  0.00    +0.121 A 
ATOM     32  C   UNL     1      -2.071  -4.702  -0.766  0.00  0.00    +0.047 A 
ATOM     33  C   UNL     1      -2.235  -6.074  -0.779  0.00  0.00    +0.027 A 
ATOM     34  C   UNL     1      -3.237  -6.660  -0.017  0.00  0.00    +0.034 A 
ATOM     35  C   UNL     1      -4.074  -5.866   0.756  0.00  0.00    +0.027 A 
ATOM     36  C   UNL     1      -3.905  -4.496   0.772  0.00  0.00    +0.047 A 
BRANCH  31  37
ATOM     37  O   UNL     1      -2.745  -2.561   0.018  0.00  0.00    -0.492 OA
BRANCH  37  38
ATOM     38  C   UNL     1      -1.698  -2.026  -0.794  0.00  0.00    +0.229 C 
BRANCH  38  39
ATOM     39  C   UNL     1      -1.670  -0.503  -0.652  0.00  0.00    +0.041 C 
BRANCH  39  41
ATOM     40  C   UNL     1      -0.521   1.593  -1.379  0.00  0.00    +0.004 C 
ATOM     41  C   UNL     1      -0.549   0.070  -1.521  0.00  0.00    -0.000 C 
ENDBRANCH  39  41
ENDBRANCH  38  39
ENDBRANCH  37  38
ENDBRANCH  31  37
ENDBRANCH  27  34
ENDBRANCH   1  28
TORSDOF 7
