REMARK  Name = ZINC12292233
REMARK  10 active torsions:
REMARK  status: ('A' for Active; 'I' for Inactive)
REMARK    1  A    between atoms: C_1  and  C_2
REMARK    2  A    between atoms: C_5  and  C_9
REMARK    3  A    between atoms: C_7  and  C_8
REMARK    4  A    between atoms: C_9  and  C_11
REMARK    5  A    between atoms: C_9  and  O_26
REMARK    6  A    between atoms: C_11  and  N_55
REMARK    7  A    between atoms: C_14  and  C_17
REMARK    8  A    between atoms: C_14  and  O_25
REMARK    9  A    between atoms: C_20  and  O_23
REMARK   10  A    between atoms: O_23  and  C_24
REMARK                            x       y       z     vdW  Elec       q    Type
REMARK                         _______ _______ _______ _____ _____    ______ ____
ROOT
ATOM      1  C   UNL     1      -0.754   1.594  -1.231  0.00  0.00    -0.076 C 
ATOM      2  C   UNL     1      -0.013   1.086   0.008  0.00  0.00    +0.021 C 
ATOM      3  C   UNL     1      -0.731   1.580   1.267  0.00  0.00    +0.088 C 
ATOM      4  C   UNL     1      -0.801   3.110   1.237  0.00  0.00    +0.021 C 
ATOM      5  C   UNL     1      -1.520   3.559  -0.037  0.00  0.00    -0.076 C 
ATOM      6  N   UNL     1      -0.765   3.072  -1.211  0.00  0.00    +0.382 N 
ATOM      7  H   UNL     1       0.202   3.411  -1.149  0.00  0.00    -0.082 HD
ENDROOT
BRANCH   3   8
ATOM      8  C   UNL     1       0.029   1.134   2.489  0.00  0.00    -0.016 A 
ATOM      9  C   UNL     1       1.400   0.965   2.425  0.00  0.00    +0.010 A 
ATOM     10  C   UNL     1       2.100   0.561   3.546  0.00  0.00    +0.046 A 
ATOM     11  C   UNL     1       1.425   0.314   4.732  0.00  0.00    +0.120 A 
ATOM     12  C   UNL     1       0.049   0.479   4.792  0.00  0.00    +0.046 A 
ATOM     13  C   UNL     1      -0.646   0.889   3.670  0.00  0.00    +0.010 A 
BRANCH  11  14
ATOM     14  O   UNL     1       2.111  -0.088   5.834  0.00  0.00    -0.495 OA
ATOM     15  C   UNL     1       3.526  -0.237   5.700  0.00  0.00    +0.277 C 
ENDBRANCH  11  14
ENDBRANCH   3   8
BRANCH   3  16
ATOM     16  O   UNL     1      -2.055   1.043   1.303  0.00  0.00    -0.384 OA
ATOM     17  H   UNL     1      -2.568   1.316   2.076  0.00  0.00    +0.211 HD
ENDBRANCH   3  16
BRANCH   6  18
ATOM     18  C   UNL     1      -1.375   3.588  -2.454  0.00  0.00    -0.042 C 
BRANCH  18  19
ATOM     19  C   UNL     1      -1.173   5.104  -2.509  0.00  0.00    +0.128 C 
BRANCH  19  24
ATOM     20  C   UNL     1      -3.870   7.239  -7.152  0.00  0.00    +0.044 C 
ATOM     21  C   UNL     1      -3.166   6.683  -5.941  0.00  0.00    -0.048 A 
ATOM     22  C   UNL     1      -1.927   6.084  -6.075  0.00  0.00    +0.004 A 
ATOM     23  C   UNL     1      -1.281   5.577  -4.964  0.00  0.00    +0.006 A 
ATOM     24  C   UNL     1      -1.876   5.661  -3.719  0.00  0.00    -0.021 A 
ATOM     25  C   UNL     1      -3.114   6.261  -3.585  0.00  0.00    +0.009 A 
ATOM     26  C   UNL     1      -3.759   6.772  -4.696  0.00  0.00    -0.047 A 
ATOM     27  C   UNL     1      -5.109   7.426  -4.549  0.00  0.00    +0.044 C 
ENDBRANCH  19  24
BRANCH  19  28
ATOM     28  O   UNL     1       0.223   5.396  -2.592  0.00  0.00    -0.389 OA
ATOM     29  H   UNL     1       0.657   5.022  -3.371  0.00  0.00    +0.210 HD
ENDBRANCH  19  28
ENDBRANCH  18  19
ENDBRANCH   6  18
TORSDOF 7
