REMARK  Name = ZINC34683850
REMARK  10 active torsions:
REMARK  status: ('A' for Active; 'I' for Inactive)
REMARK    1  A    between atoms: C_1  and  O_2
REMARK    2  A    between atoms: O_2  and  C_3
REMARK    3  A    between atoms: C_6  and  C_11
REMARK    4  A    between atoms: C_7  and  O_9
REMARK    5  A    between atoms: O_9  and  C_10
REMARK    6  A    between atoms: C_11  and  N_12
REMARK    7  A    between atoms: C_15  and  N_18
REMARK    8  A    between atoms: N_18  and  C_19
REMARK    9  A    between atoms: N_18  and  S_28
REMARK   10  A    between atoms: S_28  and  C_31
REMARK                            x       y       z     vdW  Elec       q    Type
REMARK                         _______ _______ _______ _____ _____    ______ ____
ROOT
ATOM      1  N   UNL     1      -7.175  -3.697   5.125  0.00  0.00    -0.200 N 
ENDROOT
BRANCH   1   2
ATOM      2  C   UNL     1      -6.197  -4.424   5.810  0.00  0.00    +0.055 A 
ATOM      3  C   UNL     1      -5.737  -5.628   5.294  0.00  0.00    +0.028 A 
ATOM      4  C   UNL     1      -4.770  -6.347   5.970  0.00  0.00    +0.051 A 
ATOM      5  C   UNL     1      -4.256  -5.870   7.165  0.00  0.00    +0.166 A 
ATOM      6  C   UNL     1      -4.715  -4.662   7.686  0.00  0.00    +0.168 A 
ATOM      7  C   UNL     1      -5.681  -3.939   7.005  0.00  0.00    +0.074 A 
ATOM      8  O   UNL     1      -4.061  -4.415   8.858  0.00  0.00    -0.453 OA
ATOM      9  C   UNL     1      -3.496  -5.678   9.257  0.00  0.00    +0.466 C 
ATOM     10  O   UNL     1      -3.313  -6.379   8.012  0.00  0.00    -0.453 OA
ENDBRANCH   1   2
BRANCH   1  14
ATOM     11  N   UNL     1      -4.854  -2.400   1.854  0.00  0.00    +0.383 N 
ATOM     12  C   UNL     1      -5.253  -1.376   2.827  0.00  0.00    -0.077 C 
ATOM     13  C   UNL     1      -5.657  -2.047   4.142  0.00  0.00    +0.006 C 
ATOM     14  C   UNL     1      -6.832  -2.995   3.885  0.00  0.00    +0.095 C 
ATOM     15  C   UNL     1      -6.430  -4.013   2.814  0.00  0.00    +0.006 C 
ATOM     16  C   UNL     1      -5.997  -3.269   1.549  0.00  0.00    -0.077 C 
ATOM     17  H   UNL     1      -4.105  -2.955   2.241  0.00  0.00    -0.081 HD
BRANCH  11  18
ATOM     18  C   UNL     1      -4.393  -1.749   0.621  0.00  0.00    -0.039 C 
BRANCH  18  22
ATOM     19  C   UNL     1      -0.855   0.511   1.441  0.00  0.00    +0.124 A 
ATOM     20  C   UNL     1      -2.086   1.147   1.359  0.00  0.00    +0.046 A 
ATOM     21  C   UNL     1      -3.227   0.414   1.094  0.00  0.00    +0.009 A 
ATOM     22  C   UNL     1      -3.146  -0.953   0.909  0.00  0.00    -0.022 A 
ATOM     23  C   UNL     1      -1.918  -1.593   0.990  0.00  0.00    +0.125 A 
ATOM     24  C   UNL     1      -0.771  -0.860   1.250  0.00  0.00    +0.091 A 
BRANCH  19  26
ATOM     25  C   UNL     1       0.105   2.639   1.887  0.00  0.00    +0.277 C 
ATOM     26  O   UNL     1       0.267   1.232   1.702  0.00  0.00    -0.495 OA
ENDBRANCH  19  26
BRANCH  23  27
ATOM     27  O   UNL     1      -1.839  -2.938   0.808  0.00  0.00    -0.495 OA
ATOM     28  C   UNL     1      -0.542  -3.530   0.905  0.00  0.00    +0.277 C 
ENDBRANCH  23  27
ENDBRANCH  18  22
ENDBRANCH  11  18
ENDBRANCH   1  14
BRANCH   1  29
ATOM     29  S   UNL     1      -8.722  -3.630   5.713  0.00  0.00    +0.075 S 
ATOM     30  O   UNL     1      -8.652  -4.005   7.082  0.00  0.00    -0.150 OA
ATOM     31  O   UNL     1      -9.263  -2.385   5.291  0.00  0.00    -0.150 OA
BRANCH  29  32
ATOM     32  C   UNL     1      -9.646  -4.885   4.893  0.00  0.00    +0.109 A 
ATOM     33  C   UNL     1     -10.298  -4.601   3.708  0.00  0.00    +0.031 A 
ATOM     34  C   UNL     1     -11.024  -5.585   3.064  0.00  0.00    +0.040 A 
ATOM     35  C   UNL     1     -11.097  -6.857   3.606  0.00  0.00    +0.124 A 
ATOM     36  C   UNL     1     -10.444  -7.141   4.793  0.00  0.00    +0.040 A 
ATOM     37  C   UNL     1      -9.715  -6.156   5.433  0.00  0.00    +0.031 A 
ATOM     38  F   UNL     1     -11.806  -7.820   2.977  0.00  0.00    -0.205 F 
ENDBRANCH  29  32
ENDBRANCH   1  29
TORSDOF 8
