REMARK  Name = ZINC39021736
REMARK  9 active torsions:
REMARK  status: ('A' for Active; 'I' for Inactive)
REMARK    1  A    between atoms: C_1  and  C_2
REMARK    2  A    between atoms: C_2  and  C_3
REMARK    3  A    between atoms: C_3  and  C_5
REMARK    4  A    between atoms: C_3  and  N_6
REMARK    5  A    between atoms: C_7  and  O_32
REMARK    6  A    between atoms: C_9  and  C_15
REMARK    7  A    between atoms: C_10  and  O_14
REMARK    8  A    between atoms: N_29  and  C_30
REMARK    9  A    between atoms: C_30  and  C_31
REMARK                            x       y       z     vdW  Elec       q    Type
REMARK                         _______ _______ _______ _____ _____    ______ ____
ROOT
ATOM      1  N   UNL     1       2.148  -0.104   1.172  0.00  0.00    -0.253 N 
ATOM      2  C   UNL     1       2.739   0.746   2.218  0.00  0.00    +0.240 C 
ATOM      3  C   UNL     1       4.199   1.117   2.065  0.00  0.00    +0.057 C 
ATOM      4  C   UNL     1       4.852   0.656   1.003  0.00  0.00    +0.190 C 
ATOM      5  N   UNL     1       4.218  -0.140   0.062  0.00  0.00    -0.240 N 
ATOM      6  C   UNL     1       2.932  -0.503   0.150  0.00  0.00    +0.311 C 
ATOM      7  O   UNL     1       2.456  -1.209  -0.718  0.00  0.00    -0.252 OA
ATOM      8  H   UNL     1       4.734  -0.454  -0.698  0.00  0.00    +0.159 HD
ENDROOT
BRANCH   3   9
ATOM      9  C   UNL     1       4.891   1.984   3.086  0.00  0.00    +0.139 C 
ATOM     10  C   UNL     1       4.942   1.263   4.412  0.00  0.00    +0.042 A 
ATOM     11  H   UNL     1       5.489  -0.691   3.937  0.00  0.00    +0.166 HD
ATOM     12  C   UNL     1       4.670   1.868   5.590  0.00  0.00    -0.016 A 
ATOM     13  C   UNL     1       4.818   0.872   6.627  0.00  0.00    +0.003 A 
ATOM     14  C   UNL     1       4.667   0.915   8.016  0.00  0.00    +0.010 A 
ATOM     15  C   UNL     1       4.894  -0.252   8.703  0.00  0.00    +0.001 A 
ATOM     16  C   UNL     1       5.258  -1.424   8.062  0.00  0.00    +0.002 A 
ATOM     17  C   UNL     1       5.416  -1.496   6.688  0.00  0.00    +0.026 A 
ATOM     18  C   UNL     1       5.190  -0.328   5.965  0.00  0.00    +0.047 A 
ATOM     19  N   UNL     1       5.255  -0.051   4.629  0.00  0.00    -0.356 N 
ATOM     20  C   UNL     1       4.291   3.323   5.710  0.00  0.00    +0.053 C 
ATOM     21  C   UNL     1       4.659   4.019   4.393  0.00  0.00    +0.090 C 
ATOM     22  N   UNL     1       4.141   3.238   3.260  0.00  0.00    -0.290 NA
BRANCH  22  23
ATOM     23  C   UNL     1       4.145   4.030   2.023  0.00  0.00    +0.082 C 
ATOM     24  C   UNL     1       3.159   5.192   2.159  0.00  0.00    +0.020 C 
ENDBRANCH  22  23
ENDBRANCH   3   9
BRANCH   1  25
ATOM     25  C   UNL     1       0.742  -0.511   1.242  0.00  0.00    +0.077 C 
ATOM     26  C   UNL     1       0.655  -2.037   1.299  0.00  0.00    +0.028 C 
BRANCH  25  28
ATOM     27  C   UNL     1      -0.019   1.526   0.010  0.00  0.00    +0.006 C 
ATOM     28  C   UNL     1       0.002  -0.004   0.002  0.00  0.00    +0.019 C 
ENDBRANCH  25  28
ENDBRANCH   1  25
BRANCH   4  29
ATOM     29  O   UNL     1       6.161   0.972   0.836  0.00  0.00    -0.495 OA
ATOM     30  H   UNL     1       6.558   0.596   0.039  0.00  0.00    +0.293 HD
ENDBRANCH   4  29
BRANCH   2  31
ATOM     31  O   UNL     1       1.982   1.957   2.280  0.00  0.00    -0.370 OA
ATOM     32  H   UNL     1       1.048   1.827   2.493  0.00  0.00    +0.212 HD
ENDBRANCH   2  31
TORSDOF 6
