REMARK  Name = ZINC43415244
REMARK  6 active torsions:
REMARK  status: ('A' for Active; 'I' for Inactive)
REMARK    1  A    between atoms: C_4  and  C_19
REMARK    2  A    between atoms: C_5  and  C_7
REMARK    3  A    between atoms: C_7  and  O_8
REMARK    4  A    between atoms: O_8  and  C_9
REMARK    5  A    between atoms: C_10  and  N_18
REMARK    6  A    between atoms: C_12  and  C_16
REMARK                            x       y       z     vdW  Elec       q    Type
REMARK                         _______ _______ _______ _____ _____    ______ ____
ROOT
ATOM      1  O   UNL     1      -0.118  -2.680  -0.012  0.00  0.00    -0.484 OA
ENDROOT
BRANCH   1   2
ATOM      2  C   UNL     1      -0.280  -4.030  -0.018  0.00  0.00    +0.155 A 
ATOM      3  C   UNL     1      -0.368  -4.715  -1.230  0.00  0.00    +0.069 A 
ATOM      4  C   UNL     1      -0.532  -6.088  -1.238  0.00  0.00    +0.045 A 
ATOM      5  C   UNL     1      -0.608  -6.786  -0.029  0.00  0.00    +0.055 A 
ATOM      6  C   UNL     1      -0.519  -6.093   1.181  0.00  0.00    +0.037 A 
ATOM      7  C   UNL     1      -0.350  -4.724   1.181  0.00  0.00    +0.058 A 
ATOM      8  I   UNL     1      -0.208  -3.689   2.998  0.00  0.00    -0.040 I 
BRANCH   3   9
ATOM      9  N   UNL     1      -0.292  -4.012  -2.439  0.00  0.00    -0.355 N 
ATOM     10  H   UNL     1      -0.177  -3.049  -2.433  0.00  0.00    +0.142 HD
ATOM     11  H   UNL     1      -0.354  -4.489  -3.281  0.00  0.00    +0.142 HD
ENDBRANCH   3   9
BRANCH   5  12
ATOM     12  C   UNL     1      -0.778  -8.207  -0.031  0.00  0.00    +0.099 C 
ATOM     13  N   UNL     1      -0.913  -9.335  -0.032  0.00  0.00    -0.191 NA
ENDBRANCH   5  12
ENDBRANCH   1   2
BRANCH   1  14
ATOM     14  C   UNL     1       1.223  -2.188  -0.022  0.00  0.00    +0.265 C 
BRANCH  14  19
ATOM     15  C   UNL     1      -0.017   1.379   0.010  0.00  0.00    +0.000 A 
ATOM     16  C   UNL     1       1.169   2.093   0.002  0.00  0.00    +0.001 A 
ATOM     17  C   UNL     1       2.377   1.429  -0.013  0.00  0.00    +0.013 A 
ATOM     18  C   UNL     1       2.403   0.034  -0.021  0.00  0.00    +0.043 A 
ATOM     19  C   UNL     1       1.204  -0.681  -0.013  0.00  0.00    +0.002 A 
ATOM     20  C   UNL     1       0.002  -0.004   0.002  0.00  0.00    +0.008 A 
BRANCH  18  21
ATOM     21  C   UNL     1       3.696  -0.685  -0.037  0.00  0.00    +0.242 C 
ATOM     22  O   UNL     1       3.715  -1.900  -0.044  0.00  0.00    -0.270 OA
ATOM     23  N   UNL     1       4.852   0.008  -0.045  0.00  0.00    -0.325 N 
ATOM     24  H   UNL     1       4.836   0.978  -0.040  0.00  0.00    +0.145 HD
ATOM     25  H   UNL     1       5.699  -0.464  -0.056  0.00  0.00    +0.145 HD
ENDBRANCH  18  21
ENDBRANCH  14  19
ENDBRANCH   1  14
TORSDOF 6
