REMARK  Name = ZINC16637537
REMARK  14 active torsions:
REMARK  status: ('A' for Active; 'I' for Inactive)
REMARK    1  A    between atoms: C_1  and  C_2
REMARK    2  A    between atoms: C_2  and  C_3
REMARK    3  A    between atoms: C_3  and  C_4
REMARK    4  A    between atoms: C_7  and  C_11
REMARK    5  A    between atoms: C_10  and  N_60
REMARK    6  A    between atoms: N_13  and  C_14
REMARK    7  A    between atoms: C_14  and  C_16
REMARK    8  A    between atoms: C_14  and  C_32
REMARK    9  A    between atoms: C_18  and  O_31
REMARK   10  A    between atoms: C_20  and  O_30
REMARK   11  A    between atoms: C_22  and  O_29
REMARK   12  A    between atoms: C_24  and  S_27
REMARK   13  A    between atoms: S_27  and  C_28
REMARK   14  A    between atoms: C_32  and  C_34
REMARK                            x       y       z     vdW  Elec       q    Type
REMARK                         _______ _______ _______ _____ _____    ______ ____
ROOT
ATOM      1  C   UNL     1       1.363   3.042   2.581  0.00  0.00    +0.122 C 
ENDROOT
BRANCH   1   2
ATOM      2  C   UNL     1       0.848   3.579   1.245  0.00  0.00    +0.172 C 
ATOM      3  C   UNL     1       1.665   2.972   0.101  0.00  0.00    +0.176 C 
ATOM      4  C   UNL     1       1.473   1.452   0.097  0.00  0.00    +0.177 C 
ATOM      5  C   UNL     1      -0.021   1.138  -0.026  0.00  0.00    +0.184 C 
ATOM      6  C   UNL     1      -0.774   1.815   1.122  0.00  0.00    +0.207 C 
ATOM      7  O   UNL     1      -0.527   3.223   1.086  0.00  0.00    -0.356 OA
BRANCH   6   8
ATOM      8  S   UNL     1      -2.553   1.508   0.945  0.00  0.00    -0.131 S 
ATOM      9  C   UNL     1      -3.275   2.235   2.441  0.00  0.00    +0.087 C 
ENDBRANCH   6   8
BRANCH   5  10
ATOM     10  O   UNL     1      -0.511   1.629  -1.275  0.00  0.00    -0.386 OA
ATOM     11  H   UNL     1      -1.453   1.466  -1.420  0.00  0.00    +0.210 HD
ENDBRANCH   5  10
BRANCH   4  12
ATOM     12  O   UNL     1       2.174   0.884  -1.012  0.00  0.00    -0.386 OA
ATOM     13  H   UNL     1       2.089  -0.076  -1.080  0.00  0.00    +0.210 HD
ENDBRANCH   4  12
BRANCH   3  14
ATOM     14  O   UNL     1       3.048   3.277   0.289  0.00  0.00    -0.387 OA
ATOM     15  H   UNL     1       3.627   2.919  -0.398  0.00  0.00    +0.210 HD
ENDBRANCH   3  14
ENDBRANCH   1   2
BRANCH   1  18
ATOM     16  C   UNL     1       2.370   0.928   3.255  0.00  0.00    +0.200 C 
ATOM     17  O   UNL     1       3.131   1.550   3.966  0.00  0.00    -0.278 OA
ATOM     18  N   UNL     1       1.447   1.581   2.521  0.00  0.00    -0.310 N 
ATOM     19  H   UNL     1       0.839   1.083   1.953  0.00  0.00    +0.149 HD
BRANCH  16  22
ATOM     20  C   UNL     1       2.171  -2.051   5.129  0.00  0.00    -0.029 C 
ATOM     21  C   UNL     1       1.385  -1.201   4.105  0.00  0.00    -0.005 C 
ATOM     22  C   UNL     1       2.457  -0.575   3.193  0.00  0.00    +0.019 C 
ATOM     23  C   UNL     1       3.517  -2.307   4.405  0.00  0.00    -0.075 C 
ATOM     24  C   UNL     1       4.723  -1.213   2.595  0.00  0.00    -0.095 C 
ATOM     25  N   UNL     1       3.750  -1.034   3.714  0.00  0.00    +0.386 N 
ATOM     26  H   UNL     1       4.122  -0.343   4.376  0.00  0.00    -0.081 HD
BRANCH  20  27
ATOM     27  C   UNL     1       1.449  -3.370   5.411  0.00  0.00    +0.001 C 
BRANCH  27  29
ATOM     28  C   UNL     1       1.531  -5.503   6.710  0.00  0.00    +0.004 C 
ATOM     29  C   UNL     1       2.253  -4.184   6.427  0.00  0.00    -0.003 C 
ENDBRANCH  27  29
ENDBRANCH  20  27
ENDBRANCH  16  22
ENDBRANCH   1  18
BRANCH   1  30
ATOM     30  C   UNL     1       0.403   3.452   3.700  0.00  0.00    +0.100 C 
ATOM     31  C   UNL     1       0.919   2.915   5.037  0.00  0.00    +0.026 C 
ATOM     32 CL   UNL     1       0.299   5.250   3.774  0.00  0.00    -0.120 Cl
ENDBRANCH   1  30
TORSDOF 10
