REMARK  Name = ZINC54111676
REMARK  10 active torsions:
REMARK  status: ('A' for Active; 'I' for Inactive)
REMARK    1  A    between atoms: C_1  and  C_2
REMARK    2  A    between atoms: C_2  and  C_3
REMARK    3  A    between atoms: C_2  and  N_4
REMARK    4  A    between atoms: N_4  and  C_5
REMARK    5  A    between atoms: N_4  and  C_6
REMARK    6  A    between atoms: C_6  and  C_7
REMARK    7  A    between atoms: C_7  and  N_8
REMARK    8  A    between atoms: N_8  and  S_9
REMARK    9  A    between atoms: S_9  and  C_12
REMARK   10  A    between atoms: C_15  and  N_19
REMARK                            x       y       z     vdW  Elec       q    Type
REMARK                         _______ _______ _______ _____ _____    ______ ____
ROOT
ATOM      1  S   UNL     1      -4.096  -4.825   0.631  0.00  0.00    +0.060 S 
ATOM      2  O   UNL     1      -3.779  -6.202   0.483  0.00  0.00    -0.153 OA
ATOM      3  O   UNL     1      -4.493  -4.265   1.876  0.00  0.00    -0.153 OA
ENDROOT
BRANCH   1   4
ATOM      4  C   UNL     1      -5.392  -4.481  -0.512  0.00  0.00    +0.133 A 
ATOM      5  C   UNL     1      -6.240  -3.410  -0.292  0.00  0.00    +0.047 A 
ATOM      6  C   UNL     1      -7.257  -3.138  -1.187  0.00  0.00    +0.040 A 
ATOM      7  C   UNL     1      -7.428  -3.940  -2.308  0.00  0.00    +0.027 A 
ATOM      8  C   UNL     1      -6.575  -5.015  -2.526  0.00  0.00    +0.040 A 
ATOM      9  C   UNL     1      -5.556  -5.279  -1.630  0.00  0.00    +0.047 A 
ATOM     10 BR   UNL     1      -4.390  -6.737  -1.930  0.00  0.00    -0.048 Br
ATOM     11 BR   UNL     1      -6.007  -2.318   1.233  0.00  0.00    -0.048 Br
BRANCH   7  12
ATOM     12  N   UNL     1      -8.456  -3.668  -3.214  0.00  0.00    -0.358 N 
ATOM     13  H   UNL     1      -9.051  -2.917  -3.061  0.00  0.00    +0.142 HD
ATOM     14  H   UNL     1      -8.574  -4.229  -3.996  0.00  0.00    +0.142 HD
ENDBRANCH   7  12
ENDBRANCH   1   4
BRANCH   1  15
ATOM     15  N   UNL     1      -2.765  -3.976   0.133  0.00  0.00    -0.192 NA
ATOM     16  H   UNL     1      -1.972  -4.449  -0.165  0.00  0.00    +0.148 HD
BRANCH  15  17
ATOM     17  C   UNL     1      -2.785  -2.512   0.141  0.00  0.00    +0.087 C 
BRANCH  17  18
ATOM     18  C   UNL     1      -1.356  -1.981   0.004  0.00  0.00    -0.062 C 
BRANCH  18  19
ATOM     19  N   UNL     1      -1.376  -0.512   0.012  0.00  0.00    +0.380 N 
ATOM     20  C   UNL     1      -2.087  -0.026  -1.178  0.00  0.00    -0.096 C 
ATOM     21  H   UNL     1      -1.848  -0.187   0.843  0.00  0.00    -0.082 HD
BRANCH  19  23
ATOM     22  C   UNL     1      -0.019   1.526   0.010  0.00  0.00    -0.014 C 
ATOM     23  C   UNL     1       0.002  -0.004   0.002  0.00  0.00    -0.075 C 
ATOM     24  C   UNL     1       0.742  -0.511   1.242  0.00  0.00    -0.014 C 
ENDBRANCH  19  23
ENDBRANCH  18  19
ENDBRANCH  17  18
ENDBRANCH  15  17
ENDBRANCH   1  15
TORSDOF 7
