REMARK  Name = ZINC12653057
REMARK  16 active torsions:
REMARK  status: ('A' for Active; 'I' for Inactive)
REMARK    1  A    between atoms: C_1  and  C_2
REMARK    2  A    between atoms: C_4  and  N_26
REMARK    3  A    between atoms: C_5  and  N_9
REMARK    4  A    between atoms: C_7  and  C_8
REMARK    5  A    between atoms: N_9  and  C_10
REMARK    6  A    between atoms: C_12  and  O_25
REMARK    7  A    between atoms: C_14  and  O_24
REMARK    8  A    between atoms: C_16  and  O_23
REMARK    9  A    between atoms: C_18  and  C_21
REMARK   10  A    between atoms: C_21  and  O_22
REMARK   11  A    between atoms: N_26  and  C_27
REMARK   12  A    between atoms: C_29  and  O_42
REMARK   13  A    between atoms: C_31  and  O_41
REMARK   14  A    between atoms: C_33  and  O_40
REMARK   15  A    between atoms: C_35  and  C_38
REMARK   16  A    between atoms: C_38  and  O_39
REMARK                            x       y       z     vdW  Elec       q    Type
REMARK                         _______ _______ _______ _____ _____    ______ ____
ROOT
ATOM      1  C   UNL     1       8.341   1.415  -0.065  0.00  0.00    +0.044 C 
ATOM      2  C   UNL     1       7.574   1.309  -1.357  0.00  0.00    -0.046 A 
ATOM      3  C   UNL     1       6.198   1.452  -1.356  0.00  0.00    +0.028 A 
ATOM      4  C   UNL     1       5.489   1.349  -2.543  0.00  0.00    +0.050 A 
ATOM      5  C   UNL     1       6.169   1.112  -3.738  0.00  0.00    +0.050 A 
ATOM      6  C   UNL     1       7.548   0.975  -3.731  0.00  0.00    +0.028 A 
ATOM      7  C   UNL     1       8.247   1.074  -2.541  0.00  0.00    -0.046 A 
ATOM      8  C   UNL     1       9.746   0.925  -2.536  0.00  0.00    +0.044 C 
ENDROOT
BRANCH   5   9
ATOM      9  N   UNL     1       5.460   1.013  -4.941  0.00  0.00    -0.316 N 
ATOM     10  H   UNL     1       4.494   1.109  -4.945  0.00  0.00    +0.149 HD
BRANCH   9  11
ATOM     11  C   UNL     1       6.175   0.764  -6.195  0.00  0.00    +0.235 C 
ATOM     12  C   UNL     1       5.318  -0.117  -7.106  0.00  0.00    +0.192 C 
ATOM     13  C   UNL     1       4.022   0.625  -7.450  0.00  0.00    +0.178 C 
ATOM     14  C   UNL     1       4.373   1.966  -8.101  0.00  0.00    +0.177 C 
ATOM     15  C   UNL     1       5.267   2.768  -7.151  0.00  0.00    +0.177 C 
ATOM     16  O   UNL     1       6.439   2.008  -6.848  0.00  0.00    -0.348 OA
BRANCH  14  17
ATOM     17  O   UNL     1       5.067   1.735  -9.329  0.00  0.00    -0.386 OA
ATOM     18  H   UNL     1       4.558   1.231  -9.979  0.00  0.00    +0.210 HD
ENDBRANCH  14  17
BRANCH  13  19
ATOM     19  O   UNL     1       3.247  -0.159  -8.358  0.00  0.00    -0.386 OA
ATOM     20  H   UNL     1       2.989  -1.024  -8.011  0.00  0.00    +0.210 HD
ENDBRANCH  13  19
BRANCH  12  21
ATOM     21  O   UNL     1       5.004  -1.338  -6.433  0.00  0.00    -0.385 OA
ATOM     22  H   UNL     1       5.779  -1.858  -6.181  0.00  0.00    +0.210 HD
ENDBRANCH  12  21
BRANCH  15  23
ATOM     23  C   UNL     1       5.671   4.084  -7.819  0.00  0.00    +0.190 C 
BRANCH  23  24
ATOM     24  O   UNL     1       6.409   4.882  -6.892  0.00  0.00    -0.392 OA
ATOM     25  H   UNL     1       6.698   5.733  -7.248  0.00  0.00    +0.210 HD
ENDBRANCH  23  24
ENDBRANCH  15  23
ENDBRANCH   9  11
ENDBRANCH   5   9
BRANCH   4  26
ATOM     26  N   UNL     1       4.096   1.488  -2.543  0.00  0.00    -0.316 N 
ATOM     27  H   UNL     1       3.610   1.504  -3.383  0.00  0.00    +0.149 HD
BRANCH  26  28
ATOM     28  C   UNL     1       3.372   1.608  -1.275  0.00  0.00    +0.235 C 
ATOM     29  C   UNL     1       1.995   0.953  -1.409  0.00  0.00    +0.192 C 
ATOM     30  C   UNL     1       1.221   1.135  -0.100  0.00  0.00    +0.178 C 
ATOM     31  C   UNL     1       1.124   2.630   0.219  0.00  0.00    +0.177 C 
ATOM     32  C   UNL     1       2.535   3.221   0.290  0.00  0.00    +0.177 C 
ATOM     33  O   UNL     1       3.210   2.990  -0.948  0.00  0.00    -0.348 OA
BRANCH  31  34
ATOM     34  O   UNL     1       0.380   3.290  -0.807  0.00  0.00    -0.386 OA
ATOM     35  H   UNL     1      -0.523   2.962  -0.911  0.00  0.00    +0.210 HD
ENDBRANCH  31  34
BRANCH  30  36
ATOM     36  O   UNL     1      -0.092   0.591  -0.241  0.00  0.00    -0.386 OA
ATOM     37  H   UNL     1      -0.106  -0.355  -0.444  0.00  0.00    +0.210 HD
ENDBRANCH  30  36
BRANCH  29  38
ATOM     38  O   UNL     1       2.154  -0.442  -1.679  0.00  0.00    -0.385 OA
ATOM     39  H   UNL     1       2.636  -0.632  -2.496  0.00  0.00    +0.210 HD
ENDBRANCH  29  38
BRANCH  32  40
ATOM     40  C   UNL     1       2.445   4.726   0.549  0.00  0.00    +0.190 C 
BRANCH  40  41
ATOM     41  O   UNL     1       3.759   5.258   0.731  0.00  0.00    -0.392 OA
ATOM     42  H   UNL     1       3.778   6.210   0.900  0.00  0.00    +0.210 HD
ENDBRANCH  40  41
ENDBRANCH  32  40
ENDBRANCH  26  28
ENDBRANCH   4  26
TORSDOF 14
