REMARK  Name = ZINC20238969
REMARK  4 active torsions:
REMARK  status: ('A' for Active; 'I' for Inactive)
REMARK    1  A    between atoms: C_3  and  S_28
REMARK    2  A    between atoms: C_5  and  C_6
REMARK    3  A    between atoms: C_16  and  C_18
REMARK    4  A    between atoms: S_28  and  C_29
REMARK                            x       y       z     vdW  Elec       q    Type
REMARK                         _______ _______ _______ _____ _____    ______ ____
ROOT
ATOM      1  C   UNL     1      -0.813  -0.312   0.706  0.00  0.00    +0.063 C 
ATOM      2  C   UNL     1      -0.747  -1.638   1.125  0.00  0.00    +0.084 C 
ATOM      3  C   UNL     1       0.551  -2.305   1.404  0.00  0.00    +0.153 C 
ATOM      4  N   UNL     1       1.592  -1.677   1.891  0.00  0.00    -0.283 NA
ATOM      5  N   UNL     1       0.552  -3.681   1.093  0.00  0.00    -0.152 N 
ATOM      6  C   UNL     1      -0.665  -4.328   1.065  0.00  0.00    +0.181 C 
ATOM      7  N   UNL     1      -1.852  -3.796   1.202  0.00  0.00    -0.152 NA
ATOM      8  C   UNL     1      -1.964  -2.454   1.320  0.00  0.00    +0.273 C 
ATOM      9  O   UNL     1      -3.037  -1.930   1.576  0.00  0.00    -0.268 OA
ATOM     10  S   UNL     1      -0.185  -6.011   0.779  0.00  0.00    -0.037 S 
ATOM     11  C   UNL     1       1.573  -5.729   0.617  0.00  0.00    +0.106 C 
ATOM     12  N   UNL     1       1.667  -4.446   0.824  0.00  0.00    -0.169 NA
ATOM     13  H   UNL     1       1.514  -0.750   2.168  0.00  0.00    +0.188 HD
ENDROOT
BRANCH  11  14
ATOM     14  C   UNL     1       2.667  -6.721   0.318  0.00  0.00    +0.022 C 
ATOM     15  C   UNL     1       4.015  -5.999   0.281  0.00  0.00    +0.017 C 
ATOM     16  C   UNL     1       5.125  -7.007  -0.023  0.00  0.00    -0.010 C 
ATOM     17  C   UNL     1       5.152  -8.080   1.067  0.00  0.00    +0.007 C 
ATOM     18  C   UNL     1       3.804  -8.803   1.105  0.00  0.00    -0.010 C 
ATOM     19  C   UNL     1       2.693  -7.795   1.408  0.00  0.00    +0.017 C 
ATOM     20  C   UNL     1       3.539  -9.459  -0.252  0.00  0.00    +0.007 C 
ATOM     21  C   UNL     1       3.513  -8.386  -1.342  0.00  0.00    -0.010 C 
ATOM     22  C   UNL     1       4.861  -7.664  -1.379  0.00  0.00    +0.007 C 
ATOM     23  C   UNL     1       2.402  -7.378  -1.038  0.00  0.00    +0.017 C 
ENDBRANCH  11  14
BRANCH   1  28
ATOM     24  C   UNL     1       1.534  -0.221  -0.101  0.00  0.00    +0.050 A 
ATOM     25  C   UNL     1       2.429   0.815  -0.348  0.00  0.00    +0.057 A 
ATOM     26  C   UNL     1       1.777   1.996  -0.051  0.00  0.00    +0.162 A 
ATOM     27  O   UNL     1       0.532   1.707   0.363  0.00  0.00    -0.449 OA
ATOM     28  C   UNL     1       0.354   0.366   0.343  0.00  0.00    +0.130 A 
BRANCH  26  29
ATOM     29  S   UNL     1       2.463   3.612  -0.190  0.00  0.00    -0.085 S 
BRANCH  29  30
ATOM     30  C   UNL     1       1.070   4.714   0.178  0.00  0.00    +0.054 C 
ATOM     31  C   UNL     1      -0.011   4.544  -0.892  0.00  0.00    +0.014 C 
ATOM     32  C   UNL     1      -1.185   5.473  -0.582  0.00  0.00    +0.001 C 
ATOM     33  C   UNL     1      -0.700   6.924  -0.573  0.00  0.00    +0.000 C 
ATOM     34  C   UNL     1       0.381   7.094   0.496  0.00  0.00    +0.001 C 
ATOM     35  C   UNL     1       1.556   6.165   0.186  0.00  0.00    +0.014 C 
ENDBRANCH  29  30
ENDBRANCH  26  29
ENDBRANCH   1  28
TORSDOF 4
