REMARK  Name = ZINC02137379
REMARK  7 active torsions:
REMARK  status: ('A' for Active; 'I' for Inactive)
REMARK    1  A    between atoms: C_1  and  O_2
REMARK    2  A    between atoms: O_2  and  C_3
REMARK    3  A    between atoms: C_8  and  O_9
REMARK    4  A    between atoms: O_9  and  C_10
REMARK    5  A    between atoms: C_11  and  C_15
REMARK    6  A    between atoms: C_16  and  O_31
REMARK    7  A    between atoms: N_21  and  C_24
REMARK                            x       y       z     vdW  Elec       q    Type
REMARK                         _______ _______ _______ _____ _____    ______ ____
ROOT
ATOM      1  C   UNL     1      -5.914  -0.095   3.558  0.00  0.00    +0.067 A 
ATOM      2  C   UNL     1      -7.065   0.357   4.134  0.00  0.00    +0.201 A 
ATOM      3  N   UNL     1      -7.576  -0.299   5.225  0.00  0.00    -0.278 N 
ATOM      4  H   UNL     1      -8.394   0.018   5.638  0.00  0.00    +0.173 HD
ATOM      5  C   UNL     1      -6.951  -1.381   5.725  0.00  0.00    +0.336 A 
ATOM      6  O   UNL     1      -7.419  -1.949   6.692  0.00  0.00    -0.246 OA
ATOM      7  N   UNL     1      -5.814  -1.841   5.171  0.00  0.00    -0.229 N 
ATOM      8  C   UNL     1      -5.281  -1.229   4.095  0.00  0.00    +0.267 A 
ATOM      9  O   UNL     1      -4.254  -1.654   3.594  0.00  0.00    -0.267 OA
ENDROOT
BRANCH   1  16
ATOM     10  C   UNL     1      -1.617   2.399   3.506  0.00  0.00    +0.162 A 
ATOM     11  C   UNL     1      -1.719   1.753   2.288  0.00  0.00    +0.053 A 
ATOM     12  C   UNL     1      -2.916   1.166   1.903  0.00  0.00    -0.044 A 
ATOM     13  C   UNL     1      -4.012   1.226   2.737  0.00  0.00    -0.050 A 
ATOM     14  C   UNL     1      -3.913   1.872   3.961  0.00  0.00    +0.052 A 
ATOM     15  C   UNL     1      -2.721   2.454   4.352  0.00  0.00    +0.162 A 
ATOM     16  C   UNL     1      -5.333   0.609   2.359  0.00  0.00    +0.001 C 
ATOM     17  C   UNL     1      -4.432   0.265   0.150  0.00  0.00    -0.077 C 
ATOM     18  C   UNL     1      -2.975   0.470   0.567  0.00  0.00    +0.016 C 
ATOM     19  N   UNL     1      -5.157  -0.362   1.270  0.00  0.00    +0.387 N 
ATOM     20  H   UNL     1      -6.078  -0.679   0.945  0.00  0.00    -0.085 HD
ATOM     21  H   UNL     1      -4.621  -1.167   1.615  0.00  0.00    -0.085 HD
BRANCH  10  23
ATOM     22  C   UNL     1       0.649   2.873   2.961  0.00  0.00    +0.277 C 
ATOM     23  O   UNL     1      -0.442   2.974   3.879  0.00  0.00    -0.491 OA
ENDBRANCH  10  23
BRANCH  15  24
ATOM     24  O   UNL     1      -2.629   3.080   5.556  0.00  0.00    -0.491 OA
ATOM     25  C   UNL     1      -3.803   3.096   6.370  0.00  0.00    +0.277 C 
ENDBRANCH  15  24
ENDBRANCH   1  16
BRANCH   7  26
ATOM     26  C   UNL     1      -5.184  -2.969   5.713  0.00  0.00    +0.056 A 
ATOM     27  C   UNL     1      -5.513  -4.238   5.254  0.00  0.00    +0.026 A 
ATOM     28  C   UNL     1      -4.891  -5.348   5.789  0.00  0.00    +0.003 A 
ATOM     29  C   UNL     1      -3.940  -5.199   6.782  0.00  0.00    +0.020 A 
ATOM     30  C   UNL     1      -3.609  -3.936   7.241  0.00  0.00    +0.043 A 
ATOM     31  C   UNL     1      -4.225  -2.821   6.705  0.00  0.00    +0.046 A 
ATOM     32 CL   UNL     1      -2.414  -3.752   8.487  0.00  0.00    -0.083 Cl
ENDBRANCH   7  26
BRANCH   2  33
ATOM     33  O   UNL     1      -7.695   1.441   3.635  0.00  0.00    -0.493 OA
ATOM     34  H   UNL     1      -8.501   1.682   4.112  0.00  0.00    +0.294 HD
ENDBRANCH   2  33
TORSDOF 5
