REMARK  Name = ZINC45697702
REMARK  6 active torsions:
REMARK  status: ('A' for Active; 'I' for Inactive)
REMARK    1  A    between atoms: C_1  and  N_2
REMARK    2  A    between atoms: N_11  and  N_12
REMARK    3  A    between atoms: N_15  and  C_16
REMARK    4  A    between atoms: C_19  and  O_22
REMARK    5  A    between atoms: O_22  and  C_23
REMARK    6  A    between atoms: C_23  and  C_24
REMARK                            x       y       z     vdW  Elec       q    Type
REMARK                         _______ _______ _______ _____ _____    ______ ____
ROOT
ATOM      1  N   UNL     1       0.056  -0.984   3.534  0.00  0.00    -0.219 N 
ATOM      2  C   UNL     1       0.054  -0.478   4.783  0.00  0.00    +0.320 C 
ATOM      3  O   UNL     1       0.066  -1.225   5.742  0.00  0.00    -0.251 OA
ATOM      4  N   UNL     1       0.040   0.857   4.969  0.00  0.00    -0.268 N 
ATOM      5  H   UNL     1       0.066  -1.945   3.400  0.00  0.00    +0.174 HD
ATOM      6  H   UNL     1       0.099   1.454   4.206  0.00  0.00    +0.156 HD
ENDROOT
BRANCH   1  17
ATOM      7  C   UNL     1       0.017   1.462   0.010  0.00  0.00    +0.151 C 
ATOM      8  N   UNL     1       0.034  -0.003   0.002  0.00  0.00    -0.325 N 
ATOM      9  C   UNL     1       0.043  -0.647  -1.186  0.00  0.00    +0.057 A 
ATOM     10  C   UNL     1       0.037  -0.084  -2.484  0.00  0.00    +0.027 A 
ATOM     11  C   UNL     1       0.048  -0.886  -3.595  0.00  0.00    +0.002 A 
ATOM     12  C   UNL     1       0.064  -2.270  -3.490  0.00  0.00    +0.001 A 
ATOM     13  C   UNL     1       0.069  -2.854  -2.236  0.00  0.00    +0.017 A 
ATOM     14  C   UNL     1       0.059  -2.058  -1.118  0.00  0.00    +0.039 A 
ATOM     15  S   UNL     1       0.060  -2.353   0.634  0.00  0.00    -0.053 S 
ATOM     16  C   UNL     1       0.044  -0.642   1.150  0.00  0.00    +0.156 A 
ATOM     17  N   UNL     1       0.043  -0.123   2.429  0.00  0.00    -0.243 N 
ATOM     18  H   UNL     1       0.032   0.838   2.562  0.00  0.00    +0.172 HD
ENDBRANCH   1  17
BRANCH   4  19
ATOM     19  C   UNL     1      -0.060   1.383   6.264  0.00  0.00    +0.035 A 
ATOM     20  C   UNL     1      -0.775   2.552   6.485  0.00  0.00    +0.027 A 
ATOM     21  C   UNL     1      -0.874   3.070   7.761  0.00  0.00    +0.047 A 
ATOM     22  C   UNL     1      -0.258   2.422   8.822  0.00  0.00    +0.121 A 
ATOM     23  C   UNL     1       0.457   1.254   8.602  0.00  0.00    +0.047 A 
ATOM     24  C   UNL     1       0.551   0.732   7.327  0.00  0.00    +0.027 A 
BRANCH  22  25
ATOM     25  O   UNL     1      -0.355   2.933  10.079  0.00  0.00    -0.483 OA
BRANCH  25  26
ATOM     26  C   UNL     1       0.303   2.214  11.124  0.00  0.00    +0.324 C 
BRANCH  26  27
ATOM     27  C   UNL     1       0.087   2.924  12.435  0.00  0.00    +0.248 C 
ATOM     28  O   UNL     1      -0.566   3.945  12.472  0.00  0.00    -0.272 OA
ATOM     29  N   UNL     1       0.620   2.424  13.568  0.00  0.00    -0.327 N 
ATOM     30  H   UNL     1       1.143   1.608  13.539  0.00  0.00    +0.145 HD
ATOM     31  H   UNL     1       0.481   2.881  14.412  0.00  0.00    +0.145 HD
ENDBRANCH  26  27
ENDBRANCH  25  26
ENDBRANCH  22  25
ENDBRANCH   4  19
TORSDOF 5
