REMARK  Name = ZINC39693378
REMARK  13 active torsions:
REMARK  status: ('A' for Active; 'I' for Inactive)
REMARK    1  A    between atoms: C_1  and  C_2
REMARK    2  A    between atoms: C_2  and  O_4
REMARK    3  A    between atoms: O_4  and  C_5
REMARK    4  A    between atoms: C_10  and  C_11
REMARK    5  A    between atoms: C_15  and  C_24
REMARK    6  A    between atoms: N_26  and  C_27
REMARK    7  A    between atoms: C_27  and  C_28
REMARK    8  A    between atoms: C_28  and  N_29
REMARK    9  A    between atoms: C_30  and  O_32
REMARK   10  A    between atoms: O_32  and  C_33
REMARK   11  A    between atoms: C_33  and  C_34
REMARK   12  A    between atoms: C_33  and  C_35
REMARK   13  A    between atoms: C_33  and  C_36
REMARK                            x       y       z     vdW  Elec       q    Type
REMARK                         _______ _______ _______ _____ _____    ______ ____
ROOT
ATOM      1  C   UNL     1      -3.423  -2.266  -0.122  0.00  0.00    +0.250 C 
ATOM      2  O   UNL     1      -3.539  -1.059  -0.204  0.00  0.00    -0.270 OA
ATOM      3  N   UNL     1      -4.520  -3.048  -0.087  0.00  0.00    -0.296 N 
ATOM      4  C   UNL     1      -4.581  -4.528  -0.051  0.00  0.00    +0.121 C 
ATOM      5  C   UNL     1      -5.738  -4.848   0.921  0.00  0.00    +0.100 C 
ATOM      6  C   UNL     1      -6.627  -3.594   0.899  0.00  0.00    -0.004 C 
ATOM      7  C   UNL     1      -5.940  -2.620  -0.069  0.00  0.00    +0.115 C 
ATOM      8  C   UNL     1      -6.704  -2.976   2.292  0.00  0.00    -0.010 C 
ATOM      9  C   UNL     1      -7.639  -1.764   2.257  0.00  0.00    -0.082 C 
ATOM     10  N   UNL     1      -8.973  -2.185   1.812  0.00  0.00    +0.379 N 
ATOM     11  C   UNL     1      -8.906  -2.693   0.437  0.00  0.00    -0.082 C 
ATOM     12  C   UNL     1      -8.024  -3.944   0.395  0.00  0.00    -0.010 C 
ATOM     13  H   UNL     1      -9.315  -2.914   2.422  0.00  0.00    -0.086 HD
ATOM     14  H   UNL     1      -9.603  -1.398   1.849  0.00  0.00    -0.086 HD
ENDROOT
BRANCH   1  20
ATOM     15  C   UNL     1      -1.044  -2.232   0.628  0.00  0.00    +0.144 A 
ATOM     16  C   UNL     1       0.211  -2.817   0.685  0.00  0.00    +0.047 A 
ATOM     17  C   UNL     1       0.440  -4.027   0.059  0.00  0.00    +0.004 A 
ATOM     18  C   UNL     1      -0.580  -4.664  -0.628  0.00  0.00    +0.001 A 
ATOM     19  C   UNL     1      -1.834  -4.097  -0.694  0.00  0.00    +0.017 A 
ATOM     20  C   UNL     1      -2.080  -2.876  -0.061  0.00  0.00    +0.079 A 
BRANCH  15  21
ATOM     21  O   UNL     1      -1.271  -1.043   1.243  0.00  0.00    -0.425 OA
BRANCH  21  23
ATOM     22  C   UNL     1      -1.881   0.226   3.271  0.00  0.00    +0.136 C 
ATOM     23  C   UNL     1      -1.722  -1.063   2.508  0.00  0.00    +0.309 C 
ATOM     24  O   UNL     1      -2.001  -2.115   3.033  0.00  0.00    -0.251 OA
ENDBRANCH  21  23
ENDBRANCH  15  21
ENDBRANCH   1  20
BRANCH   5  25
ATOM     25  C   UNL     1      -6.510  -6.050   0.440  0.00  0.00    +0.218 C 
ATOM     26  O   UNL     1      -6.513  -6.337  -0.738  0.00  0.00    -0.275 OA
ATOM     27  N   UNL     1      -7.197  -6.805   1.319  0.00  0.00    -0.314 N 
ATOM     28  H   UNL     1      -7.195  -6.575   2.262  0.00  0.00    +0.149 HD
BRANCH  27  29
ATOM     29  C   UNL     1      -7.948  -7.973   0.852  0.00  0.00    +0.123 C 
BRANCH  29  30
ATOM     30  C   UNL     1      -8.632  -8.649   2.042  0.00  0.00    +0.126 C 
BRANCH  30  31
ATOM     31  N   UNL     1      -9.383  -9.818   1.575  0.00  0.00    -0.280 N 
ATOM     32  C   UNL     1     -10.070 -10.573   2.454  0.00  0.00    +0.401 C 
ATOM     33  O   UNL     1     -10.067 -10.285   3.635  0.00  0.00    -0.226 OA
ATOM     34  H   UNL     1      -9.385 -10.047   0.632  0.00  0.00    +0.152 HD
BRANCH  32  35
ATOM     35  O   UNL     1     -10.760 -11.646   2.025  0.00  0.00    -0.445 OA
BRANCH  35  36
ATOM     36  C   UNL     1     -11.465 -12.402   3.011  0.00  0.00    +0.107 C 
ATOM     37  C   UNL     1     -12.492 -11.503   3.703  0.00  0.00    +0.055 C 
ATOM     38  C   UNL     1     -12.184 -13.574   2.340  0.00  0.00    +0.055 C 
ATOM     39  C   UNL     1     -10.476 -12.937   4.048  0.00  0.00    +0.055 C 
ENDBRANCH  35  36
ENDBRANCH  32  35
ENDBRANCH  30  31
ENDBRANCH  29  30
ENDBRANCH  27  29
ENDBRANCH   5  25
TORSDOF 9
