REMARK  Name = ZINC20433752
REMARK  7 active torsions:
REMARK  status: ('A' for Active; 'I' for Inactive)
REMARK    1  A    between atoms: C_1  and  C_2
REMARK    2  A    between atoms: C_2  and  C_3
REMARK    3  A    between atoms: C_3  and  C_4
REMARK    4  A    between atoms: C_3  and  C_5
REMARK    5  A    between atoms: C_3  and  N_6
REMARK    6  A    between atoms: C_7  and  C_9
REMARK    7  A    between atoms: C_12  and  O_16
REMARK                            x       y       z     vdW  Elec       q    Type
REMARK                         _______ _______ _______ _____ _____    ______ ____
ROOT
ATOM      1  N   UNL     1      -2.850   1.522   2.483  0.00  0.00    -0.312 N 
ATOM      2  C   UNL     1      -4.134   1.178   2.707  0.00  0.00    +0.199 C 
ATOM      3  O   UNL     1      -4.721   0.477   1.910  0.00  0.00    -0.278 OA
ATOM      4  H   UNL     1      -2.317   2.158   3.205  0.00  0.00    +0.149 HD
ENDROOT
BRANCH   2   5
ATOM      5  C   UNL     1      -4.839   1.664   3.947  0.00  0.00    +0.018 C 
ATOM      6  C   UNL     1      -4.447   0.784   5.152  0.00  0.00    +0.023 C 
ATOM      7  C   UNL     1      -5.780   0.663   5.941  0.00  0.00    +0.097 C 
ATOM      8  C   UNL     1      -6.822   0.617   4.796  0.00  0.00    -0.050 C 
ATOM      9  N   UNL     1      -6.298   1.546   3.772  0.00  0.00    +0.388 N 
ATOM     10  H   UNL     1      -6.763   2.536   3.892  0.00  0.00    -0.085 HD
ATOM     11  H   UNL     1      -6.517   1.158   2.766  0.00  0.00    -0.085 HD
BRANCH   7  12
ATOM     12  O   UNL     1      -5.813  -0.540   6.712  0.00  0.00    -0.394 OA
ATOM     13  H   UNL     1      -6.693  -0.773   7.329  0.00  0.00    +0.210 HD
ENDBRANCH   7  12
ENDBRANCH   2   5
BRANCH   1  14
ATOM     14  C   UNL     1      -2.164   1.050   1.278  0.00  0.00    +0.029 C 
ATOM     15  C   UNL     1      -2.904   1.556   0.038  0.00  0.00    +0.031 C 
ATOM     16  C   UNL     1      -2.143  -0.480   1.269  0.00  0.00    +0.031 C 
BRANCH  14  18
ATOM     17  C   UNL     1      -0.013   1.086   0.008  0.00  0.00    +0.006 C 
ATOM     18  C   UNL     1      -0.729   1.579   1.267  0.00  0.00    +0.022 C 
ENDBRANCH  14  18
ENDBRANCH   1  14
TORSDOF 4
