REMARK  Name = ZINC46253535
REMARK  10 active torsions:
REMARK  status: ('A' for Active; 'I' for Inactive)
REMARK    1  A    between atoms: C_1  and  C_2
REMARK    2  A    between atoms: C_2  and  N_3
REMARK    3  A    between atoms: N_3  and  C_4
REMARK    4  A    between atoms: N_3  and  C_6
REMARK    5  A    between atoms: C_4  and  C_5
REMARK    6  A    between atoms: C_6  and  C_8
REMARK    7  A    between atoms: C_6  and  C_23
REMARK    8  A    between atoms: C_8  and  N_9
REMARK    9  A    between atoms: N_12  and  N_13
REMARK   10  A    between atoms: C_14  and  C_16
REMARK                            x       y       z     vdW  Elec       q    Type
REMARK                         _______ _______ _______ _____ _____    ______ ____
ROOT
ATOM      1  N   UNL     1       2.631  -2.548  -2.890  0.00  0.00    -0.299 N 
ATOM      2  C   UNL     1       3.337  -2.846  -3.999  0.00  0.00    +0.316 C 
ATOM      3  O   UNL     1       2.771  -3.289  -4.979  0.00  0.00    -0.251 OA
ATOM      4  N   UNL     1       4.671  -2.654  -4.020  0.00  0.00    -0.218 N 
ATOM      5  H   UNL     1       3.069  -2.126  -2.135  0.00  0.00    +0.150 HD
ATOM      6  H   UNL     1       5.168  -2.797  -4.840  0.00  0.00    +0.174 HD
ENDROOT
BRANCH   4   7
ATOM      7  N   UNL     1       5.338  -2.247  -2.858  0.00  0.00    -0.229 N 
ATOM      8  C   UNL     1       6.653  -1.952  -2.904  0.00  0.00    +0.262 C 
ATOM      9  O   UNL     1       7.238  -1.949  -3.969  0.00  0.00    -0.269 OA
ATOM     10  H   UNL     1       4.855  -2.177  -2.020  0.00  0.00    +0.173 HD
BRANCH   8  11
ATOM     11  C   UNL     1       7.382  -1.631  -1.659  0.00  0.00    +0.056 A 
ATOM     12  C   UNL     1       6.692  -1.524  -0.450  0.00  0.00    +0.014 A 
ATOM     13  C   UNL     1       7.379  -1.224   0.708  0.00  0.00    +0.001 A 
ATOM     14  C   UNL     1       8.749  -1.029   0.674  0.00  0.00    +0.001 A 
ATOM     15  C   UNL     1       9.439  -1.133  -0.519  0.00  0.00    +0.021 A 
ATOM     16  C   UNL     1       8.765  -1.439  -1.686  0.00  0.00    +0.053 A 
ATOM     17 CL   UNL     1       9.634  -1.576  -3.183  0.00  0.00    -0.083 Cl
ENDBRANCH   8  11
ENDBRANCH   4   7
BRANCH   1  18
ATOM     18  C   UNL     1       1.201  -2.860  -2.827  0.00  0.00    +0.095 C 
BRANCH  18  19
ATOM     19  C   UNL     1       0.608  -2.278  -1.542  0.00  0.00    -0.020 C 
BRANCH  19  20
ATOM     20  C   UNL     1      -0.804  -2.775  -1.370  0.00  0.00    -0.052 A 
ATOM     21  C   UNL     1      -1.081  -3.819  -0.508  0.00  0.00    +0.009 A 
ATOM     22  C   UNL     1      -2.362  -4.241  -0.377  0.00  0.00    +0.045 A 
ATOM     23  S   UNL     1      -3.227  -3.149  -1.493  0.00  0.00    -0.105 S 
ATOM     24  C   UNL     1      -1.823  -2.200  -2.055  0.00  0.00    +0.047 A 
ENDBRANCH  19  20
BRANCH  19  25
ATOM     25  N   UNL     1       0.605  -0.811  -1.625  0.00  0.00    +0.385 N 
ATOM     26  H   UNL     1       0.140  -0.523  -2.472  0.00  0.00    -0.081 HD
BRANCH  25  28
ATOM     27  C   UNL     1      -0.229   1.260  -0.620  0.00  0.00    -0.017 C 
ATOM     28  C   UNL     1      -0.104  -0.257  -0.464  0.00  0.00    -0.081 C 
ENDBRANCH  25  28
BRANCH  25  29
ATOM     29  C   UNL     1       1.989  -0.319  -1.635  0.00  0.00    -0.081 C 
ATOM     30  C   UNL     1       2.726  -0.843  -0.401  0.00  0.00    -0.017 C 
ENDBRANCH  25  29
ENDBRANCH  19  25
ENDBRANCH  18  19
ENDBRANCH   1  18
TORSDOF 8
