REMARK  Name = ZINC27134044
REMARK  14 active torsions:
REMARK  status: ('A' for Active; 'I' for Inactive)
REMARK    1  A    between atoms: C_1  and  C_2
REMARK    2  A    between atoms: C_2  and  C_3
REMARK    3  A    between atoms: C_3  and  N_4
REMARK    4  A    between atoms: C_5  and  N_25
REMARK    5  A    between atoms: C_6  and  C_13
REMARK    6  A    between atoms: C_13  and  C_15
REMARK    7  A    between atoms: C_15  and  N_16
REMARK    8  A    between atoms: N_16  and  C_17
REMARK    9  A    between atoms: N_16  and  C_18
REMARK   10  A    between atoms: C_18  and  C_20
REMARK   11  A    between atoms: C_18  and  C_21
REMARK   12  A    between atoms: C_21  and  C_22
REMARK   13  A    between atoms: C_21  and  C_23
REMARK   14  A    between atoms: C_21  and  C_24
REMARK                            x       y       z     vdW  Elec       q    Type
REMARK                         _______ _______ _______ _____ _____    ______ ____
ROOT
ATOM      1  N   UNL     1       0.323  -2.240  -1.091  0.00  0.00    -0.281 N 
ATOM      2  C   UNL     1       1.445  -2.839  -0.595  0.00  0.00    +0.116 A 
ATOM      3  C   UNL     1       1.554  -4.239  -0.661  0.00  0.00    +0.118 A 
ATOM      4  C   UNL     1       0.444  -4.986  -1.266  0.00  0.00    +0.266 A 
ATOM      5  O   UNL     1       0.485  -6.200  -1.349  0.00  0.00    -0.267 OA
ATOM      6  N   UNL     1      -0.621  -4.299  -1.727  0.00  0.00    -0.274 N 
ATOM      7  H   UNL     1      -1.362  -4.779  -2.129  0.00  0.00    +0.173 HD
ATOM      8  C   UNL     1      -0.672  -2.961  -1.632  0.00  0.00    +0.331 A 
ATOM      9  O   UNL     1      -1.652  -2.381  -2.056  0.00  0.00    -0.246 OA
ENDROOT
BRANCH   2  10
ATOM     10  N   UNL     1       2.442  -2.093  -0.046  0.00  0.00    -0.344 N 
ATOM     11  H   UNL     1       2.396  -1.124  -0.076  0.00  0.00    +0.144 HD
ATOM     12  H   UNL     1       3.198  -2.529   0.377  0.00  0.00    +0.144 HD
ENDBRANCH   2  10
BRANCH   3  13
ATOM     13  C   UNL     1       2.694  -4.904  -0.162  0.00  0.00    +0.155 C 
ATOM     14  O   UNL     1       3.552  -4.280   0.429  0.00  0.00    -0.294 OA
BRANCH  13  15
ATOM     15  C   UNL     1       2.847  -6.390  -0.363  0.00  0.00    +0.002 C 
BRANCH  15  16
ATOM     16  N   UNL     1       4.108  -6.839   0.243  0.00  0.00    +0.385 N 
ATOM     17  C   UNL     1       5.239  -6.279  -0.508  0.00  0.00    -0.095 C 
ATOM     18  H   UNL     1       4.151  -6.524   1.201  0.00  0.00    -0.081 HD
BRANCH  16  19
ATOM     19  C   UNL     1       4.173  -8.306   0.207  0.00  0.00    -0.066 C 
ATOM     20  C   UNL     1       4.718  -8.759  -1.149  0.00  0.00    -0.013 C 
BRANCH  19  21
ATOM     21  C   UNL     1       5.099  -8.803   1.320  0.00  0.00    -0.050 C 
ATOM     22  C   UNL     1       4.514  -8.417   2.680  0.00  0.00    +0.009 C 
ATOM     23  C   UNL     1       5.229 -10.325   1.234  0.00  0.00    +0.009 C 
ATOM     24  C   UNL     1       6.479  -8.164   1.158  0.00  0.00    +0.009 C 
ENDBRANCH  19  21
ENDBRANCH  16  19
ENDBRANCH  15  16
ENDBRANCH  13  15
ENDBRANCH   3  13
BRANCH   1  25
ATOM     25  C   UNL     1       0.199  -0.781  -1.027  0.00  0.00    +0.128 C 
BRANCH  25  27
ATOM     26  C   UNL     1      -0.598   1.139   0.359  0.00  0.00    +0.005 C 
ATOM     27  C   UNL     1      -0.469  -0.384   0.291  0.00  0.00    +0.018 C 
ENDBRANCH  25  27
ENDBRANCH   1  25
TORSDOF 8
