REMARK  Name = ZINC63350051
REMARK  9 active torsions:
REMARK  status: ('A' for Active; 'I' for Inactive)
REMARK    1  A    between atoms: C_1  and  O_2
REMARK    2  A    between atoms: O_2  and  C_3
REMARK    3  A    between atoms: C_6  and  C_18
REMARK    4  A    between atoms: C_8  and  C_9
REMARK    5  A    between atoms: C_9  and  O_10
REMARK    6  A    between atoms: O_10  and  C_11
REMARK    7  A    between atoms: C_25  and  O_30
REMARK    8  A    between atoms: O_30  and  C_31
REMARK    9  A    between atoms: C_31  and  C_32
REMARK                            x       y       z     vdW  Elec       q    Type
REMARK                         _______ _______ _______ _____ _____    ______ ____
ROOT
ATOM      1  C   UNL     1       2.506  -2.503  -4.381  0.00  0.00    +0.111 C 
ATOM      2  C   UNL     1       4.025  -2.379  -4.247  0.00  0.00    +0.128 C 
ATOM      3  C   UNL     1       4.344  -0.894  -4.380  0.00  0.00    -0.035 C 
ATOM      4  C   UNL     1       5.050  -0.565  -3.308  0.00  0.00    +0.003 A 
ATOM      5  C   UNL     1       5.712   0.688  -2.911  0.00  0.00    +0.055 A 
ATOM      6  C   UNL     1       6.353   0.687  -1.710  0.00  0.00    +0.122 A 
ATOM      7  C   UNL     1       6.412  -0.423  -0.854  0.00  0.00    +0.048 A 
ATOM      8  C   UNL     1       5.845  -1.626  -1.123  0.00  0.00    +0.029 A 
ATOM      9  C   UNL     1       5.125  -1.750  -2.398  0.00  0.00    +0.043 A 
ATOM     10  N   UNL     1       4.508  -2.787  -2.928  0.00  0.00    -0.376 N 
ATOM     11  C   UNL     1       3.803  -0.067  -5.521  0.00  0.00    +0.048 C 
ATOM     12  C   UNL     1       2.300  -0.390  -5.610  0.00  0.00    +0.086 C 
ATOM     13  N   UNL     1       2.095  -1.842  -5.630  0.00  0.00    -0.307 NA
ATOM     14  H   UNL     1       2.551  -2.260  -6.427  0.00  0.00    +0.123 HD
ATOM     15  H   UNL     1       4.388  -3.661  -2.524  0.00  0.00    +0.160 HD
ENDROOT
BRANCH   1  19
ATOM     16  C   UNL     1       0.606  -0.607  -1.056  0.00  0.00    +0.126 A 
ATOM     17  C   UNL     1       1.526   0.093  -1.822  0.00  0.00    +0.046 A 
ATOM     18  C   UNL     1       2.139  -0.522  -2.897  0.00  0.00    +0.009 A 
ATOM     19  C   UNL     1       1.836  -1.835  -3.208  0.00  0.00    -0.028 A 
ATOM     20  C   UNL     1       0.919  -2.534  -2.446  0.00  0.00    +0.015 A 
ATOM     21  C   UNL     1       0.307  -1.925  -1.367  0.00  0.00    +0.032 A 
BRANCH  16  23
ATOM     22  C   UNL     1       0.358   1.355   0.264  0.00  0.00    +0.277 C 
ATOM     23  O   UNL     1       0.002  -0.004   0.002  0.00  0.00    -0.495 OA
ENDBRANCH  16  23
BRANCH  21  24
ATOM     24  C   UNL     1      -0.688  -2.691  -0.533  0.00  0.00    +0.268 C 
BRANCH  24  25
ATOM     25  O   UNL     1      -0.823  -4.016  -1.050  0.00  0.00    -0.487 OA
BRANCH  25  26
ATOM     26  C   UNL     1      -1.689  -4.844  -0.408  0.00  0.00    +0.121 A 
ATOM     27  C   UNL     1      -2.398  -4.387   0.694  0.00  0.00    +0.048 A 
ATOM     28  C   UNL     1      -3.277  -5.229   1.346  0.00  0.00    +0.042 A 
ATOM     29  C   UNL     1      -3.451  -6.529   0.901  0.00  0.00    +0.124 A 
ATOM     30  C   UNL     1      -2.744  -6.986  -0.198  0.00  0.00    +0.042 A 
ATOM     31  C   UNL     1      -1.869  -6.144  -0.856  0.00  0.00    +0.048 A 
ATOM     32  F   UNL     1      -4.312  -7.351   1.540  0.00  0.00    -0.205 F 
ENDBRANCH  25  26
ENDBRANCH  24  25
ENDBRANCH  21  24
ENDBRANCH   1  19
BRANCH   6  33
ATOM     33  O   UNL     1       6.974   1.830  -1.317  0.00  0.00    -0.487 OA
BRANCH  33  34
ATOM     34  C   UNL     1       7.640   1.805  -0.053  0.00  0.00    +0.264 C 
BRANCH  34  35
ATOM     35  C   UNL     1       8.265   3.150   0.212  0.00  0.00    -0.010 A 
ATOM     36  C   UNL     1       9.557   3.408  -0.210  0.00  0.00    +0.007 A 
ATOM     37  C   UNL     1      10.130   4.642   0.034  0.00  0.00    +0.000 A 
ATOM     38  C   UNL     1       9.412   5.619   0.698  0.00  0.00    +0.000 A 
ATOM     39  C   UNL     1       8.120   5.362   1.119  0.00  0.00    +0.000 A 
ATOM     40  C   UNL     1       7.546   4.129   0.871  0.00  0.00    +0.007 A 
ENDBRANCH  34  35
ENDBRANCH  33  34
ENDBRANCH   6  33
TORSDOF 8
