REMARK  Name = ZINC37739147
REMARK  4 active torsions:
REMARK  status: ('A' for Active; 'I' for Inactive)
REMARK    1  A    between atoms: C_5  and  C_7
REMARK    2  A    between atoms: C_7  and  N_8
REMARK    3  A    between atoms: C_9  and  C_11
REMARK    4  A    between atoms: C_14  and  O_18
REMARK                            x       y       z     vdW  Elec       q    Type
REMARK                         _______ _______ _______ _____ _____    ______ ____
ROOT
ATOM      1  N   UNL     1      -1.258  -2.029   0.545  0.00  0.00    -0.316 N 
ATOM      2  C   UNL     1      -2.273  -2.746   1.067  0.00  0.00    +0.199 C 
ATOM      3  O   UNL     1      -3.179  -2.184   1.643  0.00  0.00    -0.278 OA
ATOM      4  H   UNL     1      -0.533  -2.478   0.084  0.00  0.00    +0.149 HD
ENDROOT
BRANCH   2   5
ATOM      5  C   UNL     1      -2.281  -4.247   0.933  0.00  0.00    +0.018 C 
ATOM      6  C   UNL     1      -2.787  -4.647  -0.469  0.00  0.00    +0.023 C 
ATOM      7  C   UNL     1      -3.646  -5.907  -0.184  0.00  0.00    +0.097 C 
ATOM      8  C   UNL     1      -4.275  -5.553   1.187  0.00  0.00    -0.050 C 
ATOM      9  N   UNL     1      -3.207  -4.833   1.919  0.00  0.00    +0.388 N 
ATOM     10  H   UNL     1      -2.707  -5.478   2.514  0.00  0.00    -0.085 HD
ATOM     11  H   UNL     1      -3.614  -4.101   2.481  0.00  0.00    -0.085 HD
BRANCH   7  12
ATOM     12  O   UNL     1      -4.655  -6.075  -1.183  0.00  0.00    -0.394 OA
ATOM     13  H   UNL     1      -5.217  -6.850  -1.047  0.00  0.00    +0.210 HD
ENDBRANCH   7  12
ENDBRANCH   2   5
BRANCH   1  14
ATOM     14  C   UNL     1      -1.250  -0.569   0.675  0.00  0.00    +0.110 C 
BRANCH  14  19
ATOM     15  C   UNL     1      -0.019   1.549   0.011  0.00  0.00    +0.035 C 
ATOM     16  C   UNL     1       1.498   1.864  -0.002  0.00  0.00    +0.160 C 
ATOM     17  O   UNL     1       2.100   0.843   0.810  0.00  0.00    -0.379 OA
ATOM     18  C   UNL     1       1.263  -0.319   0.835  0.00  0.00    +0.165 C 
ATOM     19  C   UNL     1       0.002  -0.004   0.002  0.00  0.00    +0.034 C 
ENDBRANCH  14  19
ENDBRANCH   1  14
TORSDOF 4
