REMARK  Name = ZINC09543187
REMARK  9 active torsions:
REMARK  status: ('A' for Active; 'I' for Inactive)
REMARK    1  A    between atoms: C_1  and  C_2
REMARK    2  A    between atoms: C_2  and  O_3
REMARK    3  A    between atoms: O_3  and  C_4
REMARK    4  A    between atoms: C_9  and  C_10
REMARK    5  A    between atoms: C_12  and  C_25
REMARK    6  A    between atoms: C_15  and  C_17
REMARK    7  A    between atoms: C_21  and  O_23
REMARK    8  A    between atoms: O_23  and  C_24
REMARK    9  A    between atoms: C_30  and  O_31
REMARK                            x       y       z     vdW  Elec       q    Type
REMARK                         _______ _______ _______ _____ _____    ______ ____
ROOT
ATOM      1  C   UNL     1       2.338  -0.111   0.622  0.00  0.00    +0.084 C 
ATOM      2  C   UNL     1       1.419   2.030  -0.001  0.00  0.00    -0.028 C 
ATOM      3  C   UNL     1      -0.018   1.499   0.010  0.00  0.00    +0.044 C 
ATOM      4  C   UNL     1       0.002  -0.004   0.002  0.00  0.00    +0.040 C 
ATOM      5  N   UNL     1       1.046  -0.690   0.278  0.00  0.00    -0.298 NA
ATOM      6  N   UNL     1       2.190   1.296   1.022  0.00  0.00    +0.401 N 
ATOM      7  H   UNL     1       3.119   1.723   1.119  0.00  0.00    -0.081 HD
ATOM      8  H   UNL     1       1.696   1.345   1.921  0.00  0.00    -0.081 HD
ENDROOT
BRANCH   2   9
ATOM      9  C   UNL     1       1.420   3.501   0.325  0.00  0.00    -0.018 A 
ATOM     10  C   UNL     1       1.724   3.925   1.604  0.00  0.00    +0.020 A 
ATOM     11  C   UNL     1       1.732   5.276   1.903  0.00  0.00    +0.018 A 
ATOM     12  C   UNL     1       1.423   6.204   0.924  0.00  0.00    +0.019 A 
ATOM     13  C   UNL     1       1.112   5.784  -0.355  0.00  0.00    +0.047 A 
ATOM     14  C   UNL     1       1.110   4.430  -0.657  0.00  0.00    +0.119 A 
ATOM     15 BR   UNL     1       2.157   5.855   3.652  0.00  0.00    -0.050 Br
BRANCH  14  16
ATOM     16  O   UNL     1       0.805   4.014  -1.915  0.00  0.00    -0.507 OA
ATOM     17  H   UNL     1      -0.136   3.845  -2.056  0.00  0.00    +0.292 HD
ENDBRANCH  14  16
ENDBRANCH   2   9
BRANCH   1  23
ATOM     18  C   UNL     1       3.181  -1.285  -1.427  0.00  0.00    +0.124 A 
ATOM     19  C   UNL     1       4.025  -1.359  -2.526  0.00  0.00    +0.046 A 
ATOM     20  C   UNL     1       4.936  -0.349  -2.765  0.00  0.00    +0.004 A 
ATOM     21  C   UNL     1       5.007   0.736  -1.911  0.00  0.00    +0.000 A 
ATOM     22  C   UNL     1       4.164   0.815  -0.818  0.00  0.00    +0.007 A 
ATOM     23  C   UNL     1       3.254  -0.196  -0.572  0.00  0.00    +0.001 A 
BRANCH  18  24
ATOM     24  O   UNL     1       2.284  -2.278  -1.189  0.00  0.00    -0.492 OA
BRANCH  24  26
ATOM     25  C   UNL     1       1.198  -4.380  -1.684  0.00  0.00    +0.048 C 
ATOM     26  C   UNL     1       2.264  -3.369  -2.112  0.00  0.00    +0.225 C 
ENDBRANCH  24  26
ENDBRANCH  18  24
ENDBRANCH   1  23
BRANCH   4  27
ATOM     27  C   UNL     1      -1.242  -0.722  -0.340  0.00  0.00    -0.001 A 
ATOM     28  C   UNL     1      -2.402  -0.008  -0.647  0.00  0.00    +0.010 A 
ATOM     29  C   UNL     1      -3.562  -0.683  -0.967  0.00  0.00    +0.004 A 
ATOM     30  C   UNL     1      -3.580  -2.065  -0.985  0.00  0.00    +0.045 A 
ATOM     31  C   UNL     1      -2.432  -2.784  -0.682  0.00  0.00    +0.121 A 
ATOM     32  C   UNL     1      -1.260  -2.117  -0.364  0.00  0.00    +0.055 A 
BRANCH  31  33
ATOM     33  O   UNL     1      -2.456  -4.143  -0.702  0.00  0.00    -0.495 OA
ATOM     34  C   UNL     1      -3.697  -4.765  -1.043  0.00  0.00    +0.277 C 
ENDBRANCH  31  33
ENDBRANCH   4  27
TORSDOF 7
