REMARK  Name = ZINC08382547
REMARK  8 active torsions:
REMARK  status: ('A' for Active; 'I' for Inactive)
REMARK    1  A    between atoms: C_3  and  C_6
REMARK    2  A    between atoms: C_10  and  C_21
REMARK    3  A    between atoms: C_11  and  O_20
REMARK    4  A    between atoms: C_15  and  N_19
REMARK    5  A    between atoms: C_16  and  C_17
REMARK    6  A    between atoms: N_22  and  C_23
REMARK    7  A    between atoms: C_26  and  S_29
REMARK    8  A    between atoms: S_29  and  N_32
REMARK                            x       y       z     vdW  Elec       q    Type
REMARK                         _______ _______ _______ _____ _____    ______ ____
ROOT
ATOM      1  C   UNL     1       1.202  -2.186  -0.020  0.00  0.00    +0.134 C 
ATOM      2  C   UNL     1       1.203  -0.680  -0.013  0.00  0.00    +0.011 A 
ATOM      3  C   UNL     1       0.002  -0.004   0.002  0.00  0.00    +0.021 A 
ATOM      4  C   UNL     1      -0.017   1.394   0.010  0.00  0.00    +0.035 A 
ATOM      5  C   UNL     1       1.195   2.105   0.002  0.00  0.00    +0.129 A 
ATOM      6  C   UNL     1       2.393   1.415  -0.013  0.00  0.00    +0.092 A 
ATOM      7  C   UNL     1       2.401   0.025  -0.021  0.00  0.00    +0.138 A 
ATOM      8  O   UNL     1       3.589  -0.628  -0.037  0.00  0.00    -0.441 OA
ATOM      9  C   UNL     1       3.644  -1.911  -0.430  0.00  0.00    +0.199 C 
ATOM     10  C   UNL     1       2.547  -2.704  -0.445  0.00  0.00    +0.101 C 
ENDROOT
BRANCH   1  13
ATOM     11  C   UNL     1      -1.624  -3.676  -1.859  0.00  0.00    +0.041 A 
ATOM     12  C   UNL     1      -0.902  -3.456  -0.663  0.00  0.00    +0.045 A 
ATOM     13  C   UNL     1       0.150  -2.680  -0.980  0.00  0.00    +0.117 A 
ATOM     14  O   UNL     1       0.101  -2.415  -2.296  0.00  0.00    -0.467 OA
ATOM     15  C   UNL     1      -0.969  -3.021  -2.835  0.00  0.00    +0.195 A 
ENDBRANCH   1  13
BRANCH   9  16
ATOM     16  N   UNL     1       4.849  -2.435  -0.828  0.00  0.00    -0.328 N 
ATOM     17  H   UNL     1       4.905  -3.360  -1.114  0.00  0.00    +0.145 HD
ATOM     18  H   UNL     1       5.644  -1.880  -0.823  0.00  0.00    +0.145 HD
ENDBRANCH   9  16
BRANCH  10  19
ATOM     19  C   UNL     1       2.670  -4.065  -0.875  0.00  0.00    +0.101 C 
ATOM     20  N   UNL     1       2.768  -5.144  -1.216  0.00  0.00    -0.191 NA
ENDBRANCH  10  19
BRANCH   5  21
ATOM     21  O   UNL     1       1.190   3.462   0.009  0.00  0.00    -0.506 OA
ATOM     22  H   UNL     1       1.197   3.850   0.895  0.00  0.00    +0.292 HD
ENDBRANCH   5  21
BRANCH   4  23
ATOM     23  C   UNL     1      -1.296   2.116   0.020  0.00  0.00    +0.123 C 
ATOM     24  N   UNL     1      -1.309   3.420   0.027  0.00  0.00    -0.255 NA
BRANCH  24  25
ATOM     25  C   UNL     1      -2.501   4.093   0.036  0.00  0.00    +0.064 A 
ATOM     26  C   UNL     1      -3.534   3.702  -0.819  0.00  0.00    +0.029 A 
ATOM     27  C   UNL     1      -4.734   4.380  -0.801  0.00  0.00    +0.030 A 
ATOM     28  C   UNL     1      -4.913   5.453   0.055  0.00  0.00    +0.105 A 
ATOM     29  C   UNL     1      -3.893   5.850   0.901  0.00  0.00    +0.030 A 
ATOM     30  C   UNL     1      -2.689   5.176   0.897  0.00  0.00    +0.029 A 
BRANCH  28  31
ATOM     31  S   UNL     1      -6.448   6.319   0.066  0.00  0.00    +0.056 S 
ATOM     32  O   UNL     1      -7.428   5.415  -0.425  0.00  0.00    -0.153 OA
ATOM     33  O   UNL     1      -6.554   6.940   1.340  0.00  0.00    -0.153 OA
BRANCH  31  34
ATOM     34  N   UNL     1      -6.330   7.540  -1.047  0.00  0.00    -0.204 NA
ATOM     35  H   UNL     1      -5.511   7.657  -1.553  0.00  0.00    +0.144 HD
ATOM     36  H   UNL     1      -7.079   8.138  -1.192  0.00  0.00    +0.144 HD
ENDBRANCH  31  34
ENDBRANCH  28  31
ENDBRANCH  24  25
ENDBRANCH   4  23
TORSDOF 8
