REMARK  Name = ZINC35048199
REMARK  12 active torsions:
REMARK  status: ('A' for Active; 'I' for Inactive)
REMARK    1  A    between atoms: C_1  and  C_2
REMARK    2  A    between atoms: C_5  and  C_7
REMARK    3  A    between atoms: C_7  and  C_8
REMARK    4  A    between atoms: C_8  and  C_10
REMARK    5  A    between atoms: C_13  and  O_17
REMARK    6  A    between atoms: C_15  and  O_16
REMARK    7  A    between atoms: O_17  and  C_18
REMARK    8  A    between atoms: C_20  and  O_33
REMARK    9  A    between atoms: C_22  and  O_32
REMARK   10  A    between atoms: C_24  and  O_31
REMARK   11  A    between atoms: C_26  and  C_29
REMARK   12  A    between atoms: C_29  and  O_30
REMARK                            x       y       z     vdW  Elec       q    Type
REMARK                         _______ _______ _______ _____ _____    ______ ____
ROOT
ATOM      1  C   UNL     1      -1.609  -4.198   3.804  0.00  0.00    +0.059 A 
ATOM      2  C   UNL     1      -0.534  -4.752   4.514  0.00  0.00    +0.018 A 
ATOM      3  C   UNL     1      -0.769  -5.597   5.559  0.00  0.00    +0.046 A 
ATOM      4  C   UNL     1      -2.074  -5.916   5.928  0.00  0.00    +0.128 A 
ATOM      5  C   UNL     1      -3.149  -5.377   5.237  0.00  0.00    +0.091 A 
ATOM      6  C   UNL     1      -2.927  -4.514   4.178  0.00  0.00    +0.131 A 
ENDROOT
BRANCH   1   7
ATOM      7  C   UNL     1      -1.359  -3.290   2.682  0.00  0.00    +0.173 C 
ATOM      8  O   UNL     1      -2.292  -2.808   2.072  0.00  0.00    -0.292 OA
BRANCH   7   9
ATOM      9  C   UNL     1       0.055  -2.955   2.284  0.00  0.00    +0.142 C 
BRANCH   9  14
ATOM     10  C   UNL     1      -0.018   1.503   0.010  0.00  0.00    +0.066 C 
ATOM     11  C   UNL     1       0.002  -0.004   0.002  0.00  0.00    +0.046 A 
ATOM     12  C   UNL     1       0.006  -0.708  -1.159  0.00  0.00    +0.070 A 
ATOM     13  S   UNL     1       0.032  -2.379  -0.531  0.00  0.00    -0.080 S 
ATOM     14  C   UNL     1       0.036  -2.009   1.111  0.00  0.00    +0.086 A 
ATOM     15  N   UNL     1       0.023  -0.699   1.122  0.00  0.00    -0.249 NA
ENDBRANCH   9  14
ENDBRANCH   7   9
ENDBRANCH   1   7
BRANCH   6  16
ATOM     16  O   UNL     1      -3.974  -3.979   3.502  0.00  0.00    -0.506 OA
ATOM     17  H   UNL     1      -4.271  -4.512   2.752  0.00  0.00    +0.292 HD
ENDBRANCH   6  16
BRANCH   4  18
ATOM     18  O   UNL     1      -2.294  -6.759   6.968  0.00  0.00    -0.461 OA
BRANCH  18  19
ATOM     19  C   UNL     1      -1.143  -7.279   7.636  0.00  0.00    +0.339 C 
ATOM     20  C   UNL     1      -1.585  -8.103   8.849  0.00  0.00    +0.214 C 
ATOM     21  C   UNL     1      -2.422  -9.293   8.370  0.00  0.00    +0.180 C 
ATOM     22  C   UNL     1      -1.596 -10.117   7.377  0.00  0.00    +0.177 C 
ATOM     23  C   UNL     1      -1.153  -9.215   6.221  0.00  0.00    +0.179 C 
ATOM     24  O   UNL     1      -0.406  -8.112   6.739  0.00  0.00    -0.331 OA
BRANCH  22  25
ATOM     25  O   UNL     1      -0.446 -10.648   8.037  0.00  0.00    -0.386 OA
ATOM     26  H   UNL     1      -0.653 -11.226   8.784  0.00  0.00    +0.210 HD
ENDBRANCH  22  25
BRANCH  21  27
ATOM     27  O   UNL     1      -2.779 -10.107   9.488  0.00  0.00    -0.386 OA
ATOM     28  H   UNL     1      -3.299  -9.646  10.160  0.00  0.00    +0.210 HD
ENDBRANCH  21  27
BRANCH  20  29
ATOM     29  O   UNL     1      -0.433  -8.578   9.549  0.00  0.00    -0.383 OA
ATOM     30  H   UNL     1       0.145  -7.876   9.877  0.00  0.00    +0.210 HD
ENDBRANCH  20  29
BRANCH  23  31
ATOM     31  C   UNL     1      -0.278 -10.016   5.255  0.00  0.00    +0.190 C 
BRANCH  31  32
ATOM     32  O   UNL     1       0.039  -9.210   4.119  0.00  0.00    -0.392 OA
ATOM     33  H   UNL     1       0.593  -9.655   3.463  0.00  0.00    +0.210 HD
ENDBRANCH  31  32
ENDBRANCH  23  31
ENDBRANCH  18  19
ENDBRANCH   4  18
TORSDOF 11
