REMARK  Name = ZINC38551042
REMARK  7 active torsions:
REMARK  status: ('A' for Active; 'I' for Inactive)
REMARK    1  A    between atoms: C_1  and  C_2
REMARK    2  A    between atoms: C_6  and  N_8
REMARK    3  A    between atoms: N_8  and  C_9
REMARK    4  A    between atoms: C_9  and  C_11
REMARK    5  A    between atoms: C_9  and  C_17
REMARK    6  A    between atoms: C_21  and  N_22
REMARK    7  A    between atoms: C_23  and  C_25
REMARK                            x       y       z     vdW  Elec       q    Type
REMARK                         _______ _______ _______ _____ _____    ______ ____
ROOT
ATOM      1  C   UNL     1       0.777  -4.675   3.666  0.00  0.00    +0.009 A 
ATOM      2  C   UNL     1       1.795  -5.614   3.495  0.00  0.00    -0.030 A 
ATOM      3  C   UNL     1       2.401  -6.068   4.625  0.00  0.00    -0.005 A 
ATOM      4  S   UNL     1       1.572  -5.202   5.931  0.00  0.00    -0.078 S 
ATOM      5  C   UNL     1       0.444  -4.258   4.916  0.00  0.00    +0.078 A 
ATOM      6  C   UNL     1       3.508  -7.067   4.726  0.00  0.00    +0.043 C 
ATOM      7  C   UNL     1       3.627  -7.794   3.378  0.00  0.00    +0.005 C 
ATOM      8  C   UNL     1       3.623  -6.752   2.256  0.00  0.00    +0.005 C 
ATOM      9  C   UNL     1       2.233  -6.128   2.127  0.00  0.00    +0.036 C 
ENDROOT
BRANCH   5  10
ATOM     10  N   UNL     1      -0.528  -3.334   5.306  0.00  0.00    -0.273 N 
ATOM     11  C   UNL     1      -0.782  -3.135   6.615  0.00  0.00    +0.284 C 
ATOM     12  O   UNL     1      -0.164  -3.760   7.457  0.00  0.00    -0.266 OA
ATOM     13  H   UNL     1      -1.021  -2.836   4.636  0.00  0.00    +0.156 HD
BRANCH  11  14
ATOM     14  C   UNL     1      -1.802  -2.165   7.024  0.00  0.00    +0.189 A 
ATOM     15  C   UNL     1      -2.153  -1.863   8.309  0.00  0.00    +0.054 A 
ATOM     16  C   UNL     1      -3.162  -0.890   8.235  0.00  0.00    +0.042 A 
ATOM     17  C   UNL     1      -3.379  -0.643   6.924  0.00  0.00    +0.196 A 
ATOM     18  O   UNL     1      -2.555  -1.410   6.198  0.00  0.00    -0.458 OA
ENDBRANCH  11  14
ENDBRANCH   5  10
BRANCH   1  19
ATOM     19  C   UNL     1       0.052  -4.120   2.467  0.00  0.00    +0.135 C 
BRANCH  19  20
ATOM     20  C   UNL     1      -1.333  -4.710   2.400  0.00  0.00    -0.023 A 
ATOM     21  C   UNL     1      -2.386  -4.076   3.032  0.00  0.00    +0.006 A 
ATOM     22  C   UNL     1      -3.656  -4.617   2.971  0.00  0.00    +0.000 A 
ATOM     23  C   UNL     1      -3.875  -5.792   2.276  0.00  0.00    +0.000 A 
ATOM     24  C   UNL     1      -2.822  -6.426   1.643  0.00  0.00    +0.000 A 
ATOM     25  C   UNL     1      -1.552  -5.883   1.701  0.00  0.00    +0.006 A 
ENDBRANCH  19  20
BRANCH  19  26
ATOM     26  N   UNL     1      -0.043  -2.663   2.585  0.00  0.00    -0.320 N 
ATOM     27  H   UNL     1       0.085  -2.237   3.446  0.00  0.00    +0.148 HD
BRANCH  26  33
ATOM     28  C   UNL     1      -0.745   1.688   0.715  0.00  0.00    +0.063 C 
ATOM     29  C   UNL     1      -0.659   0.194   0.534  0.00  0.00    +0.014 A 
ATOM     30  C   UNL     1      -0.851  -0.352  -0.720  0.00  0.00    +0.021 A 
ATOM     31  C   UNL     1      -0.770  -1.729  -0.881  0.00  0.00    +0.005 A 
ATOM     32  C   UNL     1      -0.499  -2.509   0.228  0.00  0.00    +0.041 A 
ATOM     33  C   UNL     1      -0.316  -1.891   1.461  0.00  0.00    +0.097 A 
ATOM     34  N   UNL     1      -0.396  -0.574   1.574  0.00  0.00    -0.347 N 
ATOM     35  H   UNL     1      -0.261  -0.165   2.442  0.00  0.00    +0.167 HD
ENDBRANCH  26  33
ENDBRANCH  19  26
ENDBRANCH   1  19
TORSDOF 6
