REMARK  Name = ZINC40008584
REMARK  10 active torsions:
REMARK  status: ('A' for Active; 'I' for Inactive)
REMARK    1  A    between atoms: C_1  and  C_2
REMARK    2  A    between atoms: C_2  and  N_3
REMARK    3  A    between atoms: N_3  and  C_4
REMARK    4  A    between atoms: N_3  and  C_6
REMARK    5  A    between atoms: C_4  and  C_5
REMARK    6  A    between atoms: C_6  and  C_7
REMARK    7  A    between atoms: C_7  and  C_8
REMARK    8  A    between atoms: C_8  and  N_9
REMARK    9  A    between atoms: C_10  and  C_26
REMARK   10  A    between atoms: C_29  and  O_32
REMARK                            x       y       z     vdW  Elec       q    Type
REMARK                         _______ _______ _______ _____ _____    ______ ____
ROOT
ATOM      1  N   UNL     1      -4.266  -4.657   0.103  0.00  0.00    -0.284 N 
ATOM      2  C   UNL     1      -5.231  -4.811   1.204  0.00  0.00    +0.144 C 
ATOM      3  C   UNL     1      -6.472  -5.364   0.585  0.00  0.00    +0.072 A 
ATOM      4  C   UNL     1      -7.764  -5.734   1.173  0.00  0.00    +0.199 A 
ATOM      5  O   UNL     1      -8.076  -5.466   2.320  0.00  0.00    -0.287 OA
ATOM      6  C   UNL     1      -8.655  -6.466   0.238  0.00  0.00    +0.065 A 
ATOM      7  C   UNL     1      -9.830  -7.059   0.701  0.00  0.00    +0.030 A 
ATOM      8  C   UNL     1     -10.642  -7.738  -0.180  0.00  0.00    +0.019 A 
ATOM      9  C   UNL     1     -10.290  -7.832  -1.520  0.00  0.00    +0.019 A 
ATOM     10  C   UNL     1      -9.135  -7.249  -1.988  0.00  0.00    +0.048 A 
ATOM     11  C   UNL     1      -8.296  -6.553  -1.117  0.00  0.00    +0.140 A 
ATOM     12  O   UNL     1      -7.172  -5.982  -1.605  0.00  0.00    -0.450 OA
ATOM     13  C   UNL     1      -6.241  -5.509  -0.753  0.00  0.00    +0.199 A 
ATOM     14  C   UNL     1      -4.865  -5.062  -1.036  0.00  0.00    +0.283 C 
ATOM     15  O   UNL     1      -4.346  -5.060  -2.134  0.00  0.00    -0.267 OA
ATOM     16 BR   UNL     1     -12.237  -8.546   0.436  0.00  0.00    -0.050 Br
ENDROOT
BRANCH   2  17
ATOM     17  C   UNL     1      -5.515  -3.473   1.837  0.00  0.00    -0.022 A 
ATOM     18  C   UNL     1      -5.655  -2.350   1.042  0.00  0.00    +0.009 A 
ATOM     19  C   UNL     1      -5.915  -1.122   1.619  0.00  0.00    +0.046 A 
ATOM     20  C   UNL     1      -6.037  -1.016   2.997  0.00  0.00    +0.117 A 
ATOM     21  C   UNL     1      -5.896  -2.144   3.792  0.00  0.00    +0.046 A 
ATOM     22  C   UNL     1      -5.641  -3.371   3.210  0.00  0.00    +0.009 A 
BRANCH  20  23
ATOM     23  O   UNL     1      -6.292   0.191   3.567  0.00  0.00    -0.507 OA
ATOM     24  H   UNL     1      -7.234   0.387   3.667  0.00  0.00    +0.292 HD
ENDBRANCH  20  23
ENDBRANCH   2  17
BRANCH   1  25
ATOM     25  C   UNL     1      -2.898  -4.149   0.222  0.00  0.00    +0.107 C 
BRANCH  25  26
ATOM     26  C   UNL     1      -2.901  -2.630   0.038  0.00  0.00    +0.000 C 
BRANCH  26  27
ATOM     27  C   UNL     1      -1.471  -2.099   0.162  0.00  0.00    -0.077 C 
BRANCH  27  28
ATOM     28  N   UNL     1      -1.456  -0.660  -0.135  0.00  0.00    +0.379 N 
ATOM     29  H   UNL     1      -1.869  -0.500  -1.042  0.00  0.00    -0.082 HD
BRANCH  28  31
ATOM     30  C   UNL     1      -2.314   1.540   0.512  0.00  0.00    -0.017 C 
ATOM     31  C   UNL     1      -2.225   0.060   0.888  0.00  0.00    -0.082 C 
ENDBRANCH  28  31
BRANCH  28  32
ATOM     32  C   UNL     1      -0.069  -0.175  -0.137  0.00  0.00    -0.082 C 
ATOM     33  C   UNL     1       0.691  -0.808  -1.304  0.00  0.00    -0.017 C 
ENDBRANCH  28  32
ENDBRANCH  27  28
ENDBRANCH  26  27
ENDBRANCH  25  26
ENDBRANCH   1  25
TORSDOF 8
