REMARK  Name = ZINC41006581
REMARK  9 active torsions:
REMARK  status: ('A' for Active; 'I' for Inactive)
REMARK    1  A    between atoms: C_1  and  C_2
REMARK    2  A    between atoms: C_7  and  N_8
REMARK    3  A    between atoms: C_9  and  C_11
REMARK    4  A    between atoms: C_13  and  C_33
REMARK    5  A    between atoms: C_15  and  C_23
REMARK    6  A    between atoms: C_17  and  C_21
REMARK    7  A    between atoms: C_17  and  O_22
REMARK    8  A    between atoms: N_25  and  C_26
REMARK    9  A    between atoms: C_31  and  C_32
REMARK                            x       y       z     vdW  Elec       q    Type
REMARK                         _______ _______ _______ _____ _____    ______ ____
ROOT
ATOM      1  C   UNL     1      -0.034  -0.332   4.600  0.00  0.00    +0.150 C 
ATOM      2  C   UNL     1      -0.132  -1.127   5.907  0.00  0.00    +0.057 C 
ATOM      3  C   UNL     1       1.243  -1.696   6.260  0.00  0.00    +0.116 C 
ATOM      4  C   UNL     1       2.225  -0.554   6.523  0.00  0.00    +0.082 C 
ATOM      5  C   UNL     1       2.412   0.263   5.240  0.00  0.00    +0.110 C 
ATOM      6  C   UNL     1       1.050   0.713   4.749  0.00  0.00    +0.148 C 
ATOM      7  O   UNL     1       0.833   1.872   4.487  0.00  0.00    -0.296 OA
ATOM      8  C   UNL     1       1.672   0.350   7.627  0.00  0.00    +0.042 C 
ENDROOT
BRANCH   2   9
ATOM      9  C   UNL     1      -1.115  -2.256   5.735  0.00  0.00    +0.011 A 
ATOM     10  C   UNL     1      -0.659  -3.541   5.494  0.00  0.00    +0.128 A 
ATOM     11  C   UNL     1      -1.563  -4.577   5.336  0.00  0.00    +0.039 A 
ATOM     12  C   UNL     1      -2.920  -4.329   5.419  0.00  0.00    +0.004 A 
ATOM     13  C   UNL     1      -3.376  -3.047   5.659  0.00  0.00    +0.020 A 
ATOM     14  C   UNL     1      -2.473  -2.010   5.823  0.00  0.00    +0.047 A 
ATOM     15 CL   UNL     1      -3.046  -0.401   6.132  0.00  0.00    -0.083 Cl
ATOM     16  F   UNL     1       0.668  -3.783   5.412  0.00  0.00    -0.205 F 
ENDBRANCH   2   9
BRANCH   1  18
ATOM     17  N   UNL     1       0.383  -0.790   2.206  0.00  0.00    -0.285 N 
ATOM     18  C   UNL     1       0.312  -1.262   3.466  0.00  0.00    +0.228 C 
ATOM     19  O   UNL     1       0.528  -2.434   3.688  0.00  0.00    -0.275 OA
ATOM     20  H   UNL     1       0.233   0.152   2.031  0.00  0.00    +0.155 HD
BRANCH  17  27
ATOM     21  C   UNL     1      -0.558  -0.108  -0.392  0.00  0.00    +0.045 C 
ATOM     22  C   UNL     1       0.232  -1.366  -0.135  0.00  0.00    -0.029 A 
ATOM     23  C   UNL     1       0.524  -2.224  -1.177  0.00  0.00    +0.005 A 
ATOM     24  C   UNL     1       1.248  -3.378  -0.943  0.00  0.00    +0.000 A 
ATOM     25  C   UNL     1       1.683  -3.677   0.336  0.00  0.00    +0.002 A 
ATOM     26  C   UNL     1       1.395  -2.823   1.382  0.00  0.00    +0.023 A 
ATOM     27  C   UNL     1       0.672  -1.660   1.149  0.00  0.00    +0.036 A 
ENDBRANCH  17  27
ENDBRANCH   1  18
BRANCH   3  28
ATOM     28  C   UNL     1       1.128  -2.552   7.495  0.00  0.00    +0.224 C 
ATOM     29  O   UNL     1       0.053  -2.691   8.039  0.00  0.00    -0.275 OA
ATOM     30  N   UNL     1       2.221  -3.161   7.996  0.00  0.00    -0.285 N 
ATOM     31  H   UNL     1       3.095  -2.978   7.618  0.00  0.00    +0.155 HD
BRANCH  30  32
ATOM     32  C   UNL     1       2.094  -4.059   9.062  0.00  0.00    +0.036 A 
ATOM     33  C   UNL     1       1.072  -3.900   9.988  0.00  0.00    +0.023 A 
ATOM     34  C   UNL     1       0.950  -4.787  11.039  0.00  0.00    +0.002 A 
ATOM     35  C   UNL     1       1.844  -5.834  11.169  0.00  0.00    +0.000 A 
ATOM     36  C   UNL     1       2.863  -5.996  10.249  0.00  0.00    +0.005 A 
ATOM     37  C   UNL     1       2.987  -5.115   9.192  0.00  0.00    -0.029 A 
ATOM     38  C   UNL     1       4.093  -5.296   8.185  0.00  0.00    +0.045 C 
ENDBRANCH  30  32
ENDBRANCH   3  28
BRANCH   4  39
ATOM     39  O   UNL     1       3.484  -1.092   6.933  0.00  0.00    -0.388 OA
ATOM     40  H   UNL     1       4.157  -0.423   7.118  0.00  0.00    +0.210 HD
ENDBRANCH   4  39
TORSDOF 6
