REMARK  Name = ZINC40548346
REMARK  7 active torsions:
REMARK  status: ('A' for Active; 'I' for Inactive)
REMARK    1  A    between atoms: C_1  and  C_2
REMARK    2  A    between atoms: C_5  and  C_8
REMARK    3  A    between atoms: C_11  and  C_27
REMARK    4  A    between atoms: N_18  and  C_19
REMARK    5  A    between atoms: C_29  and  C_35
REMARK    6  A    between atoms: C_31  and  C_34
REMARK    7  A    between atoms: C_32  and  O_33
REMARK                            x       y       z     vdW  Elec       q    Type
REMARK                         _______ _______ _______ _____ _____    ______ ____
ROOT
ATOM      1  C   UNL     1       0.220  -3.877   0.253  0.00  0.00    +0.142 C 
ATOM      2  C   UNL     1       1.537  -4.605   0.266  0.00  0.00    +0.035 A 
ATOM      3  C   UNL     1       2.773  -4.818  -0.353  0.00  0.00    +0.102 A 
ATOM      4  N   UNL     1       3.426  -5.710   0.366  0.00  0.00    -0.173 NA
ATOM      5  N   UNL     1       2.725  -6.081   1.377  0.00  0.00    -0.272 N 
ATOM      6  H   UNL     1       3.006  -6.729   2.042  0.00  0.00    +0.189 HD
ATOM      7  C   UNL     1       1.526  -5.427   1.377  0.00  0.00    +0.126 A 
ATOM      8  C   UNL     1       0.247  -5.250   2.075  0.00  0.00    +0.266 C 
ATOM      9  O   UNL     1      -0.074  -5.833   3.093  0.00  0.00    -0.268 OA
ATOM     10  N   UNL     1      -0.520  -4.351   1.429  0.00  0.00    -0.280 N 
ENDROOT
BRANCH   3  11
ATOM     11  C   UNL     1       3.260  -4.161  -1.592  0.00  0.00    +0.044 A 
ATOM     12  C   UNL     1       2.415  -3.327  -2.319  0.00  0.00    +0.017 A 
ATOM     13  C   UNL     1       2.872  -2.718  -3.471  0.00  0.00    -0.049 A 
ATOM     14  C   UNL     1       4.168  -2.934  -3.906  0.00  0.00    +0.010 A 
ATOM     15  C   UNL     1       5.014  -3.761  -3.192  0.00  0.00    -0.008 A 
ATOM     16  C   UNL     1       4.570  -4.373  -2.030  0.00  0.00    +0.129 A 
ATOM     17  C   UNL     1       6.424  -3.992  -3.672  0.00  0.00    +0.047 C 
ATOM     18  C   UNL     1       1.957  -1.815  -4.257  0.00  0.00    +0.044 C 
BRANCH  16  19
ATOM     19  O   UNL     1       5.403  -5.181  -1.324  0.00  0.00    -0.506 OA
ATOM     20  H   UNL     1       5.373  -6.110  -1.594  0.00  0.00    +0.292 HD
ENDBRANCH  16  19
ENDBRANCH   3  11
BRANCH   1  25
ATOM     21  C   UNL     1       1.098   1.823   0.615  0.00  0.00    +0.044 C 
ATOM     22  C   UNL     1       0.869   0.336   0.521  0.00  0.00    -0.050 A 
ATOM     23  C   UNL     1       1.147  -0.476   1.604  0.00  0.00    +0.004 A 
ATOM     24  C   UNL     1       0.936  -1.840   1.518  0.00  0.00    +0.006 A 
ATOM     25  C   UNL     1       0.449  -2.391   0.347  0.00  0.00    -0.022 A 
ATOM     26  C   UNL     1       0.170  -1.578  -0.736  0.00  0.00    +0.006 A 
ATOM     27  C   UNL     1       0.376  -0.214  -0.648  0.00  0.00    +0.004 A 
ENDBRANCH   1  25
BRANCH  10  28
ATOM     28  C   UNL     1      -1.861  -3.920   1.831  0.00  0.00    +0.100 C 
ATOM     29  C   UNL     1      -2.800  -5.137   1.868  0.00  0.00    +0.047 C 
ATOM     30  C   UNL     1      -4.112  -4.716   2.589  0.00  0.00    +0.168 C 
ATOM     31  S   UNL     1      -3.429  -3.685   3.955  0.00  0.00    -0.029 S 
ATOM     32  O   UNL     1      -3.232  -4.505   5.098  0.00  0.00    -0.174 OA
ATOM     33  O   UNL     1      -4.204  -2.499   4.071  0.00  0.00    -0.174 OA
ATOM     34  C   UNL     1      -1.793  -3.265   3.231  0.00  0.00    +0.188 C 
ENDBRANCH  10  28
TORSDOF 4
