REMARK  Name = ZINC15859625
REMARK  11 active torsions:
REMARK  status: ('A' for Active; 'I' for Inactive)
REMARK    1  A    between atoms: C_1  and  C_2
REMARK    2  A    between atoms: C_5  and  C_8
REMARK    3  A    between atoms: N_10  and  C_11
REMARK    4  A    between atoms: C_19  and  C_20
REMARK    5  A    between atoms: C_20  and  C_22
REMARK    6  A    between atoms: C_20  and  N_71
REMARK    7  A    between atoms: C_24  and  O_30
REMARK    8  A    between atoms: C_27  and  O_28
REMARK    9  A    between atoms: O_28  and  C_29
REMARK   10  A    between atoms: O_30  and  C_31
REMARK   11  A    between atoms: C_34  and  C_37
REMARK                            x       y       z     vdW  Elec       q    Type
REMARK                         _______ _______ _______ _____ _____    ______ ____
ROOT
ATOM      1  C   UNL     1      -2.291   4.150   0.064  0.00  0.00    +0.082 A 
ATOM      2  C   UNL     1      -1.298   3.600  -0.872  0.00  0.00    +0.042 A 
ATOM      3  C   UNL     1      -1.365   2.752  -1.976  0.00  0.00    +0.013 A 
ATOM      4  C   UNL     1      -0.221   2.421  -2.647  0.00  0.00    +0.001 A 
ATOM      5  C   UNL     1       1.003   2.933  -2.243  0.00  0.00    +0.004 A 
ATOM      6  C   UNL     1       1.089   3.777  -1.157  0.00  0.00    +0.047 A 
ATOM      7  C   UNL     1      -0.061   4.121  -0.457  0.00  0.00    +0.137 A 
ATOM      8  O   UNL     1      -0.293   4.902   0.617  0.00  0.00    -0.459 OA
ATOM      9  C   UNL     1      -1.604   4.921   0.925  0.00  0.00    +0.118 A 
ENDROOT
BRANCH   1  12
ATOM     10  C   UNL     1      -4.150   2.671   0.259  0.00  0.00    +0.248 C 
ATOM     11  O   UNL     1      -3.384   1.763   0.519  0.00  0.00    -0.270 OA
ATOM     12  N   UNL     1      -3.676   3.916   0.058  0.00  0.00    -0.278 N 
ATOM     13  H   UNL     1      -4.291   4.651  -0.089  0.00  0.00    +0.155 HD
BRANCH  10  18
ATOM     14  C   UNL     1      -9.800   1.648  -0.118  0.00  0.00    +0.044 C 
ATOM     15  C   UNL     1      -8.321   1.916  -0.019  0.00  0.00    -0.050 A 
ATOM     16  C   UNL     1      -7.452   0.881   0.277  0.00  0.00    +0.004 A 
ATOM     17  C   UNL     1      -6.096   1.119   0.369  0.00  0.00    +0.013 A 
ATOM     18  C   UNL     1      -5.602   2.408   0.162  0.00  0.00    +0.037 A 
ATOM     19  C   UNL     1      -6.484   3.449  -0.132  0.00  0.00    +0.013 A 
ATOM     20  C   UNL     1      -7.837   3.196  -0.226  0.00  0.00    +0.004 A 
ENDBRANCH  10  18
ENDBRANCH   1  12
BRANCH   9  21
ATOM     21  C   UNL     1      -2.212   5.693   2.068  0.00  0.00    +0.035 C 
BRANCH  21  28
ATOM     22  C   UNL     1      -1.739   7.684   0.774  0.00  0.00    -0.077 C 
ATOM     23  C   UNL     1      -1.016   9.033   0.804  0.00  0.00    -0.015 C 
ATOM     24  C   UNL     1      -1.662   9.929   1.864  0.00  0.00    -0.018 C 
ATOM     25  C   UNL     1      -1.600   9.225   3.222  0.00  0.00    -0.015 C 
ATOM     26  C   UNL     1      -2.306   7.870   3.122  0.00  0.00    -0.077 C 
ATOM     27  C   UNL     1      -0.906  11.256   1.941  0.00  0.00    +0.007 C 
ATOM     28  N   UNL     1      -1.621   7.047   2.103  0.00  0.00    +0.389 N 
ATOM     29  H   UNL     1      -0.627   6.971   2.349  0.00  0.00    -0.080 HD
ENDBRANCH  21  28
BRANCH  21  30
ATOM     30  C   UNL     1      -1.904   4.995   3.367  0.00  0.00    -0.009 A 
ATOM     31  C   UNL     1      -0.875   5.451   4.169  0.00  0.00    +0.051 A 
ATOM     32  C   UNL     1      -0.592   4.808   5.364  0.00  0.00    +0.121 A 
ATOM     33  C   UNL     1      -1.341   3.708   5.755  0.00  0.00    +0.049 A 
ATOM     34  C   UNL     1      -2.369   3.252   4.954  0.00  0.00    +0.049 A 
ATOM     35  C   UNL     1      -2.656   3.898   3.760  0.00  0.00    +0.122 A 
BRANCH  35  36
ATOM     36  O   UNL     1      -3.672   3.453   2.974  0.00  0.00    -0.495 OA
ATOM     37  C   UNL     1      -4.405   2.319   3.441  0.00  0.00    +0.277 C 
ENDBRANCH  35  36
BRANCH  32  38
ATOM     38  O   UNL     1       0.421   5.257   6.154  0.00  0.00    -0.495 OA
ATOM     39  C   UNL     1       0.657   4.547   7.372  0.00  0.00    +0.277 C 
ENDBRANCH  32  38
ENDBRANCH  21  30
ENDBRANCH   9  21
TORSDOF 7
