REMARK  Name = ZINC39550205
REMARK  5 active torsions:
REMARK  status: ('A' for Active; 'I' for Inactive)
REMARK    1  A    between atoms: C_1  and  N_2
REMARK    2  A    between atoms: C_9  and  O_31
REMARK    3  A    between atoms: C_11  and  C_15
REMARK    4  A    between atoms: N_17  and  C_18
REMARK    5  A    between atoms: C_20  and  O_30
REMARK                            x       y       z     vdW  Elec       q    Type
REMARK                         _______ _______ _______ _____ _____    ______ ____
ROOT
ATOM      1  C   UNL     1       1.132  -2.653   1.423  0.00  0.00    +0.229 C 
ATOM      2  O   UNL     1       0.220  -3.381   1.753  0.00  0.00    -0.275 OA
ATOM      3  N   UNL     1       2.061  -2.284   2.327  0.00  0.00    -0.297 N 
ATOM      4  H   UNL     1       2.789  -1.701   2.063  0.00  0.00    +0.150 HD
ENDROOT
BRANCH   1  14
ATOM      5  C   UNL     1      -0.018   1.461   0.010  0.00  0.00    +0.138 C 
ATOM      6  N   UNL     1       0.002  -0.004   0.002  0.00  0.00    -0.273 N 
ATOM      7  C   UNL     1      -1.202  -0.715   0.004  0.00  0.00    +0.042 A 
ATOM      8  C   UNL     1      -2.380  -0.092   0.395  0.00  0.00    +0.024 A 
ATOM      9  C   UNL     1      -3.566  -0.800   0.395  0.00  0.00    +0.002 A 
ATOM     10  C   UNL     1      -3.581  -2.127   0.006  0.00  0.00    +0.000 A 
ATOM     11  C   UNL     1      -2.409  -2.750  -0.383  0.00  0.00    +0.008 A 
ATOM     12  C   UNL     1      -1.221  -2.047  -0.385  0.00  0.00    +0.003 A 
ATOM     13  C   UNL     1       0.058  -2.723  -0.809  0.00  0.00    +0.167 C 
ATOM     14  C   UNL     1       1.226  -2.160   0.002  0.00  0.00    +0.194 C 
ATOM     15  C   UNL     1       1.179  -0.656  -0.013  0.00  0.00    +0.234 C 
ATOM     16  O   UNL     1       2.214  -0.025  -0.034  0.00  0.00    -0.274 OA
BRANCH  13  17
ATOM     17  O   UNL     1       0.285  -2.483  -2.199  0.00  0.00    -0.386 OA
ATOM     18  H   UNL     1      -0.418  -2.815  -2.775  0.00  0.00    +0.210 HD
ENDBRANCH  13  17
ENDBRANCH   1  14
BRANCH   3  19
ATOM     19  C   UNL     1       1.969  -2.762   3.709  0.00  0.00    +0.226 C 
ATOM     20  C   UNL     1       2.608  -1.720   4.606  0.00  0.00    +0.132 C 
ATOM     21  C   UNL     1       3.676  -2.138   5.403  0.00  0.00    +0.036 A 
ATOM     22  C   UNL     1       4.327  -1.233   6.267  0.00  0.00    +0.013 A 
ATOM     23  C   UNL     1       5.365  -1.666   7.034  0.00  0.00    +0.001 A 
ATOM     24  C   UNL     1       5.799  -2.987   6.984  0.00  0.00    +0.002 A 
ATOM     25  C   UNL     1       5.209  -3.907   6.169  0.00  0.00    +0.024 A 
ATOM     26  C   UNL     1       4.131  -3.530   5.350  0.00  0.00    +0.044 A 
ATOM     27  N   UNL     1       3.553  -4.435   4.550  0.00  0.00    -0.283 N 
ATOM     28  C   UNL     1       2.541  -4.161   3.754  0.00  0.00    +0.245 C 
ATOM     29  O   UNL     1       2.065  -5.035   3.054  0.00  0.00    -0.273 OA
ATOM     30  H   UNL     1       3.899  -5.342   4.558  0.00  0.00    +0.155 HD
BRANCH  20  31
ATOM     31  O   UNL     1       2.170  -0.457   4.632  0.00  0.00    -0.508 OA
ATOM     32  H   UNL     1       2.655   0.115   5.242  0.00  0.00    +0.292 HD
ENDBRANCH  20  31
ENDBRANCH   3  19
TORSDOF 4
