REMARK  Name = ZINC14927499
REMARK  11 active torsions:
REMARK  status: ('A' for Active; 'I' for Inactive)
REMARK    1  A    between atoms: C_1  and  C_2
REMARK    2  A    between atoms: C_2  and  C_3
REMARK    3  A    between atoms: C_2  and  N_4
REMARK    4  A    between atoms: N_4  and  C_5
REMARK    5  A    between atoms: N_4  and  C_9
REMARK    6  A    between atoms: C_5  and  C_6
REMARK    7  A    between atoms: C_9  and  C_10
REMARK    8  A    between atoms: N_12  and  C_13
REMARK    9  A    between atoms: C_16  and  N_19
REMARK   10  A    between atoms: N_22  and  C_25
REMARK   11  A    between atoms: C_25  and  C_26
REMARK                            x       y       z     vdW  Elec       q    Type
REMARK                         _______ _______ _______ _____ _____    ______ ____
ROOT
ATOM      1  C   UNL     1      -2.152   2.953  -0.907  0.00  0.00    +0.033 A 
ATOM      2  C   UNL     1      -1.189   3.619  -0.161  0.00  0.00    +0.025 A 
ATOM      3  C   UNL     1      -1.434   4.898   0.299  0.00  0.00    +0.025 A 
ATOM      4  C   UNL     1      -2.644   5.518   0.015  0.00  0.00    +0.030 A 
ATOM      5  C   UNL     1      -3.607   4.852  -0.731  0.00  0.00    +0.025 A 
ATOM      6  C   UNL     1      -3.360   3.575  -1.196  0.00  0.00    +0.025 A 
ENDROOT
BRANCH   4   7
ATOM      7  N   UNL     1      -2.893   6.813   0.482  0.00  0.00    -0.327 N 
ATOM      8  C   UNL     1      -4.213   7.437   0.308  0.00  0.00    +0.120 C 
ATOM      9  C   UNL     1      -4.680   7.973   1.666  0.00  0.00    +0.103 C 
ATOM     10  N   UNL     1      -3.645   8.853   2.224  0.00  0.00    -0.295 NA
ATOM     11  C   UNL     1      -2.401   8.116   2.482  0.00  0.00    +0.103 C 
ATOM     12  C   UNL     1      -1.842   7.584   1.164  0.00  0.00    +0.120 C 
BRANCH  10  13
ATOM     13  C   UNL     1      -4.123   9.522   3.441  0.00  0.00    +0.119 C 
BRANCH  13  14
ATOM     14  C   UNL     1      -3.142  10.592   3.845  0.00  0.00    -0.033 A 
ATOM     15  C   UNL     1      -2.096  10.285   4.696  0.00  0.00    +0.005 A 
ATOM     16  C   UNL     1      -1.196  11.266   5.067  0.00  0.00    +0.000 A 
ATOM     17  C   UNL     1      -1.340  12.554   4.587  0.00  0.00    +0.000 A 
ATOM     18  C   UNL     1      -2.385  12.861   3.735  0.00  0.00    +0.000 A 
ATOM     19  C   UNL     1      -3.283  11.879   3.361  0.00  0.00    +0.005 A 
ENDBRANCH  13  14
ENDBRANCH  10  13
ENDBRANCH   4   7
BRANCH   1  22
ATOM     20  C   UNL     1      -2.401   1.261  -2.564  0.00  0.00    +0.201 C 
ATOM     21  O   UNL     1      -2.987   2.054  -3.269  0.00  0.00    -0.278 OA
ATOM     22  N   UNL     1      -1.903   1.656  -1.375  0.00  0.00    -0.287 N 
ATOM     23  H   UNL     1      -1.373   1.042  -0.843  0.00  0.00    +0.155 HD
BRANCH  20  24
ATOM     24  C   UNL     1      -2.228  -0.167  -3.016  0.00  0.00    +0.020 C 
BRANCH  24  25
ATOM     25  N   UNL     1      -2.818  -0.332  -4.351  0.00  0.00    +0.393 N 
ATOM     26  H   UNL     1      -2.441   0.365  -4.974  0.00  0.00    -0.080 HD
BRANCH  25  28
ATOM     27  C   UNL     1      -4.896  -0.391  -5.646  0.00  0.00    -0.013 C 
ATOM     28  C   UNL     1      -4.276  -0.174  -4.264  0.00  0.00    -0.074 C 
ATOM     29  C   UNL     1      -4.843  -1.202  -3.284  0.00  0.00    -0.013 C 
ENDBRANCH  25  28
BRANCH  25  30
ATOM     30  C   UNL     1      -2.501  -1.671  -4.864  0.00  0.00    +0.019 C 
BRANCH  30  31
ATOM     31  C   UNL     1      -2.566  -1.661  -6.369  0.00  0.00    +0.194 C 
ATOM     32  O   UNL     1      -2.731  -0.616  -6.962  0.00  0.00    -0.278 OA
ATOM     33  N   UNL     1      -2.441  -2.813  -7.057  0.00  0.00    -0.331 N 
ATOM     34  H   UNL     1      -2.309  -3.649  -6.583  0.00  0.00    +0.145 HD
ATOM     35  H   UNL     1      -2.483  -2.807  -8.026  0.00  0.00    +0.145 HD
ENDBRANCH  30  31
ENDBRANCH  25  30
ENDBRANCH  24  25
ENDBRANCH  20  24
ENDBRANCH   1  22
TORSDOF 9
