REMARK  Name = ZINC55126550
REMARK  7 active torsions:
REMARK  status: ('A' for Active; 'I' for Inactive)
REMARK    1  A    between atoms: C_1  and  C_2
REMARK    2  A    between atoms: C_4  and  C_12
REMARK    3  A    between atoms: C_9  and  N_11
REMARK    4  A    between atoms: N_14  and  C_15
REMARK    5  A    between atoms: C_15  and  C_16
REMARK    6  A    between atoms: N_18  and  C_19
REMARK    7  A    between atoms: N_18  and  C_20
REMARK                            x       y       z     vdW  Elec       q    Type
REMARK                         _______ _______ _______ _____ _____    ______ ____
ROOT
ATOM      1  C   UNL     1      -0.019   1.526   0.010  0.00  0.00    +0.006 C 
ATOM      2  C   UNL     1       0.002  -0.004   0.002  0.00  0.00    -0.017 C 
ATOM      3  C   UNL     1      -1.433  -0.534   0.013  0.00  0.00    +0.076 C 
ATOM      4  C   UNL     1      -2.149  -0.040   1.272  0.00  0.00    +0.013 C 
ATOM      5  C   UNL     1      -1.409  -0.547   2.511  0.00  0.00    -0.001 C 
ATOM      6  C   UNL     1       0.026  -0.018   2.500  0.00  0.00    -0.016 C 
ATOM      7  C   UNL     1       0.742  -0.511   1.242  0.00  0.00    -0.072 C 
ENDROOT
BRANCH   7   8
ATOM      8  N   UNL     1       2.120  -0.002   1.231  0.00  0.00    +0.380 N 
ATOM      9  H   UNL     1       2.107   1.006   1.237  0.00  0.00    -0.090 HD
ATOM     10  H   UNL     1       2.608  -0.337   2.049  0.00  0.00    -0.090 HD
ATOM     11  H   UNL     1       2.592  -0.328   0.401  0.00  0.00    -0.090 HD
ENDBRANCH   7   8
BRANCH   3  12
ATOM     12  C   UNL     1      -2.162  -0.034  -1.208  0.00  0.00    +0.217 C 
ATOM     13  O   UNL     1      -1.590   0.675  -2.008  0.00  0.00    -0.275 OA
ATOM     14  N   UNL     1      -3.450  -0.376  -1.411  0.00  0.00    -0.306 N 
ATOM     15  H   UNL     1      -3.908  -0.944  -0.771  0.00  0.00    +0.149 HD
BRANCH  14  16
ATOM     16  C   UNL     1      -4.159   0.109  -2.598  0.00  0.00    +0.200 C 
BRANCH  16  17
ATOM     17  C   UNL     1      -5.572  -0.413  -2.587  0.00  0.00    +0.232 C 
ATOM     18  O   UNL     1      -5.951  -1.120  -1.677  0.00  0.00    -0.274 OA
ATOM     19  N   UNL     1      -6.416  -0.093  -3.588  0.00  0.00    -0.306 N 
ATOM     20  C   UNL     1      -7.790  -0.600  -3.578  0.00  0.00    +0.131 C 
ATOM     21  C   UNL     1      -5.959   0.761  -4.687  0.00  0.00    +0.131 C 
ENDBRANCH  16  17
ENDBRANCH  14  16
ENDBRANCH   3  12
TORSDOF 4
