REMARK  Name = ZINC39687310
REMARK  8 active torsions:
REMARK  status: ('A' for Active; 'I' for Inactive)
REMARK    1  A    between atoms: C_1  and  C_2
REMARK    2  A    between atoms: C_5  and  C_8
REMARK    3  A    between atoms: C_8  and  C_9
REMARK    4  A    between atoms: C_13  and  C_22
REMARK    5  A    between atoms: N_24  and  C_25
REMARK    6  A    between atoms: C_25  and  C_27
REMARK    7  A    between atoms: C_25  and  C_34
REMARK    8  A    between atoms: C_27  and  C_28
REMARK                            x       y       z     vdW  Elec       q    Type
REMARK                         _______ _______ _______ _____ _____    ______ ____
ROOT
ATOM      1  C   UNL     1       1.340  -4.675  -0.362  0.00  0.00    +0.220 C 
ATOM      2  O   UNL     1       2.244  -3.872  -0.266  0.00  0.00    -0.275 OA
ATOM      3  N   UNL     1       1.594  -5.993  -0.249  0.00  0.00    -0.300 N 
ATOM      4  C   UNL     1       0.631  -7.115  -0.344  0.00  0.00    +0.121 C 
ATOM      5  C   UNL     1       1.387  -8.215  -1.123  0.00  0.00    +0.100 C 
ATOM      6  C   UNL     1       2.876  -7.904  -0.894  0.00  0.00    -0.004 C 
ATOM      7  C   UNL     1       2.902  -6.649  -0.010  0.00  0.00    +0.115 C 
ATOM      8  C   UNL     1       3.567  -7.619  -2.224  0.00  0.00    -0.010 C 
ATOM      9  C   UNL     1       5.057  -7.370  -1.977  0.00  0.00    -0.082 C 
ATOM     10  N   UNL     1       5.653  -8.548  -1.336  0.00  0.00    +0.379 N 
ATOM     11  C   UNL     1       5.046  -8.761  -0.016  0.00  0.00    -0.082 C 
ATOM     12  C   UNL     1       3.555  -9.069  -0.181  0.00  0.00    -0.010 C 
ATOM     13  H   UNL     1       5.492  -9.360  -1.913  0.00  0.00    -0.086 HD
ATOM     14  H   UNL     1       6.646  -8.406  -1.229  0.00  0.00    -0.086 HD
ENDROOT
BRANCH   5  15
ATOM     15  C   UNL     1       1.043  -9.576  -0.577  0.00  0.00    +0.219 C 
ATOM     16  O   UNL     1       0.816  -9.716   0.606  0.00  0.00    -0.275 OA
ATOM     17  N   UNL     1       0.987 -10.639  -1.404  0.00  0.00    -0.303 N 
ATOM     18  H   UNL     1       1.168 -10.528  -2.350  0.00  0.00    +0.149 HD
BRANCH  17  19
ATOM     19  C   UNL     1       0.652 -11.963  -0.873  0.00  0.00    +0.163 C 
BRANCH  19  20
ATOM     20  C   UNL     1       1.227 -13.026  -1.774  0.00  0.00    +0.236 C 
ATOM     21  O   UNL     1       1.567 -12.744  -2.903  0.00  0.00    -0.274 OA
ATOM     22  N   UNL     1       1.363 -14.289  -1.324  0.00  0.00    -0.300 N 
ATOM     23  C   UNL     1       1.060 -14.622   0.075  0.00  0.00    +0.108 C 
ATOM     24  C   UNL     1       0.057 -15.780   0.099  0.00  0.00    +0.019 C 
ATOM     25  C   UNL     1       0.612 -16.948  -0.719  0.00  0.00    +0.003 C 
ATOM     26  C   UNL     1       0.807 -16.508  -2.172  0.00  0.00    +0.019 C 
ATOM     27  C   UNL     1       1.813 -15.360  -2.224  0.00  0.00    +0.108 C 
ENDBRANCH  19  20
BRANCH  19  28
ATOM     28  C   UNL     1      -0.869 -12.117  -0.809  0.00  0.00    +0.067 C 
BRANCH  28  29
ATOM     29  C   UNL     1      -1.429 -11.156   0.207  0.00  0.00    -0.045 A 
ATOM     30  C   UNL     1      -1.561 -11.544   1.527  0.00  0.00    +0.004 A 
ATOM     31  C   UNL     1      -2.075 -10.662   2.459  0.00  0.00    +0.000 A 
ATOM     32  C   UNL     1      -2.457  -9.392   2.071  0.00  0.00    +0.000 A 
ATOM     33  C   UNL     1      -2.324  -9.003   0.751  0.00  0.00    +0.000 A 
ATOM     34  C   UNL     1      -1.806  -9.883  -0.180  0.00  0.00    +0.004 A 
ENDBRANCH  28  29
ENDBRANCH  19  28
ENDBRANCH  17  19
ENDBRANCH   5  15
BRANCH   1  35
ATOM     35  C   UNL     1      -0.068  -4.197  -0.607  0.00  0.00    +0.131 C 
BRANCH  35  40
ATOM     36  C   UNL     1      -0.119   1.572  -0.934  0.00  0.00    +0.044 C 
ATOM     37  C   UNL     1      -0.105   0.068  -0.849  0.00  0.00    -0.050 A 
ATOM     38  C   UNL     1       0.085  -0.688  -1.991  0.00  0.00    +0.003 A 
ATOM     39  C   UNL     1       0.098  -2.068  -1.913  0.00  0.00    +0.004 A 
ATOM     40  C   UNL     1      -0.080  -2.692  -0.692  0.00  0.00    -0.039 A 
ATOM     41  C   UNL     1      -0.270  -1.937   0.450  0.00  0.00    +0.004 A 
ATOM     42  C   UNL     1      -0.278  -0.557   0.372  0.00  0.00    +0.003 A 
ENDBRANCH  35  40
ENDBRANCH   1  35
TORSDOF 7
