REMARK  Name = ZINC50461002
REMARK  6 active torsions:
REMARK  status: ('A' for Active; 'I' for Inactive)
REMARK    1  A    between atoms: C_1  and  C_2
REMARK    2  A    between atoms: C_3  and  N_9
REMARK    3  A    between atoms: C_4  and  C_8
REMARK    4  A    between atoms: N_5  and  C_7
REMARK    5  A    between atoms: C_10  and  C_12
REMARK    6  A    between atoms: C_15  and  N_17
REMARK                            x       y       z     vdW  Elec       q    Type
REMARK                         _______ _______ _______ _____ _____    ______ ____
ROOT
ATOM      1  N   UNL     1      -0.220  -0.378  -2.465  0.00  0.00    -0.282 N 
ATOM      2  C   UNL     1       0.132   0.881  -2.793  0.00  0.00    +0.219 C 
ATOM      3  O   UNL     1       0.645   1.603  -1.964  0.00  0.00    -0.275 OA
ATOM      4  H   UNL     1      -0.571  -0.976  -3.143  0.00  0.00    +0.155 HD
ENDROOT
BRANCH   1   7
ATOM      5  C   UNL     1      -2.006   0.553  -0.089  0.00  0.00    +0.069 C 
ATOM      6  C   UNL     1      -0.863  -0.428  -0.044  0.00  0.00    +0.081 A 
ATOM      7  C   UNL     1      -0.079  -0.824  -1.137  0.00  0.00    +0.077 A 
ATOM      8  C   UNL     1       0.841  -1.716  -0.688  0.00  0.00    +0.057 A 
ATOM      9  N   UNL     1       0.640  -1.874   0.646  0.00  0.00    -0.270 N 
ATOM     10  N   UNL     1      -0.429  -1.051   1.021  0.00  0.00    -0.175 NA
ATOM     11  C   UNL     1       1.410  -2.747   1.536  0.00  0.00    +0.172 C 
ATOM     12  C   UNL     1       1.893  -2.405  -1.518  0.00  0.00    +0.067 C 
ENDBRANCH   1   7
BRANCH   2  13
ATOM     13  C   UNL     1      -0.110   1.391  -4.190  0.00  0.00    +0.059 C 
ATOM     14  C   UNL     1      -1.174   2.476  -4.372  0.00  0.00    -0.005 C 
ATOM     15  C   UNL     1       0.310   2.829  -4.500  0.00  0.00    -0.063 C 
BRANCH  15  16
ATOM     16  N   UNL     1       0.826   3.110  -5.847  0.00  0.00    +0.380 N 
ATOM     17  H   UNL     1       0.119   2.885  -6.531  0.00  0.00    -0.090 HD
ATOM     18  H   UNL     1       1.065   4.088  -5.918  0.00  0.00    -0.090 HD
ATOM     19  H   UNL     1       1.648   2.550  -6.016  0.00  0.00    -0.090 HD
ENDBRANCH  15  16
ENDBRANCH   2  13
TORSDOF 3
