REMARK  Name = ZINC06952235
REMARK  10 active torsions:
REMARK  status: ('A' for Active; 'I' for Inactive)
REMARK    1  A    between atoms: C_1  and  C_2
REMARK    2  A    between atoms: C_2  and  C_3
REMARK    3  A    between atoms: C_2  and  C_4
REMARK    4  A    between atoms: C_4  and  C_5
REMARK    5  A    between atoms: C_5  and  C_7
REMARK    6  A    between atoms: C_5  and  N_31
REMARK    7  A    between atoms: N_9  and  N_10
REMARK    8  A    between atoms: N_18  and  C_21
REMARK    9  A    between atoms: C_21  and  C_22
REMARK   10  A    between atoms: C_26  and  N_28
REMARK                            x       y       z     vdW  Elec       q    Type
REMARK                         _______ _______ _______ _____ _____    ______ ____
ROOT
ATOM      1  N   UNL     1       4.333  -2.804  -2.950  0.00  0.00    -0.175 NA
ATOM      2  C   UNL     1       4.627  -4.079  -2.870  0.00  0.00    +0.153 C 
ATOM      3  C   UNL     1       5.522  -4.856  -3.759  0.00  0.00    +0.028 A 
ATOM      4  C   UNL     1       6.281  -4.521  -4.875  0.00  0.00    +0.012 A 
ATOM      5  C   UNL     1       7.033  -5.491  -5.507  0.00  0.00    +0.001 A 
ATOM      6  C   UNL     1       7.032  -6.791  -5.031  0.00  0.00    +0.002 A 
ATOM      7  C   UNL     1       6.283  -7.133  -3.924  0.00  0.00    +0.024 A 
ATOM      8  C   UNL     1       5.518  -6.170  -3.273  0.00  0.00    +0.046 A 
ATOM      9  N   UNL     1       4.689  -6.247  -2.159  0.00  0.00    -0.261 N 
ATOM     10  C   UNL     1       4.144  -5.053  -1.870  0.00  0.00    +0.272 C 
ATOM     11  O   UNL     1       3.384  -4.817  -0.949  0.00  0.00    -0.268 OA
ENDROOT
BRANCH   1  14
ATOM     12  C   UNL     1       3.163  -0.915  -2.097  0.00  0.00    +0.218 C 
ATOM     13  O   UNL     1       3.642  -0.236  -2.981  0.00  0.00    -0.276 OA
ATOM     14  N   UNL     1       3.466  -2.225  -2.015  0.00  0.00    -0.208 N 
ATOM     15  H   UNL     1       3.083  -2.768  -1.308  0.00  0.00    +0.177 HD
BRANCH  12  16
ATOM     16  C   UNL     1       2.230  -0.292  -1.091  0.00  0.00    +0.015 C 
BRANCH  16  17
ATOM     17  N   UNL     1       2.424   1.164  -1.079  0.00  0.00    +0.386 N 
ATOM     18  H   UNL     1       2.133   1.550  -1.965  0.00  0.00    -0.089 HD
ATOM     19  H   UNL     1       1.874   1.571  -0.338  0.00  0.00    -0.089 HD
ATOM     20  H   UNL     1       3.400   1.373  -0.926  0.00  0.00    -0.089 HD
ENDBRANCH  16  17
BRANCH  16  21
ATOM     21  C   UNL     1       0.783  -0.611  -1.471  0.00  0.00    -0.004 C 
BRANCH  21  23
ATOM     22  C   UNL     1      -1.608  -0.283  -0.826  0.00  0.00    +0.007 C 
ATOM     23  C   UNL     1      -0.157  -0.094  -0.380  0.00  0.00    -0.018 C 
ATOM     24  C   UNL     1       0.085  -0.875   0.913  0.00  0.00    +0.007 C 
ENDBRANCH  21  23
ENDBRANCH  16  21
ENDBRANCH  12  16
ENDBRANCH   1  14
BRANCH   9  25
ATOM     25  C   UNL     1       4.447  -7.472  -1.394  0.00  0.00    +0.149 C 
BRANCH  25  26
ATOM     26  C   UNL     1       5.466  -7.585  -0.290  0.00  0.00    -0.028 A 
ATOM     27  C   UNL     1       6.665  -8.234  -0.520  0.00  0.00    +0.005 A 
ATOM     28  C   UNL     1       7.600  -8.338   0.493  0.00  0.00    +0.003 A 
ATOM     29  C   UNL     1       7.337  -7.791   1.735  0.00  0.00    +0.033 A 
ATOM     30  C   UNL     1       6.139  -7.141   1.964  0.00  0.00    +0.127 A 
ATOM     31  C   UNL     1       5.206  -7.033   0.950  0.00  0.00    +0.038 A 
BRANCH  30  32
ATOM     32  N   UNL     1       5.858  -6.556   3.295  0.00  0.00    +0.056 N 
ATOM     33  O   UNL     1       6.675  -6.647   4.181  0.00  0.00    -0.126 OA
ATOM     34  O   UNL     1       4.810  -5.987   3.495  0.00  0.00    -0.126 OA
ENDBRANCH  30  32
ENDBRANCH  25  26
ENDBRANCH   9  25
TORSDOF 8
