REMARK  Name = ZINC48250192
REMARK  4 active torsions:
REMARK  status: ('A' for Active; 'I' for Inactive)
REMARK    1  A    between atoms: C_1  and  C_2
REMARK    2  A    between atoms: C_2  and  C_4
REMARK    3  A    between atoms: C_2  and  N_8
REMARK    4  A    between atoms: C_4  and  C_5
REMARK                            x       y       z     vdW  Elec       q    Type
REMARK                         _______ _______ _______ _____ _____    ______ ____
ROOT
ATOM      1  C   UNL     1       0.339   1.488   0.042  0.00  0.00    +0.024 C 
ATOM      2  C   UNL     1       0.002  -0.004   0.002  0.00  0.00    +0.061 C 
ENDROOT
BRANCH   2   3
ATOM      3  N   UNL     1       0.627  -0.616  -1.178  0.00  0.00    -0.296 NA
ATOM      4  C   UNL     1       2.069  -0.359  -1.200  0.00  0.00    +0.107 C 
ATOM      5  C   UNL     1       2.758  -1.339  -2.156  0.00  0.00    +0.181 C 
ATOM      6  S   UNL     1       2.112  -1.061  -3.834  0.00  0.00    -0.029 S 
ATOM      7  O   UNL     1       2.490  -2.159  -4.652  0.00  0.00    -0.174 OA
ATOM      8  O   UNL     1       2.457   0.257  -4.239  0.00  0.00    -0.174 OA
ATOM      9  C   UNL     1       0.317  -1.135  -3.556  0.00  0.00    +0.181 C 
ATOM     10  C   UNL     1      -0.039  -0.183  -2.409  0.00  0.00    +0.107 C 
ENDBRANCH   2   3
BRANCH   2  11
ATOM     11  C   UNL     1       0.531  -0.681   1.268  0.00  0.00    +0.087 C 
BRANCH  11  12
ATOM     12  C   UNL     1       0.116  -2.130   1.274  0.00  0.00    +0.064 C 
ATOM     13  N   UNL     1      -1.030  -2.486   1.829  0.00  0.00    -0.391 N 
ATOM     14  N   UNL     1       0.896  -3.044   0.725  0.00  0.00    -0.348 N 
ATOM     15  H   UNL     1      -1.603  -1.815   2.232  0.00  0.00    +0.157 HD
ATOM     16  H   UNL     1       1.737  -2.782   0.318  0.00  0.00    +0.143 HD
ATOM     17  H   UNL     1       0.629  -3.976   0.729  0.00  0.00    +0.143 HD
ATOM     18  H   UNL     1      -1.298  -3.418   1.833  0.00  0.00    +0.157 HD
ENDBRANCH  11  12
ENDBRANCH   2  11
TORSDOF 3
