REMARK  Name = ZINC11731068
REMARK  7 active torsions:
REMARK  status: ('A' for Active; 'I' for Inactive)
REMARK    1  A    between atoms: C_1  and  C_2
REMARK    2  A    between atoms: C_2  and  C_3
REMARK    3  A    between atoms: C_2  and  C_4
REMARK    4  A    between atoms: C_4  and  C_6
REMARK    5  A    between atoms: C_4  and  N_36
REMARK    6  A    between atoms: C_6  and  O_7
REMARK    7  A    between atoms: C_12  and  N_16
REMARK                            x       y       z     vdW  Elec       q    Type
REMARK                         _______ _______ _______ _____ _____    ______ ____
ROOT
ATOM      1  C   UNL     1       1.227   2.091  -0.136  0.00  0.00    -0.042 C 
ATOM      2  C   UNL     1       0.906   3.428  -0.765  0.00  0.00    -0.062 A 
ATOM      3  C   UNL     1       1.669   4.567  -0.945  0.00  0.00    +0.004 A 
ATOM      4  C   UNL     1       1.125   5.675  -1.563  0.00  0.00    +0.023 A 
ATOM      5  C   UNL     1      -0.192   5.646  -2.005  0.00  0.00    +0.025 A 
ATOM      6  C   UNL     1      -0.956   4.501  -1.824  0.00  0.00    +0.024 A 
ATOM      7  C   UNL     1      -0.407   3.396  -1.206  0.00  0.00    -0.061 A 
ATOM      8  C   UNL     1      -0.983   2.037  -0.877  0.00  0.00    -0.042 C 
ATOM      9  N   UNL     1      -0.072   1.485   0.123  0.00  0.00    +0.389 N 
ATOM     10  H   UNL     1      -0.393   1.730   1.066  0.00  0.00    -0.080 HD
ENDROOT
BRANCH   5  11
ATOM     11  N   UNL     1      -0.745   6.766  -2.631  0.00  0.00    -0.358 N 
ATOM     12  H   UNL     1      -1.664   6.744  -2.940  0.00  0.00    +0.142 HD
ATOM     13  H   UNL     1      -0.210   7.565  -2.757  0.00  0.00    +0.142 HD
ENDBRANCH   5  11
BRANCH   9  14
ATOM     14  C   UNL     1       0.002  -0.004   0.002  0.00  0.00    -0.039 C 
BRANCH  14  16
ATOM     15  C   UNL     1      -2.487  -0.160   0.149  0.00  0.00    +0.005 C 
ATOM     16  C   UNL     1      -1.167  -0.655   0.743  0.00  0.00    -0.029 C 
ATOM     17  C   UNL     1      -1.081  -2.176   0.596  0.00  0.00    +0.005 C 
ENDBRANCH  14  16
BRANCH  14  18
ATOM     18  C   UNL     1       1.322  -0.499   0.596  0.00  0.00    +0.141 C 
BRANCH  18  19
ATOM     19  O   UNL     1       1.343  -0.231   2.000  0.00  0.00    -0.397 OA
ATOM     20  H   UNL     1       2.152  -0.519   2.443  0.00  0.00    +0.209 HD
ENDBRANCH  18  19
ENDBRANCH  14  18
ENDBRANCH   9  14
TORSDOF 5
