REMARK  Name = ZINC38966168
REMARK  4 active torsions:
REMARK  status: ('A' for Active; 'I' for Inactive)
REMARK    1  A    between atoms: C_5  and  C_7
REMARK    2  A    between atoms: N_13  and  N_14
REMARK    3  A    between atoms: C_15  and  C_16
REMARK    4  A    between atoms: C_21  and  O_22
REMARK                            x       y       z     vdW  Elec       q    Type
REMARK                         _______ _______ _______ _____ _____    ______ ____
ROOT
ATOM      1  C   UNL     1       1.238  -2.351   0.067  0.00  0.00    +0.265 C 
ATOM      2  N   UNL     1       2.308  -2.712  -0.877  0.00  0.00    -0.189 NA
ATOM      3  N   UNL     1       1.782  -3.153  -1.902  0.00  0.00    -0.219 N 
ATOM      4  C   UNL     1       0.423  -3.169  -1.848  0.00  0.00    +0.174 C 
ATOM      5  S   UNL     1      -0.602  -3.719  -3.104  0.00  0.00    -0.015 S 
ATOM      6  N   UNL     1      -0.003  -2.688  -0.655  0.00  0.00    -0.172 N 
ATOM      7  H   UNL     1       2.288  -3.458  -2.671  0.00  0.00    +0.176 HD
ENDROOT
BRANCH   1  12
ATOM      8  C   UNL     1       0.152   1.188   0.809  0.00  0.00    +0.000 A 
ATOM      9  C   UNL     1       1.370   1.826   0.954  0.00  0.00    +0.001 A 
ATOM     10  C   UNL     1       2.545   1.113   0.812  0.00  0.00    +0.020 A 
ATOM     11  C   UNL     1       2.503  -0.239   0.525  0.00  0.00    +0.048 A 
ATOM     12  C   UNL     1       1.285  -0.878   0.380  0.00  0.00    +0.016 A 
ATOM     13  C   UNL     1       0.110  -0.164   0.522  0.00  0.00    +0.009 A 
ATOM     14 CL   UNL     1       3.980  -1.135   0.346  0.00  0.00    -0.083 Cl
ENDBRANCH   1  12
BRANCH   6  15
ATOM     15  N   UNL     1      -1.322  -2.542  -0.207  0.00  0.00    -0.183 NA
ATOM     16  C   UNL     1      -2.305  -2.998  -0.923  0.00  0.00    +0.142 C 
BRANCH  16  17
ATOM     17  C   UNL     1      -3.697  -2.719  -0.527  0.00  0.00    +0.038 A 
ATOM     18  C   UNL     1      -4.757  -3.213  -1.291  0.00  0.00    +0.028 A 
ATOM     19  C   UNL     1      -6.058  -2.948  -0.914  0.00  0.00    +0.020 A 
ATOM     20  C   UNL     1      -6.317  -2.195   0.219  0.00  0.00    +0.034 A 
ATOM     21  C   UNL     1      -5.276  -1.700   0.983  0.00  0.00    +0.061 A 
ATOM     22  C   UNL     1      -3.964  -1.961   0.622  0.00  0.00    +0.139 A 
ATOM     23 BR   UNL     1      -5.643  -0.672   2.527  0.00  0.00    -0.046 Br
ATOM     24 BR   UNL     1      -7.492  -3.617  -1.949  0.00  0.00    -0.050 Br
BRANCH  22  25
ATOM     25  O   UNL     1      -2.940  -1.481   1.375  0.00  0.00    -0.505 OA
ATOM     26  H   UNL     1      -2.634  -0.604   1.108  0.00  0.00    +0.292 HD
ENDBRANCH  22  25
ENDBRANCH  16  17
ENDBRANCH   6  15
TORSDOF 4
