REMARK  Name = ZINC22515882
REMARK  7 active torsions:
REMARK  status: ('A' for Active; 'I' for Inactive)
REMARK    1  A    between atoms: C_5  and  N_7
REMARK    2  A    between atoms: C_8  and  C_10
REMARK    3  A    between atoms: C_10  and  N_11
REMARK    4  A    between atoms: N_14  and  C_17
REMARK    5  A    between atoms: C_17  and  C_18
REMARK    6  A    between atoms: C_21  and  C_23
REMARK    7  A    between atoms: C_26  and  C_29
REMARK                            x       y       z     vdW  Elec       q    Type
REMARK                         _______ _______ _______ _____ _____    ______ ____
ROOT
ATOM      1  N   UNL     1       2.410   1.041  -0.033  0.00  0.00    +0.387 N 
ATOM      2  C   UNL     1       2.480   0.279   1.222  0.00  0.00    -0.063 C 
ATOM      3  C   UNL     1       3.618  -0.741   1.132  0.00  0.00    +0.066 C 
ATOM      4  N   UNL     1       4.883  -0.038   0.874  0.00  0.00    -0.300 NA
ATOM      5  C   UNL     1       4.812   0.724  -0.380  0.00  0.00    +0.066 C 
ATOM      6  C   UNL     1       3.675   1.744  -0.291  0.00  0.00    -0.063 C 
ATOM      7  H   UNL     1       2.243   0.329  -0.854  0.00  0.00    -0.081 HD
ENDROOT
BRANCH   1   8
ATOM      8  C   UNL     1       1.280   1.980  -0.015  0.00  0.00    +0.019 C 
BRANCH   8  10
ATOM      9  N   UNL     1      -1.191   1.867   0.018  0.00  0.00    -0.286 N 
ATOM     10  C   UNL     1      -0.014   1.209   0.005  0.00  0.00    +0.201 C 
ATOM     11  O   UNL     1       0.003  -0.004   0.005  0.00  0.00    -0.278 OA
ATOM     12  H   UNL     1      -1.207   2.963   0.110  0.00  0.00    +0.155 HD
BRANCH   9  17
ATOM     13  C   UNL     1      -3.597  -0.793  -0.795  0.00  0.00    +0.002 A 
ATOM     14  C   UNL     1      -4.766  -0.252  -0.292  0.00  0.00    +0.002 A 
ATOM     15  C   UNL     1      -4.752   0.990   0.314  0.00  0.00    +0.022 A 
ATOM     16  C   UNL     1      -3.568   1.696   0.419  0.00  0.00    +0.062 A 
ATOM     17  C   UNL     1      -2.392   1.155  -0.086  0.00  0.00    +0.052 A 
ATOM     18  C   UNL     1      -2.411  -0.091  -0.699  0.00  0.00    +0.025 A 
ATOM     19 CL   UNL     1      -3.550   3.257   1.179  0.00  0.00    -0.082 Cl
ENDBRANCH   9  17
ENDBRANCH   8  10
ENDBRANCH   1   8
BRANCH   4  20
ATOM     20  C   UNL     1       6.012  -0.978   0.857  0.00  0.00    +0.140 C 
BRANCH  20  21
ATOM     21  C   UNL     1       6.204  -1.559   2.234  0.00  0.00    +0.063 A 
ATOM     22  C   UNL     1       5.633  -2.751   2.555  0.00  0.00    +0.071 A 
ATOM     23  S   UNL     1       6.181  -2.934   4.247  0.00  0.00    -0.075 S 
ATOM     24  C   UNL     1       7.101  -1.403   4.345  0.00  0.00    +0.109 A 
ATOM     25  N   UNL     1       6.917  -0.914   3.126  0.00  0.00    -0.243 NA
BRANCH  24  26
ATOM     26  C   UNL     1       7.861  -0.836   5.479  0.00  0.00    +0.007 A 
ATOM     27  C   UNL     1       8.520   0.387   5.339  0.00  0.00    +0.011 A 
ATOM     28  C   UNL     1       9.224   0.912   6.403  0.00  0.00    +0.013 A 
ATOM     29  C   UNL     1       9.286   0.226   7.602  0.00  0.00    +0.055 A 
ATOM     30  C   UNL     1       8.640  -0.989   7.745  0.00  0.00    +0.013 A 
ATOM     31  C   UNL     1       7.928  -1.524   6.691  0.00  0.00    +0.011 A 
BRANCH  29  32
ATOM     32  C   UNL     1      10.062   0.804   8.758  0.00  0.00    +0.417 C 
ATOM     33  F   UNL     1      11.386   0.357   8.701  0.00  0.00    -0.166 F 
ATOM     34  F   UNL     1      10.037   2.201   8.684  0.00  0.00    -0.166 F 
ATOM     35  F   UNL     1       9.482   0.390   9.962  0.00  0.00    -0.166 F 
ENDBRANCH  29  32
ENDBRANCH  24  26
ENDBRANCH  20  21
ENDBRANCH   4  20
TORSDOF 7
