REMARK  Name = ZINC50631521
REMARK  8 active torsions:
REMARK  status: ('A' for Active; 'I' for Inactive)
REMARK    1  A    between atoms: C_3  and  C_6
REMARK    2  A    between atoms: C_6  and  N_7
REMARK    3  A    between atoms: C_11  and  C_13
REMARK    4  A    between atoms: C_13  and  N_14
REMARK    5  A    between atoms: C_15  and  C_17
REMARK    6  A    between atoms: C_17  and  N_18
REMARK    7  A    between atoms: N_21  and  C_22
REMARK    8  A    between atoms: C_22  and  C_23
REMARK                            x       y       z     vdW  Elec       q    Type
REMARK                         _______ _______ _______ _____ _____    ______ ____
ROOT
ATOM      1  N   UNL     1       7.826   3.822   4.141  0.00  0.00    -0.314 N 
ATOM      2  C   UNL     1       9.024   4.393   4.375  0.00  0.00    +0.230 C 
ATOM      3  O   UNL     1       9.774   4.628   3.451  0.00  0.00    -0.274 OA
ATOM      4  H   UNL     1       7.226   3.633   4.880  0.00  0.00    +0.149 HD
ENDROOT
BRANCH   1   5
ATOM      5  C   UNL     1       7.429   3.486   2.772  0.00  0.00    +0.106 C 
BRANCH   5  10
ATOM      6  N   UNL     1       4.235   2.004   1.357  0.00  0.00    +0.383 N 
ATOM      7  C   UNL     1       4.291   0.689   2.007  0.00  0.00    -0.078 C 
ATOM      8  C   UNL     1       4.707   0.857   3.470  0.00  0.00    -0.018 C 
ATOM      9  C   UNL     1       6.087   1.518   3.531  0.00  0.00    +0.001 C 
ATOM     10  C   UNL     1       6.036   2.854   2.785  0.00  0.00    -0.011 C 
ATOM     11  C   UNL     1       5.571   2.612   1.347  0.00  0.00    -0.073 C 
ATOM     12  H   UNL     1       3.599   2.601   1.864  0.00  0.00    -0.081 HD
BRANCH   6  13
ATOM     13  C   UNL     1       3.761   1.845  -0.024  0.00  0.00    -0.036 C 
BRANCH  13  16
ATOM     14  C   UNL     1      -0.016   1.351   0.009  0.00  0.00    +0.008 A 
ATOM     15  C   UNL     1       1.183   2.038   0.002  0.00  0.00    +0.009 A 
ATOM     16  C   UNL     1       2.343   1.336  -0.013  0.00  0.00    -0.027 A 
ATOM     17  S   UNL     1       1.754  -0.349  -0.017  0.00  0.00    -0.103 S 
ATOM     18  C   UNL     1       0.002  -0.004   0.002  0.00  0.00    +0.045 A 
ENDBRANCH  13  16
ENDBRANCH   6  13
ENDBRANCH   5  10
ENDBRANCH   1   5
BRANCH   2  19
ATOM     19  C   UNL     1       9.432   4.738   5.784  0.00  0.00    +0.201 C 
BRANCH  19  20
ATOM     20  N   UNL     1      10.767   5.343   5.771  0.00  0.00    -0.291 N 
ATOM     21  C   UNL     1      11.340   5.735   6.926  0.00  0.00    +0.300 C 
ATOM     22  O   UNL     1      10.750   5.586   7.979  0.00  0.00    -0.253 OA
ATOM     23  N   UNL     1      12.568   6.291   6.915  0.00  0.00    -0.299 N 
ATOM     24  H   UNL     1      11.238   5.462   4.931  0.00  0.00    +0.151 HD
ATOM     25  H   UNL     1      13.038   6.410   6.075  0.00  0.00    +0.150 HD
BRANCH  23  26
ATOM     26  C   UNL     1      13.191   6.717   8.171  0.00  0.00    +0.109 C 
BRANCH  26  27
ATOM     27  C   UNL     1      14.570   7.311   7.880  0.00  0.00    +0.006 C 
ATOM     28  C   UNL     1      15.527   6.207   7.383  0.00  0.00    +0.005 C 
ATOM     29  C   UNL     1      16.893   6.576   8.013  0.00  0.00    +0.000 C 
ATOM     30  C   UNL     1      16.492   7.096   9.417  0.00  0.00    +0.000 C 
ATOM     31  C   UNL     1      15.184   7.876   9.172  0.00  0.00    +0.005 C 
ENDBRANCH  26  27
ENDBRANCH  23  26
ENDBRANCH  19  20
ENDBRANCH   2  19
TORSDOF 8
