REMARK  Name = ZINC35590334
REMARK  8 active torsions:
REMARK  status: ('A' for Active; 'I' for Inactive)
REMARK    1  A    between atoms: C_1  and  O_2
REMARK    2  A    between atoms: O_2  and  C_3
REMARK    3  A    between atoms: C_5  and  C_10
REMARK    4  A    between atoms: C_8  and  O_9
REMARK    5  A    between atoms: N_15  and  C_18
REMARK    6  A    between atoms: C_18  and  C_19
REMARK    7  A    between atoms: C_19  and  C_20
REMARK    8  A    between atoms: C_20  and  N_21
REMARK                            x       y       z     vdW  Elec       q    Type
REMARK                         _______ _______ _______ _____ _____    ______ ____
ROOT
ATOM      1  C   UNL     1       2.462   0.334   4.204  0.00  0.00    +0.142 C 
ATOM      2  C   UNL     1       3.937   0.481   3.893  0.00  0.00    +0.058 C 
ATOM      3  C   UNL     1       4.819   0.038   4.813  0.00  0.00    +0.039 C 
ATOM      4  C   UNL     1       6.195   0.308   4.247  0.00  0.00    +0.159 C 
ATOM      5  N   UNL     1       5.950   0.935   2.940  0.00  0.00    -0.292 N 
ATOM      6  C   UNL     1       4.617   1.014   2.779  0.00  0.00    +0.247 C 
ATOM      7  O   UNL     1       4.069   1.485   1.799  0.00  0.00    -0.270 OA
ATOM      8  N   UNL     1       4.398  -0.523   5.984  0.00  0.00    -0.271 N 
ATOM      9  C   UNL     1       3.108  -0.677   6.311  0.00  0.00    +0.304 C 
ATOM     10  O   UNL     1       2.828  -1.188   7.378  0.00  0.00    -0.252 OA
ATOM     11  N   UNL     1       2.111  -0.286   5.494  0.00  0.00    -0.288 N 
ATOM     12  H   UNL     1       5.069  -0.827   6.615  0.00  0.00    +0.156 HD
ATOM     13  H   UNL     1       1.183  -0.407   5.750  0.00  0.00    +0.151 HD
ENDROOT
BRANCH   1  16
ATOM     14  C   UNL     1       0.626  -0.619   1.042  0.00  0.00    +0.162 A 
ATOM     15  C   UNL     1       1.202   0.137   2.051  0.00  0.00    +0.055 A 
ATOM     16  C   UNL     1       1.836  -0.490   3.108  0.00  0.00    -0.019 A 
ATOM     17  C   UNL     1       1.897  -1.870   3.161  0.00  0.00    +0.009 A 
ATOM     18  C   UNL     1       1.325  -2.630   2.158  0.00  0.00    +0.049 A 
ATOM     19  C   UNL     1       0.683  -2.008   1.099  0.00  0.00    +0.158 A 
BRANCH  14  21
ATOM     20  C   UNL     1      -0.017   1.425   0.010  0.00  0.00    +0.277 C 
ATOM     21  O   UNL     1       0.002  -0.004   0.002  0.00  0.00    -0.491 OA
ENDBRANCH  14  21
BRANCH  19  22
ATOM     22  O   UNL     1       0.115  -2.754   0.114  0.00  0.00    -0.503 OA
ATOM     23  H   UNL     1       0.711  -2.957  -0.620  0.00  0.00    +0.292 HD
ENDBRANCH  19  22
ENDBRANCH   1  16
BRANCH   5  24
ATOM     24  C   UNL     1       6.969   1.390   1.990  0.00  0.00    +0.106 C 
BRANCH  24  25
ATOM     25  C   UNL     1       7.321   0.247   1.035  0.00  0.00    +0.000 C 
BRANCH  25  26
ATOM     26  C   UNL     1       8.385   0.722   0.043  0.00  0.00    -0.077 C 
BRANCH  26  27
ATOM     27  N   UNL     1       8.723  -0.375  -0.874  0.00  0.00    +0.385 N 
ATOM     28  C   UNL     1       9.770   0.055  -1.839  0.00  0.00    -0.071 C 
ATOM     29  C   UNL     1       9.598  -0.906  -3.034  0.00  0.00    +0.054 C 
ATOM     30  C   UNL     1       8.164  -1.397  -2.952  0.00  0.00    +0.115 C 
ATOM     31  O   UNL     1       7.616  -2.174  -3.696  0.00  0.00    -0.299 OA
ATOM     32  C   UNL     1       7.562  -0.710  -1.738  0.00  0.00    -0.003 C 
ATOM     33  H   UNL     1       9.027  -1.187  -0.358  0.00  0.00    -0.081 HD
ENDBRANCH  26  27
ENDBRANCH  25  26
ENDBRANCH  24  25
ENDBRANCH   5  24
TORSDOF 7
