REMARK  Name = ZINC40684798
REMARK  5 active torsions:
REMARK  status: ('A' for Active; 'I' for Inactive)
REMARK    1  A    between atoms: C_1  and  C_2
REMARK    2  A    between atoms: C_9  and  N_12
REMARK    3  A    between atoms: C_14  and  N_29
REMARK    4  A    between atoms: C_15  and  N_19
REMARK    5  A    between atoms: N_19  and  C_20
REMARK                            x       y       z     vdW  Elec       q    Type
REMARK                         _______ _______ _______ _____ _____    ______ ____
ROOT
ATOM      1  N   UNL     1      -0.303  -2.001   3.605  0.00  0.00    -0.296 N 
ATOM      2  C   UNL     1      -0.390  -2.668   4.821  0.00  0.00    +0.149 A 
ATOM      3  C   UNL     1      -0.326  -1.960   6.024  0.00  0.00    +0.106 A 
ATOM      4  C   UNL     1      -0.420  -2.679   7.217  0.00  0.00    +0.149 A 
ATOM      5  N   UNL     1      -0.565  -4.001   7.163  0.00  0.00    -0.219 NA
ATOM      6  C   UNL     1      -0.621  -4.630   6.007  0.00  0.00    +0.225 A 
ATOM      7  N   UNL     1      -0.542  -3.990   4.858  0.00  0.00    -0.219 NA
ATOM      8  H   UNL     1      -0.113  -1.050   3.585  0.00  0.00    +0.154 HD
ENDROOT
BRANCH   1  17
ATOM      9  C   UNL     1       1.950   0.741   0.075  0.00  0.00    +0.065 C 
ATOM     10  C   UNL     1       1.196  -0.563   0.051  0.00  0.00    +0.039 A 
ATOM     11  C   UNL     1       1.033  -1.230  -1.161  0.00  0.00    +0.023 A 
ATOM     12  C   UNL     1       0.352  -2.413  -1.201  0.00  0.00    +0.012 A 
ATOM     13  C   UNL     1      -0.168  -2.922   0.005  0.00  0.00    +0.002 A 
ATOM     14  C   UNL     1      -0.879  -4.133   0.040  0.00  0.00    +0.010 A 
ATOM     15  C   UNL     1      -1.370  -4.599   1.221  0.00  0.00    +0.003 A 
ATOM     16  C   UNL     1      -1.179  -3.892   2.405  0.00  0.00    +0.025 A 
ATOM     17  C   UNL     1      -0.487  -2.700   2.412  0.00  0.00    +0.059 A 
ATOM     18  C   UNL     1       0.034  -2.191   1.201  0.00  0.00    +0.092 A 
ATOM     19  N   UNL     1       0.714  -1.042   1.173  0.00  0.00    -0.250 NA
ENDBRANCH   1  17
BRANCH   3  20
ATOM     20  N   UNL     1      -0.172  -0.565   6.032  0.00  0.00    -0.353 N 
ATOM     21  H   UNL     1      -0.108  -0.079   5.195  0.00  0.00    +0.143 HD
ATOM     22  H   UNL     1      -0.129  -0.087   6.875  0.00  0.00    +0.143 HD
ENDBRANCH   3  20
BRANCH   4  23
ATOM     23  N   UNL     1      -0.362  -2.024   8.442  0.00  0.00    -0.298 N 
ATOM     24  H   UNL     1      -0.334  -1.055   8.473  0.00  0.00    +0.154 HD
BRANCH  23  25
ATOM     25  C   UNL     1      -0.343  -2.763   9.630  0.00  0.00    +0.036 A 
ATOM     26  C   UNL     1      -0.957  -2.261  10.770  0.00  0.00    +0.027 A 
ATOM     27  C   UNL     1      -0.939  -2.990  11.944  0.00  0.00    +0.051 A 
ATOM     28  C   UNL     1      -0.309  -4.223  11.988  0.00  0.00    +0.166 A 
ATOM     29  C   UNL     1       0.308  -4.729  10.846  0.00  0.00    +0.168 A 
ATOM     30  C   UNL     1       0.285  -4.001   9.668  0.00  0.00    +0.072 A 
ATOM     31  O   UNL     1       0.851  -5.946  11.146  0.00  0.00    -0.453 OA
ATOM     32  C   UNL     1       0.915  -5.994  12.584  0.00  0.00    +0.466 C 
ATOM     33  O   UNL     1      -0.152  -5.123  13.003  0.00  0.00    -0.453 OA
ENDBRANCH  23  25
ENDBRANCH   4  23
TORSDOF 4
