REMARK  Name = ZINC65330197
REMARK  5 active torsions:
REMARK  status: ('A' for Active; 'I' for Inactive)
REMARK    1  A    between atoms: C_7  and  C_10
REMARK    2  A    between atoms: C_10  and  C_11
REMARK    3  A    between atoms: C_11  and  N_12
REMARK    4  A    between atoms: C_13  and  C_15
REMARK    5  A    between atoms: C_17  and  N_22
REMARK                            x       y       z     vdW  Elec       q    Type
REMARK                         _______ _______ _______ _____ _____    ______ ____
ROOT
ATOM      1  C   UNL     1      -1.742  -6.551  -2.631  0.00  0.00    +0.187 C 
ATOM      2  C   UNL     1      -3.205  -6.058  -2.473  0.00  0.00    +0.176 C 
ATOM      3  S   UNL     1      -4.107  -7.310  -3.478  0.00  0.00    -0.041 S 
ATOM      4  N   UNL     1      -2.699  -8.258  -4.059  0.00  0.00    -0.198 NA
ATOM      5  N   UNL     1      -1.610  -7.272  -3.912  0.00  0.00    -0.232 NA
ATOM      6  H   UNL     1      -2.539  -9.064  -3.473  0.00  0.00    +0.154 HD
ATOM      7  H   UNL     1      -1.596  -6.629  -4.689  0.00  0.00    +0.142 HD
ENDROOT
BRANCH   2   8
ATOM      8  N   UNL     1      -3.373  -4.713  -3.029  0.00  0.00    -0.284 N 
ATOM      9  C   UNL     1      -4.437  -4.433  -3.807  0.00  0.00    +0.303 C 
ATOM     10  O   UNL     1      -5.215  -5.316  -4.113  0.00  0.00    -0.253 OA
ATOM     11  N   UNL     1      -4.639  -3.175  -4.245  0.00  0.00    -0.286 N 
ATOM     12  C   UNL     1      -5.854  -2.829  -4.995  0.00  0.00    +0.109 C 
ATOM     13  C   UNL     1      -6.534  -1.638  -4.312  0.00  0.00    +0.019 C 
ATOM     14  C   UNL     1      -5.530  -0.491  -4.179  0.00  0.00    +0.003 C 
ATOM     15  C   UNL     1      -4.353  -0.939  -3.309  0.00  0.00    +0.019 C 
ATOM     16  C   UNL     1      -3.652  -2.120  -3.976  0.00  0.00    +0.109 C 
ATOM     17  H   UNL     1      -2.718  -4.024  -2.837  0.00  0.00    +0.151 HD
ENDBRANCH   2   8
BRANCH   1  19
ATOM     18  N   UNL     1      -0.463  -4.793  -1.452  0.00  0.00    -0.314 N 
ATOM     19  C   UNL     1      -0.808  -5.368  -2.621  0.00  0.00    +0.234 C 
ATOM     20  O   UNL     1      -0.368  -4.934  -3.664  0.00  0.00    -0.274 OA
ATOM     21  H   UNL     1      -0.815  -5.140  -0.618  0.00  0.00    +0.149 HD
BRANCH  18  22
ATOM     22  C   UNL     1       0.445  -3.643  -1.442  0.00  0.00    +0.108 C 
BRANCH  22  23
ATOM     23  C   UNL     1       0.672  -3.185   0.000  0.00  0.00    +0.052 C 
BRANCH  23  30
ATOM     24  C   UNL     1      -0.062   1.344   0.069  0.00  0.00    +0.001 A 
ATOM     25  C   UNL     1       1.115   2.104   0.071  0.00  0.00    +0.002 A 
ATOM     26  C   UNL     1       2.344   1.546   0.055  0.00  0.00    +0.026 A 
ATOM     27  C   UNL     1       2.491   0.131   0.034  0.00  0.00    +0.043 A 
ATOM     28  N   UNL     1       3.553  -0.636   0.016  0.00  0.00    -0.380 N 
ATOM     29  C   UNL     1       3.118  -2.038  -0.001  0.00  0.00    +0.144 C 
ATOM     30  C   UNL     1       1.606  -2.002   0.011  0.00  0.00    -0.040 C 
ATOM     31  C   UNL     1       1.262  -0.695   0.032  0.00  0.00    -0.001 A 
ATOM     32  C   UNL     1      -0.035  -0.008   0.050  0.00  0.00    +0.010 A 
ATOM     33  H   UNL     1       4.473  -0.329   0.013  0.00  0.00    +0.160 HD
ENDBRANCH  23  30
ENDBRANCH  22  23
ENDBRANCH  18  22
ENDBRANCH   1  19
TORSDOF 5
