REMARK  Name = ZINC09505556
REMARK  8 active torsions:
REMARK  status: ('A' for Active; 'I' for Inactive)
REMARK    1  A    between atoms: C_1  and  N_54
REMARK    2  A    between atoms: C_2  and  N_54
REMARK    3  A    between atoms: C_3  and  C_4
REMARK    4  A    between atoms: C_3  and  N_54
REMARK    5  A    between atoms: C_4  and  N_5
REMARK    6  A    between atoms: C_16  and  C_18
REMARK    7  A    between atoms: N_23  and  S_24
REMARK    8  A    between atoms: S_24  and  C_27
REMARK                            x       y       z     vdW  Elec       q    Type
REMARK                         _______ _______ _______ _____ _____    ______ ____
ROOT
ATOM      1  N   UNL     1       5.340  -3.550  -0.623  0.00  0.00    -0.251 N 
ATOM      2  C   UNL     1       4.652  -2.414  -1.017  0.00  0.00    +0.168 A 
ATOM      3  N   UNL     1       5.119  -1.319  -1.570  0.00  0.00    -0.223 NA
ATOM      4  C   UNL     1       4.325  -0.279  -1.905  0.00  0.00    +0.099 A 
ATOM      5  C   UNL     1       2.949  -0.443  -1.622  0.00  0.00    +0.042 A 
ATOM      6  S   UNL     1       2.902  -2.066  -0.901  0.00  0.00    -0.052 S 
ATOM      7  C   UNL     1       2.015   0.523  -1.903  0.00  0.00    +0.017 A 
ATOM      8  C   UNL     1       2.415   1.711  -2.486  0.00  0.00    +0.003 A 
ATOM      9  C   UNL     1       3.757   1.907  -2.778  0.00  0.00    +0.022 A 
ATOM     10  C   UNL     1       4.698   0.948  -2.502  0.00  0.00    +0.067 A 
ATOM     11 CL   UNL     1       6.364   1.244  -2.888  0.00  0.00    -0.081 Cl
ATOM     12  C   UNL     1       4.674  -4.581  -0.066  0.00  0.00    +0.240 C 
ATOM     13  O   UNL     1       3.465  -4.551   0.013  0.00  0.00    -0.273 OA
ENDROOT
BRANCH  12  14
ATOM     14  C   UNL     1       5.434  -5.773   0.458  0.00  0.00    +0.166 C 
ATOM     15  C   UNL     1       5.423  -6.920  -0.583  0.00  0.00    +0.031 C 
ATOM     16  C   UNL     1       5.646  -8.162   0.320  0.00  0.00    +0.019 C 
ATOM     17  C   UNL     1       4.877  -7.797   1.607  0.00  0.00    +0.110 C 
ATOM     18  N   UNL     1       4.757  -6.332   1.643  0.00  0.00    -0.164 NA
BRANCH  18  19
ATOM     19  S   UNL     1       3.989  -5.455   2.819  0.00  0.00    +0.068 S 
ATOM     20  O   UNL     1       4.154  -6.174   4.034  0.00  0.00    -0.152 OA
ATOM     21  O   UNL     1       4.418  -4.109   2.667  0.00  0.00    -0.152 OA
BRANCH  19  22
ATOM     22  C   UNL     1       2.267  -5.481   2.448  0.00  0.00    +0.143 A 
ATOM     23  C   UNL     1       1.346  -6.433   2.736  0.00  0.00    +0.036 A 
ATOM     24  C   UNL     1       0.035  -6.236   2.346  0.00  0.00    +0.010 A 
ATOM     25  C   UNL     1      -0.289  -5.102   1.678  0.00  0.00    +0.047 A 
ATOM     26  S   UNL     1       1.284  -4.263   1.589  0.00  0.00    -0.077 S 
ENDBRANCH  19  22
ENDBRANCH  18  19
ENDBRANCH  12  14
BRANCH   1  27
ATOM     27  C   UNL     1       6.790  -3.630  -0.810  0.00  0.00    +0.097 C 
BRANCH  27  28
ATOM     28  C   UNL     1       7.496  -3.185   0.472  0.00  0.00    -0.060 C 
BRANCH  28  31
ATOM     29  C   UNL     1       9.662  -2.626   1.399  0.00  0.00    -0.097 C 
ATOM     30  C   UNL     1       9.383  -4.658   0.113  0.00  0.00    -0.097 C 
ATOM     31  N   UNL     1       8.957  -3.251   0.260  0.00  0.00    +0.377 N 
ATOM     32  H   UNL     1       9.193  -2.740  -0.599  0.00  0.00    -0.083 HD
ENDBRANCH  28  31
ENDBRANCH  27  28
ENDBRANCH   1  27
TORSDOF 6
