REMARK  Name = ZINC67285674
REMARK  11 active torsions:
REMARK  status: ('A' for Active; 'I' for Inactive)
REMARK    1  A    between atoms: C_1  and  C_2
REMARK    2  A    between atoms: C_2  and  O_3
REMARK    3  A    between atoms: O_3  and  C_4
REMARK    4  A    between atoms: C_6  and  C_11
REMARK    5  A    between atoms: C_9  and  O_10
REMARK    6  A    between atoms: C_13  and  C_27
REMARK    7  A    between atoms: C_14  and  C_19
REMARK    8  A    between atoms: C_19  and  N_20
REMARK    9  A    between atoms: N_23  and  C_26
REMARK   10  A    between atoms: C_27  and  O_29
REMARK   11  A    between atoms: O_29  and  C_30
REMARK                            x       y       z     vdW  Elec       q    Type
REMARK                         _______ _______ _______ _____ _____    ______ ____
ROOT
ATOM      1  C   UNL     1       0.658  -4.957  -0.009  0.00  0.00    +0.144 C 
ATOM      2  C   UNL     1       1.009  -5.354  -1.428  0.00  0.00    +0.079 C 
ATOM      3  C   UNL     1       0.998  -6.669  -1.734  0.00  0.00    +0.038 C 
ATOM      4  N   UNL     1       0.681  -7.609  -0.796  0.00  0.00    -0.271 N 
ATOM      5  C   UNL     1       0.363  -7.315   0.471  0.00  0.00    +0.304 C 
ATOM      6  O   UNL     1       0.096  -8.221   1.236  0.00  0.00    -0.252 OA
ATOM      7  N   UNL     1       0.331  -6.047   0.926  0.00  0.00    -0.288 N 
ATOM      8  H   UNL     1       0.686  -8.541  -1.062  0.00  0.00    +0.156 HD
ATOM      9  H   UNL     1       0.098  -5.857   1.849  0.00  0.00    +0.151 HD
ENDROOT
BRANCH   1  12
ATOM     10  C   UNL     1      -1.410  -1.797  -0.089  0.00  0.00    +0.162 A 
ATOM     11  C   UNL     1      -0.324  -2.656  -0.036  0.00  0.00    +0.055 A 
ATOM     12  C   UNL     1      -0.524  -4.024  -0.066  0.00  0.00    -0.019 A 
ATOM     13  C   UNL     1      -1.805  -4.537  -0.148  0.00  0.00    +0.009 A 
ATOM     14  C   UNL     1      -2.892  -3.685  -0.201  0.00  0.00    +0.049 A 
ATOM     15  C   UNL     1      -2.699  -2.313  -0.166  0.00  0.00    +0.158 A 
BRANCH  15  16
ATOM     16  O   UNL     1      -3.768  -1.474  -0.212  0.00  0.00    -0.503 OA
ATOM     17  H   UNL     1      -4.030  -1.219  -1.107  0.00  0.00    +0.292 HD
ENDBRANCH  15  16
BRANCH  10  18
ATOM     18  O   UNL     1      -1.215  -0.451  -0.060  0.00  0.00    -0.489 OA
BRANCH  18  20
ATOM     19  C   UNL     1       0.154   1.538   0.042  0.00  0.00    +0.048 C 
ATOM     20  C   UNL     1       0.136   0.008   0.020  0.00  0.00    +0.226 C 
ENDBRANCH  18  20
ENDBRANCH  10  18
ENDBRANCH   1  12
BRANCH   2  21
ATOM     21  C   UNL     1       1.337  -4.380  -2.400  0.00  0.00    +0.339 C 
ATOM     22  O   UNL     1       2.446  -3.878  -2.409  0.00  0.00    -0.245 OA
BRANCH  21  23
ATOM     23  O   UNL     1       0.420  -4.006  -3.317  0.00  0.00    -0.465 OA
ATOM     24  C   UNL     1       0.819  -3.017  -4.268  0.00  0.00    +0.280 C 
ENDBRANCH  21  23
ENDBRANCH   2  21
BRANCH   3  25
ATOM     25  C   UNL     1       1.341  -7.107  -3.135  0.00  0.00    +0.135 C 
BRANCH  25  26
ATOM     26  N   UNL     1       2.572  -7.908  -3.111  0.00  0.00    -0.300 NA
ATOM     27  C   UNL     1       3.725  -7.089  -2.714  0.00  0.00    +0.066 C 
ATOM     28  C   UNL     1       4.974  -7.971  -2.643  0.00  0.00    -0.064 C 
ATOM     29  N   UNL     1       5.215  -8.585  -3.955  0.00  0.00    +0.379 N 
ATOM     30  C   UNL     1       4.065  -9.420  -4.327  0.00  0.00    -0.064 C 
ATOM     31  C   UNL     1       2.809  -8.549  -4.412  0.00  0.00    +0.066 C 
ATOM     32  C   UNL     1       6.423  -9.418  -3.891  0.00  0.00    -0.096 C 
ATOM     33  H   UNL     1       5.342  -7.861  -4.647  0.00  0.00    -0.082 HD
ENDBRANCH  25  26
ENDBRANCH   3  25
TORSDOF 8
