REMARK  Name = ZINC39674065
REMARK  9 active torsions:
REMARK  status: ('A' for Active; 'I' for Inactive)
REMARK    1  A    between atoms: C_1  and  C_2
REMARK    2  A    between atoms: C_4  and  C_7
REMARK    3  A    between atoms: C_9  and  C_14
REMARK    4  A    between atoms: C_10  and  C_13
REMARK    5  A    between atoms: C_18  and  C_27
REMARK    6  A    between atoms: N_29  and  C_30
REMARK    7  A    between atoms: C_30  and  C_31
REMARK    8  A    between atoms: C_31  and  C_32
REMARK    9  A    between atoms: C_40  and  C_42
REMARK                            x       y       z     vdW  Elec       q    Type
REMARK                         _______ _______ _______ _____ _____    ______ ____
ROOT
ATOM      1  C   UNL     1      -1.168  -3.790  -2.758  0.00  0.00    +0.247 C 
ATOM      2  O   UNL     1      -1.061  -3.984  -1.560  0.00  0.00    -0.270 OA
ATOM      3  N   UNL     1      -1.625  -2.606  -3.211  0.00  0.00    -0.296 N 
ATOM      4  C   UNL     1      -1.979  -1.405  -2.418  0.00  0.00    +0.121 C 
ATOM      5  C   UNL     1      -1.464  -0.216  -3.259  0.00  0.00    +0.100 C 
ATOM      6  C   UNL     1      -1.409  -0.750  -4.700  0.00  0.00    -0.004 C 
ATOM      7  C   UNL     1      -1.882  -2.208  -4.616  0.00  0.00    +0.115 C 
ATOM      8  C   UNL     1       0.021  -0.696  -5.229  0.00  0.00    -0.010 C 
ATOM      9  C   UNL     1       0.042  -1.178  -6.682  0.00  0.00    -0.082 C 
ATOM     10  N   UNL     1      -0.835  -0.326  -7.495  0.00  0.00    +0.379 N 
ATOM     11  C   UNL     1      -2.223  -0.456  -7.038  0.00  0.00    -0.082 C 
ATOM     12  C   UNL     1      -2.340   0.057  -5.600  0.00  0.00    -0.010 C 
ATOM     13  H   UNL     1      -0.542   0.636  -7.408  0.00  0.00    -0.086 HD
ATOM     14  H   UNL     1      -0.772  -0.607  -8.462  0.00  0.00    -0.086 HD
ENDROOT
BRANCH   1  16
ATOM     15  C   UNL     1      -1.041  -4.793  -5.168  0.00  0.00    +0.237 C 
ATOM     16  C   UNL     1      -0.811  -4.808  -3.673  0.00  0.00    +0.072 C 
ATOM     17  C   UNL     1      -0.204  -5.973  -3.378  0.00  0.00    +0.047 C 
ATOM     18  N   UNL     1      -0.010  -6.718  -4.499  0.00  0.00    -0.269 N 
ATOM     19  O   UNL     1      -0.507  -6.038  -5.639  0.00  0.00    -0.260 OA
ATOM     20  C   UNL     1       0.207  -6.394  -1.990  0.00  0.00    +0.066 C 
ATOM     21  H   UNL     1       0.411  -7.592  -4.516  0.00  0.00    +0.194 HD
BRANCH  15  25
ATOM     22  C   UNL     1      -5.472  -3.383  -7.250  0.00  0.00    +0.089 C 
ATOM     23  C   UNL     1      -4.444  -4.077  -6.394  0.00  0.00    +0.135 A 
ATOM     24  C   UNL     1      -3.115  -3.860  -6.420  0.00  0.00    +0.073 A 
ATOM     25  C   UNL     1      -2.515  -4.706  -5.471  0.00  0.00    +0.120 A 
ATOM     26  N   UNL     1      -3.456  -5.403  -4.898  0.00  0.00    -0.080 NA
ATOM     27  O   UNL     1      -4.693  -5.015  -5.467  0.00  0.00    -0.360 OA
ENDBRANCH  15  25
ENDBRANCH   1  16
BRANCH   5  28
ATOM     28  C   UNL     1      -2.420   0.946  -3.164  0.00  0.00    +0.218 C 
ATOM     29  O   UNL     1      -3.604   0.745  -3.002  0.00  0.00    -0.275 OA
ATOM     30  N   UNL     1      -1.957   2.208  -3.260  0.00  0.00    -0.315 N 
ATOM     31  H   UNL     1      -1.022   2.368  -3.462  0.00  0.00    +0.149 HD
BRANCH  30  32
ATOM     32  C   UNL     1      -2.866   3.339  -3.058  0.00  0.00    +0.109 C 
BRANCH  32  33
ATOM     33  C   UNL     1      -2.094   4.650  -3.221  0.00  0.00    +0.056 C 
BRANCH  33  34
ATOM     34  C   UNL     1      -3.029   5.813  -3.014  0.00  0.00    -0.018 A 
ATOM     35  C   UNL     1      -3.321   6.481  -1.743  0.00  0.00    +0.003 A 
ATOM     36  C   UNL     1      -2.886   6.299  -0.429  0.00  0.00    +0.010 A 
ATOM     37  C   UNL     1      -3.360   7.113   0.561  0.00  0.00    +0.001 A 
ATOM     38  C   UNL     1      -4.270   8.120   0.271  0.00  0.00    +0.002 A 
ATOM     39  C   UNL     1      -4.712   8.317  -1.019  0.00  0.00    +0.026 A 
ATOM     40  C   UNL     1      -4.243   7.500  -2.042  0.00  0.00    +0.047 A 
ATOM     41  N   UNL     1      -4.485   7.444  -3.397  0.00  0.00    -0.358 N 
ATOM     42  C   UNL     1      -3.749   6.437  -3.959  0.00  0.00    +0.017 A 
ATOM     43  H   UNL     1      -5.085   8.033  -3.881  0.00  0.00    +0.166 HD
ATOM     44  C   UNL     1      -3.750   6.079  -5.423  0.00  0.00    +0.063 C 
ENDBRANCH  33  34
ENDBRANCH  32  33
ENDBRANCH  30  32
ENDBRANCH   5  28
TORSDOF 6
