REMARK  Name = ZINC09442181
REMARK  11 active torsions:
REMARK  status: ('A' for Active; 'I' for Inactive)
REMARK    1  A    between atoms: C_1  and  C_2
REMARK    2  A    between atoms: C_5  and  N_8
REMARK    3  A    between atoms: C_11  and  C_16
REMARK    4  A    between atoms: C_16  and  N_53
REMARK    5  A    between atoms: C_17  and  C_19
REMARK    6  A    between atoms: C_17  and  C_21
REMARK    7  A    between atoms: C_17  and  N_53
REMARK    8  A    between atoms: C_19  and  O_20
REMARK    9  A    between atoms: C_21  and  C_23
REMARK   10  A    between atoms: C_21  and  O_32
REMARK   11  A    between atoms: C_26  and  N_29
REMARK                            x       y       z     vdW  Elec       q    Type
REMARK                         _______ _______ _______ _____ _____    ______ ____
ROOT
ATOM      1  C   UNK A   0       3.434   7.690   0.427  0.00  0.00    -0.004 C 
ENDROOT
BRANCH   1   5
ATOM      2  N   UNK A   0       1.162   3.484   0.009  0.00  0.00    -0.284 N 
ATOM      3  C   UNK A   0       2.347   4.188   0.106  0.00  0.00    +0.224 A 
ATOM      4  N   UNK A   0       2.328   5.514   0.213  0.00  0.00    -0.201 NA
ATOM      5  C   UNK A   0       3.461   6.188   0.306  0.00  0.00    +0.119 A 
ATOM      6  N   UNK A   0       4.617   5.548   0.293  0.00  0.00    -0.202 NA
ATOM      7  C   UNK A   0       4.644   4.222   0.186  0.00  0.00    +0.217 A 
ATOM      8  N   UNK A   0       3.507   3.540   0.098  0.00  0.00    -0.181 NA
ATOM      9  N   UNK A   0       5.852   3.554   0.172  0.00  0.00    -0.327 N 
ATOM     10  H   UNK A   0       0.315   3.947   0.101  0.00  0.00    +0.155 HD
ATOM     11  H   UNK A   0       6.682   4.052   0.239  0.00  0.00    +0.145 HD
ATOM     12  H   UNK A   0       5.872   2.588   0.094  0.00  0.00    +0.145 HD
BRANCH   2  17
ATOM     13  C   UNK A   0       1.252  -2.110  -0.927  0.00  0.00    +0.044 C 
ATOM     14  C   UNK A   0       1.228  -0.623  -0.678  0.00  0.00    -0.050 A 
ATOM     15  C   UNK A   0       0.278  -0.080   0.167  0.00  0.00    +0.005 A 
ATOM     16  C   UNK A   0       0.253   1.281   0.398  0.00  0.00    +0.023 A 
ATOM     17  C   UNK A   0       1.184   2.105  -0.221  0.00  0.00    +0.034 A 
ATOM     18  C   UNK A   0       2.138   1.557  -1.069  0.00  0.00    +0.023 A 
ATOM     19  C   UNK A   0       2.157   0.194  -1.295  0.00  0.00    +0.005 A 
ENDBRANCH   2  17
ENDBRANCH   1   5
BRANCH   1  20
ATOM     20  N   UNK A   1       3.379   8.059   1.855  0.00  0.00    +0.389 N 
ATOM     21  H   UNK A   1       4.207   7.685   2.333  0.00  0.00    -0.085 HD
ATOM     22  H   UNK A   1       2.531   7.660   2.275  0.00  0.00    -0.085 HD
BRANCH  20  23
ATOM     23  C   UNK A   1       3.352   9.526   2.004  0.00  0.00    -0.012 C 
BRANCH  23  24
ATOM     24  C   UNK A   1       1.911  10.025   1.883  0.00  0.00    +0.143 C 
BRANCH  24  25
ATOM     25  O   UNK A   1       1.137   9.514   2.970  0.00  0.00    -0.397 OA
ATOM     26  H   UNK A   1       0.210   9.790   2.958  0.00  0.00    +0.209 HD
ENDBRANCH  24  25
ENDBRANCH  23  24
BRANCH  23  27
ATOM     27  C   UNK A   1       3.909   9.901   3.378  0.00  0.00    +0.133 C 
BRANCH  27  28
ATOM     28  C   UNK A   1       5.328   9.410   3.497  0.00  0.00    -0.020 A 
ATOM     29  C   UNK A   1       5.577   8.085   3.802  0.00  0.00    +0.008 A 
ATOM     30  C   UNK A   1       6.879   7.632   3.907  0.00  0.00    +0.033 A 
ATOM     31  C   UNK A   1       7.932   8.508   3.716  0.00  0.00    +0.126 A 
ATOM     32  C   UNK A   1       7.683   9.834   3.416  0.00  0.00    +0.033 A 
ATOM     33  C   UNK A   1       6.381  10.285   3.307  0.00  0.00    +0.008 A 
BRANCH  31  34
ATOM     34  N   UNK A   1       9.326   8.024   3.832  0.00  0.00    +0.056 N 
ATOM     35  O   UNK A   1      10.254   8.796   3.664  0.00  0.00    -0.126 OA
ATOM     36  O   UNK A   1       9.546   6.856   4.096  0.00  0.00    -0.126 OA
ENDBRANCH  31  34
ENDBRANCH  27  28
BRANCH  27  37
ATOM     37  O   UNK A   1       3.108   9.298   4.397  0.00  0.00    -0.389 OA
ATOM     38  H   UNK A   1       3.080   8.332   4.355  0.00  0.00    +0.210 HD
ENDBRANCH  27  37
ENDBRANCH  23  27
ENDBRANCH  20  23
ENDBRANCH   1  20
TORSDOF 10
