REMARK  Name = ZINC19672143
REMARK  7 active torsions:
REMARK  status: ('A' for Active; 'I' for Inactive)
REMARK    1  A    between atoms: C_1  and  C_2
REMARK    2  A    between atoms: C_2  and  C_3
REMARK    3  A    between atoms: C_3  and  C_5
REMARK    4  A    between atoms: C_3  and  N_6
REMARK    5  A    between atoms: C_7  and  S_9
REMARK    6  A    between atoms: S_9  and  C_10
REMARK    7  A    between atoms: C_10  and  C_11
REMARK                            x       y       z     vdW  Elec       q    Type
REMARK                         _______ _______ _______ _____ _____    ______ ____
ROOT
ATOM      1  C   UNL     1       0.173   0.936  -7.636  0.00  0.00    +0.121 A 
ATOM      2  N   UNL     1       0.915   1.038  -8.769  0.00  0.00    -0.310 N 
ATOM      3  H   UNL     1       1.867   0.858  -8.731  0.00  0.00    +0.170 HD
ATOM      4  C   UNL     1       0.355   1.382  -9.944  0.00  0.00    +0.260 A 
ATOM      5  O   UNL     1       1.033   1.470 -10.953  0.00  0.00    -0.267 OA
ATOM      6  C   UNL     1      -1.053   1.644  -9.986  0.00  0.00    +0.075 A 
ATOM      7  C   UNL     1      -1.869   2.031 -11.147  0.00  0.00    -0.023 A 
ATOM      8  C   UNL     1      -3.182   2.223 -10.930  0.00  0.00    -0.004 A 
ATOM      9  S   UNL     1      -3.412   1.902  -9.196  0.00  0.00    -0.073 S 
ATOM     10  C   UNL     1      -1.735   1.513  -8.770  0.00  0.00    +0.116 A 
ATOM     11  N   UNL     1      -1.114   1.163  -7.646  0.00  0.00    -0.226 NA
ATOM     12  C   UNL     1      -3.913   2.619 -12.184  0.00  0.00    +0.043 C 
ATOM     13  C   UNL     1      -2.801   3.074 -13.154  0.00  0.00    +0.010 C 
ATOM     14  C   UNL     1      -1.586   2.283 -12.631  0.00  0.00    +0.037 C 
ENDROOT
BRANCH   1  15
ATOM     15  C   UNL     1       0.845   0.547  -6.345  0.00  0.00    +0.151 C 
BRANCH  15  16
ATOM     16  S   UNL     1      -0.389   0.485  -5.016  0.00  0.00    -0.085 S 
BRANCH  16  18
ATOM     17  N   UNL     1      -0.055  -0.114  -2.441  0.00  0.00    -0.366 N 
ATOM     18  C   UNL     1       0.541   0.023  -3.592  0.00  0.00    +0.126 C 
ATOM     19  N   UNL     1       1.896  -0.192  -3.696  0.00  0.00    -0.339 N 
ATOM     20  H   UNL     1       2.408  -0.446  -2.912  0.00  0.00    +0.144 HD
ATOM     21  H   UNL     1       2.339  -0.090  -4.553  0.00  0.00    +0.144 HD
ATOM     22  H   UNL     1      -1.010   0.038  -2.368  0.00  0.00    +0.162 HD
BRANCH  17  23
ATOM     23  C   UNL     1       0.718  -0.497  -1.257  0.00  0.00    +0.078 C 
ATOM     24  C   UNL     1       0.849  -2.021  -1.205  0.00  0.00    +0.030 C 
BRANCH  23  26
ATOM     25  C   UNL     1      -0.019   1.526   0.010  0.00  0.00    +0.006 C 
ATOM     26  C   UNL     1       0.002  -0.004   0.002  0.00  0.00    +0.021 C 
ENDBRANCH  23  26
ENDBRANCH  17  23
ENDBRANCH  16  18
ENDBRANCH  15  16
ENDBRANCH   1  15
TORSDOF 5
