REMARK  Name = ZINC38546717
REMARK  12 active torsions:
REMARK  status: ('A' for Active; 'I' for Inactive)
REMARK    1  A    between atoms: C_1  and  C_2
REMARK    2  A    between atoms: C_3  and  C_34
REMARK    3  A    between atoms: C_5  and  N_26
REMARK    4  A    between atoms: C_6  and  C_7
REMARK    5  A    between atoms: C_7  and  C_9
REMARK    6  A    between atoms: C_7  and  N_19
REMARK    7  A    between atoms: C_13  and  O_17
REMARK    8  A    between atoms: C_14  and  O_15
REMARK    9  A    between atoms: O_15  and  C_16
REMARK   10  A    between atoms: O_17  and  C_18
REMARK   11  A    between atoms: C_22  and  C_25
REMARK   12  A    between atoms: C_27  and  C_29
REMARK                            x       y       z     vdW  Elec       q    Type
REMARK                         _______ _______ _______ _____ _____    ______ ____
ROOT
ATOM      1  C   UNL     1      -0.040  -0.081   2.543  0.00  0.00    -0.000 C 
ENDROOT
BRANCH   1   2
ATOM      2  N   UNL     1      -0.900  -0.846   3.456  0.00  0.00    +0.387 N 
ATOM      3  C   UNL     1      -1.015  -0.130   4.733  0.00  0.00    -0.077 C 
ATOM      4  C   UNL     1      -1.844  -0.961   5.715  0.00  0.00    -0.015 C 
ATOM      5  C   UNL     1      -3.240  -1.191   5.129  0.00  0.00    -0.018 C 
ATOM      6  C   UNL     1      -3.104  -1.871   3.764  0.00  0.00    -0.015 C 
ATOM      7  C   UNL     1      -2.229  -1.007   2.854  0.00  0.00    -0.077 C 
ATOM      8  C   UNL     1      -4.047  -2.088   6.070  0.00  0.00    +0.007 C 
ATOM      9  H   UNL     1      -0.493  -1.754   3.618  0.00  0.00    -0.080 HD
ENDBRANCH   1   2
BRANCH   1  15
ATOM     10  C   UNL     1      -0.491   1.469   0.117  0.00  0.00    +0.045 C 
ATOM     11  C   UNL     1      -0.235  -0.015   0.041  0.00  0.00    -0.037 A 
ATOM     12  C   UNL     1      -0.205  -0.646  -1.157  0.00  0.00    -0.008 A 
ATOM     13  S   UNL     1       0.125  -2.334  -0.682  0.00  0.00    -0.078 S 
ATOM     14  C   UNL     1       0.203  -2.089   1.085  0.00  0.00    +0.074 A 
ATOM     15  C   UNL     1      -0.021  -0.749   1.193  0.00  0.00    -0.025 A 
ATOM     16  C   UNL     1      -0.402  -0.071  -2.536  0.00  0.00    +0.052 C 
BRANCH  14  17
ATOM     17  N   UNL     1       0.436  -3.026   2.094  0.00  0.00    -0.275 N 
ATOM     18  C   UNL     1       0.511  -4.337   1.792  0.00  0.00    +0.255 C 
ATOM     19  O   UNL     1       0.374  -4.705   0.639  0.00  0.00    -0.269 OA
ATOM     20  H   UNL     1       0.545  -2.733   3.012  0.00  0.00    +0.156 HD
BRANCH  18  21
ATOM     21  C   UNL     1       0.756  -5.320   2.850  0.00  0.00    +0.074 A 
ATOM     22  C   UNL     1       0.873  -6.699   2.753  0.00  0.00    +0.021 A 
ATOM     23  C   UNL     1       1.106  -7.363   3.934  0.00  0.00    +0.008 A 
ATOM     24  C   UNL     1       1.204  -6.650   5.083  0.00  0.00    +0.046 A 
ATOM     25  S   UNL     1       0.991  -5.055   4.598  0.00  0.00    -0.092 S 
ENDBRANCH  18  21
ENDBRANCH  14  17
ENDBRANCH   1  15
BRANCH   1  26
ATOM     26  C   UNL     1       1.360  -0.029   3.098  0.00  0.00    -0.011 A 
ATOM     27  C   UNL     1       1.802  -1.020   3.956  0.00  0.00    +0.006 A 
ATOM     28  C   UNL     1       3.085  -0.976   4.466  0.00  0.00    +0.004 A 
ATOM     29  C   UNL     1       3.934   0.060   4.122  0.00  0.00    +0.049 A 
ATOM     30  C   UNL     1       3.498   1.056   3.263  0.00  0.00    +0.162 A 
ATOM     31  C   UNL     1       2.208   1.008   2.744  0.00  0.00    +0.163 A 
BRANCH  31  32
ATOM     32  O   UNL     1       1.777   1.981   1.897  0.00  0.00    -0.491 OA
ATOM     33  C   UNL     1       1.154   3.124   2.484  0.00  0.00    +0.277 C 
ENDBRANCH  31  32
BRANCH  30  34
ATOM     34  O   UNL     1       4.332   2.076   2.924  0.00  0.00    -0.491 OA
ATOM     35  C   UNL     1       5.644   2.057   3.489  0.00  0.00    +0.277 C 
ENDBRANCH  30  34
ENDBRANCH   1  26
TORSDOF 7
