REMARK  Name = ZINC03289389
REMARK  11 active torsions:
REMARK  status: ('A' for Active; 'I' for Inactive)
REMARK    1  A    between atoms: C_1  and  C_2
REMARK    2  A    between atoms: C_2  and  O_3
REMARK    3  A    between atoms: O_3  and  C_4
REMARK    4  A    between atoms: C_4  and  C_6
REMARK    5  A    between atoms: C_7  and  C_23
REMARK    6  A    between atoms: C_10  and  N_11
REMARK    7  A    between atoms: C_12  and  C_14
REMARK    8  A    between atoms: C_14  and  N_49
REMARK    9  A    between atoms: C_15  and  C_16
REMARK   10  A    between atoms: C_15  and  N_49
REMARK   11  A    between atoms: C_16  and  C_17
REMARK                            x       y       z     vdW  Elec       q    Type
REMARK                         _______ _______ _______ _____ _____    ______ ____
ROOT
ATOM      1  N   UNL     1      -3.447   7.515  -1.554  0.00  0.00    -0.281 N 
ATOM      2  C   UNL     1      -3.729   8.810  -1.310  0.00  0.00    +0.201 C 
ATOM      3  O   UNL     1      -3.148   9.400  -0.423  0.00  0.00    -0.278 OA
ATOM      4  H   UNL     1      -3.912   7.043  -2.264  0.00  0.00    +0.155 HD
ENDROOT
BRANCH   1   9
ATOM      5  C   UNL     1      -2.073   5.538  -0.895  0.00  0.00    +0.096 A 
ATOM      6  C   UNL     1      -1.050   5.105   0.039  0.00  0.00    +0.012 A 
ATOM      7  C   UNL     1      -0.606   6.031   0.929  0.00  0.00    +0.057 A 
ATOM      8  S   UNL     1      -1.546   7.484   0.512  0.00  0.00    -0.080 S 
ATOM      9  C   UNL     1      -2.495   6.857  -0.793  0.00  0.00    +0.086 A 
BRANCH   6  10
ATOM     10  C   UNL     1      -0.523   3.725   0.027  0.00  0.00    +0.021 A 
ATOM     11  C   UNL     1       0.778   3.298   0.012  0.00  0.00    +0.016 A 
ATOM     12  C   UNL     1       1.031   1.943   0.003  0.00  0.00    +0.008 A 
ATOM     13  C   UNL     1      -0.013   1.076   0.008  0.00  0.00    +0.046 A 
ATOM     14  S   UNL     1      -1.416   2.179   0.019  0.00  0.00    -0.097 S 
ENDBRANCH   6  10
BRANCH   5  15
ATOM     15  C   UNL     1      -2.633   4.630  -1.895  0.00  0.00    +0.342 C 
ATOM     16  O   UNL     1      -3.613   3.960  -1.629  0.00  0.00    -0.245 OA
BRANCH  15  17
ATOM     17  O   UNL     1      -2.062   4.534  -3.114  0.00  0.00    -0.461 OA
BRANCH  17  19
ATOM     18  C   UNL     1      -1.881   3.656  -5.358  0.00  0.00    +0.048 C 
ATOM     19  C   UNL     1      -2.661   3.627  -4.042  0.00  0.00    +0.229 C 
ENDBRANCH  17  19
ENDBRANCH  15  17
ENDBRANCH   5  15
ENDBRANCH   1   9
BRANCH   2  20
ATOM     20  C   UNL     1      -4.765   9.526  -2.138  0.00  0.00    +0.015 C 
BRANCH  20  21
ATOM     21  N   UNL     1      -4.880  10.919  -1.669  0.00  0.00    +0.385 N 
ATOM     22  H   UNL     1      -3.971  11.386  -1.768  0.00  0.00    -0.085 HD
ATOM     23  H   UNL     1      -5.161  10.922  -0.681  0.00  0.00    -0.085 HD
BRANCH  21  24
ATOM     24  C   UNL     1      -5.889  11.645  -2.463  0.00  0.00    -0.077 C 
BRANCH  24  25
ATOM     25  C   UNL     1      -5.987  13.085  -1.955  0.00  0.00    +0.016 C 
BRANCH  25  26
ATOM     26  C   UNL     1      -7.016  13.834  -2.762  0.00  0.00    -0.049 A 
ATOM     27  C   UNL     1      -6.638  14.513  -3.905  0.00  0.00    +0.003 A 
ATOM     28  C   UNL     1      -7.583  15.196  -4.647  0.00  0.00    +0.000 A 
ATOM     29  C   UNL     1      -8.905  15.208  -4.241  0.00  0.00    +0.000 A 
ATOM     30  C   UNL     1      -9.282  14.533  -3.095  0.00  0.00    +0.000 A 
ATOM     31  C   UNL     1      -8.338  13.846  -2.356  0.00  0.00    +0.003 A 
ENDBRANCH  25  26
ENDBRANCH  24  25
ENDBRANCH  21  24
ENDBRANCH  20  21
ENDBRANCH   2  20
TORSDOF 10
