REMARK  Name = ZINC14459051
REMARK  7 active torsions:
REMARK  status: ('A' for Active; 'I' for Inactive)
REMARK    1  A    between atoms: C_1  and  C_2
REMARK    2  A    between atoms: N_5  and  S_8
REMARK    3  A    between atoms: S_8  and  C_11
REMARK    4  A    between atoms: C_24  and  C_27
REMARK    5  A    between atoms: C_30  and  O_35
REMARK    6  A    between atoms: C_31  and  O_33
REMARK    7  A    between atoms: O_33  and  C_34
REMARK                            x       y       z     vdW  Elec       q    Type
REMARK                         _______ _______ _______ _____ _____    ______ ____
ROOT
ATOM      1  C   UNL     1       0.479  -0.814   0.207  0.00  0.00    +0.106 A 
ATOM      2  C   UNL     1       1.758  -0.293   0.127  0.00  0.00    +0.030 A 
ATOM      3  C   UNL     1       1.948   1.072   0.071  0.00  0.00    +0.025 A 
ATOM      4  C   UNL     1       0.859   1.934   0.094  0.00  0.00    +0.031 A 
ATOM      5  C   UNL     1      -0.433   1.400   0.160  0.00  0.00    -0.018 A 
ATOM      6  C   UNL     1      -0.612   0.035   0.224  0.00  0.00    +0.034 A 
ATOM      7  C   UNL     1      -1.566   2.350   0.135  0.00  0.00    +0.049 C 
ATOM      8  C   UNL     1      -2.905   2.041   0.722  0.00  0.00    -0.023 C 
ATOM      9  C   UNL     1      -3.448   3.161   1.184  0.00  0.00    -0.030 C 
ATOM     10  C   UNL     1      -2.498   4.338   0.951  0.00  0.00    +0.033 C 
ATOM     11  C   UNL     1      -1.136   3.631   0.910  0.00  0.00    +0.029 C 
ATOM     12  C   UNL     1      -0.051   4.272   0.063  0.00  0.00    +0.105 C 
ATOM     13  N   UNL     1       1.079   3.317   0.070  0.00  0.00    -0.336 N 
ATOM     14  H   UNL     1       1.988   3.654   0.058  0.00  0.00    +0.147 HD
ENDROOT
BRANCH  12  15
ATOM     15  C   UNL     1      -0.545   4.482  -1.345  0.00  0.00    -0.023 A 
ATOM     16  C   UNL     1      -0.361   3.495  -2.296  0.00  0.00    +0.009 A 
ATOM     17  C   UNL     1      -0.818   3.681  -3.587  0.00  0.00    +0.049 A 
ATOM     18  C   UNL     1      -1.453   4.863  -3.934  0.00  0.00    +0.158 A 
ATOM     19  C   UNL     1      -1.633   5.859  -2.978  0.00  0.00    +0.162 A 
ATOM     20  C   UNL     1      -1.177   5.664  -1.685  0.00  0.00    +0.054 A 
BRANCH  19  21
ATOM     21  O   UNL     1      -2.256   7.021  -3.314  0.00  0.00    -0.491 OA
ATOM     22  C   UNL     1      -2.406   7.997  -2.282  0.00  0.00    +0.277 C 
ENDBRANCH  19  21
BRANCH  18  23
ATOM     23  O   UNL     1      -1.897   5.050  -5.205  0.00  0.00    -0.503 OA
ATOM     24  H   UNL     1      -1.247   5.457  -5.794  0.00  0.00    +0.292 HD
ENDBRANCH  18  23
ENDBRANCH  12  15
BRANCH   1  25
ATOM     25  S   UNL     1       0.240  -2.558   0.288  0.00  0.00    +0.061 S 
ATOM     26  O   UNL     1       1.443  -3.108   0.807  0.00  0.00    -0.153 OA
ATOM     27  O   UNL     1      -1.022  -2.766   0.907  0.00  0.00    -0.153 OA
BRANCH  25  32
ATOM     28  C   UNL     1       0.051  -2.240  -5.434  0.00  0.00    +0.007 C 
ATOM     29  C   UNL     1       0.005  -2.973  -4.092  0.00  0.00    -0.012 C 
ATOM     30  C   UNL     1       1.327  -2.763  -3.350  0.00  0.00    +0.020 C 
ATOM     31  C   UNL     1       1.289  -3.527  -2.022  0.00  0.00    +0.110 C 
ATOM     32  N   UNL     1       0.101  -3.106  -1.268  0.00  0.00    -0.177 NA
ATOM     33  C   UNL     1      -1.214  -3.185  -1.919  0.00  0.00    +0.110 C 
ATOM     34  C   UNL     1      -1.148  -2.421  -3.249  0.00  0.00    +0.020 C 
ENDBRANCH  25  32
ENDBRANCH   1  25
TORSDOF 5
