REMARK  Name = ZINC13999875
REMARK  1 active torsions:
REMARK  status: ('A' for Active; 'I' for Inactive)
REMARK    1  A    between atoms: C_13  and  C_17
REMARK                            x       y       z     vdW  Elec       q    Type
REMARK                         _______ _______ _______ _____ _____    ______ ____
ROOT
ATOM      1  C   UNK     1      -0.018   1.514   0.010  0.00  0.00    +0.000 C 
ATOM      2  C   UNK     1       1.356   2.158   0.001  0.00  0.00    +0.001 C 
ATOM      3  C   UNK     1       2.313   1.516  -0.998  0.00  0.00    -0.029 C 
ATOM      4  C   UNK     1       1.860   1.771  -2.435  0.00  0.00    -0.080 C 
ATOM      5  N   UNK     1       0.588   1.124  -2.740  0.00  0.00    +0.379 N 
ATOM      6  C   UNK     1       0.570  -0.302  -2.427  0.00  0.00    -0.080 C 
ATOM      7  C   UNK     1       1.004  -0.586  -0.990  0.00  0.00    -0.029 C 
ATOM      8  C   UNK     1       0.002  -0.004   0.002  0.00  0.00    +0.001 C 
ATOM      9  C   UNK     1       2.378   0.017  -0.749  0.00  0.00    -0.016 C 
ATOM     10  N   UNK     1       2.893  -0.293   0.596  0.00  0.00    +0.399 N 
ATOM     11  C   UNK     1       3.666  -1.552   0.614  0.00  0.00    +0.055 C 
ATOM     12  C   UNK     1       4.680  -1.535  -0.570  0.00  0.00    +0.063 C 
ATOM     13  S   UNK     1       3.614  -0.756  -1.863  0.00  0.00    -0.174 S 
ATOM     14  H   UNK     1      -0.182   1.604  -2.320  0.00  0.00    -0.086 HD
ATOM     15  H   UNK     1       3.494   0.461   0.899  0.00  0.00    -0.083 HD
ATOM     16  H   UNK     1       0.439   1.212  -3.755  0.00  0.00    -0.086 HD
ATOM     17  H   UNK     1       2.123  -0.373   1.241  0.00  0.00    -0.083 HD
ENDROOT
BRANCH  11  18
ATOM     18  C   UNK     1       4.414  -1.667   1.918  0.00  0.00    +0.343 C 
ATOM     19  O   UNK     1       4.967  -2.713   2.214  0.00  0.00    -0.248 OA
ATOM     20  O   UNK     1       4.465  -0.714   2.677  0.00  0.00    -0.248 OA
ENDBRANCH  11  18
TORSDOF 1
