REMARK  Name = ZINC39656118
REMARK  8 active torsions:
REMARK  status: ('A' for Active; 'I' for Inactive)
REMARK    1  A    between atoms: C_1  and  C_2
REMARK    2  A    between atoms: C_8  and  C_11
REMARK    3  A    between atoms: C_11  and  C_12
REMARK    4  A    between atoms: C_12  and  N_13
REMARK    5  A    between atoms: C_14  and  C_16
REMARK    6  A    between atoms: C_27  and  C_29
REMARK    7  A    between atoms: C_32  and  C_40
REMARK    8  A    between atoms: C_34  and  C_36
REMARK                            x       y       z     vdW  Elec       q    Type
REMARK                         _______ _______ _______ _____ _____    ______ ____
ROOT
ATOM      1  C   UNL     1       3.707   0.309  -7.212  0.00  0.00    +0.100 C 
ATOM      2  C   UNL     1       4.877   0.721  -6.291  0.00  0.00    +0.121 C 
ATOM      3  N   UNL     1       5.524  -0.557  -5.913  0.00  0.00    -0.300 N 
ATOM      4  C   UNL     1       5.489  -1.369  -7.153  0.00  0.00    +0.115 C 
ATOM      5  C   UNL     1       4.114  -1.061  -7.779  0.00  0.00    -0.004 C 
ATOM      6  C   UNL     1       4.229  -0.992  -9.298  0.00  0.00    -0.010 C 
ATOM      7  C   UNL     1       4.577  -2.380  -9.844  0.00  0.00    -0.082 C 
ATOM      8  N   UNL     1       3.534  -3.336  -9.455  0.00  0.00    +0.379 N 
ATOM      9  C   UNL     1       3.493  -3.467  -7.993  0.00  0.00    -0.082 C 
ATOM     10  C   UNL     1       3.099  -2.125  -7.370  0.00  0.00    -0.010 C 
ATOM     11  C   UNL     1       6.030  -0.904  -4.713  0.00  0.00    +0.226 C 
ATOM     12  O   UNL     1       6.624  -1.954  -4.585  0.00  0.00    -0.275 OA
ATOM     13  H   UNL     1       2.639  -3.009  -9.787  0.00  0.00    -0.086 HD
ATOM     14  H   UNL     1       3.734  -4.236  -9.866  0.00  0.00    -0.086 HD
ENDROOT
BRANCH  11  15
ATOM     15  C   UNL     1       5.858   0.013  -3.529  0.00  0.00    +0.150 C 
ATOM     16  C   UNL     1       7.201   0.354  -2.905  0.00  0.00    +0.030 C 
ATOM     17  C   UNL     1       7.322  -0.370  -1.814  0.00  0.00    +0.092 C 
ATOM     18  O   UNL     1       6.264  -1.180  -1.581  0.00  0.00    -0.484 OA
ATOM     19  C   UNL     1       5.146  -0.715  -2.363  0.00  0.00    +0.292 C 
ATOM     20  C   UNL     1       8.524  -0.303  -0.908  0.00  0.00    +0.085 C 
BRANCH  19  21
ATOM     21  C   UNL     1       4.310  -1.888  -2.879  0.00  0.00    +0.427 C 
ATOM     22  F   UNL     1       5.158  -2.869  -3.403  0.00  0.00    -0.167 F 
ATOM     23  F   UNL     1       3.566  -2.429  -1.825  0.00  0.00    -0.167 F 
ATOM     24  F   UNL     1       3.442  -1.438  -3.879  0.00  0.00    -0.167 F 
ENDBRANCH  19  21
ENDBRANCH  11  15
BRANCH   1  26
ATOM     25  N   UNL     1       1.248   0.091  -7.056  0.00  0.00    -0.315 N 
ATOM     26  C   UNL     1       2.431   0.191  -6.419  0.00  0.00    +0.218 C 
ATOM     27  O   UNL     1       2.469   0.186  -5.206  0.00  0.00    -0.275 OA
ATOM     28  H   UNL     1       1.218   0.095  -8.026  0.00  0.00    +0.149 HD
BRANCH  25  29
ATOM     29  C   UNL     1       0.008  -0.024  -6.285  0.00  0.00    +0.109 C 
BRANCH  29  30
ATOM     30  C   UNL     1      -1.181  -0.123  -7.243  0.00  0.00    +0.056 C 
BRANCH  30  38
ATOM     31  C   UNL     1      -3.891   4.530  -5.287  0.00  0.00    +0.044 C 
ATOM     32  C   UNL     1      -4.039   3.030  -5.277  0.00  0.00    -0.050 A 
ATOM     33  C   UNL     1      -5.122   2.450  -4.630  0.00  0.00    +0.005 A 
ATOM     34  C   UNL     1      -5.276   1.081  -4.609  0.00  0.00    +0.026 A 
ATOM     35  C   UNL     1      -4.339   0.270  -5.241  0.00  0.00    +0.047 A 
ATOM     36  N   UNL     1      -4.214  -1.093  -5.394  0.00  0.00    -0.360 N 
ATOM     37  C   UNL     1      -3.087  -1.378  -6.116  0.00  0.00    +0.087 A 
ATOM     38  C   UNL     1      -2.457  -0.241  -6.449  0.00  0.00    -0.021 A 
ATOM     39  C   UNL     1      -3.244   0.863  -5.896  0.00  0.00    +0.003 A 
ATOM     40  C   UNL     1      -3.110   2.253  -5.910  0.00  0.00    +0.013 A 
ATOM     41  H   UNL     1      -4.832  -1.752  -5.041  0.00  0.00    +0.165 HD
ENDBRANCH  30  38
ENDBRANCH  29  30
ENDBRANCH  25  29
ENDBRANCH   1  26
TORSDOF 6
