REMARK  Name = ZINC65410953
REMARK  8 active torsions:
REMARK  status: ('A' for Active; 'I' for Inactive)
REMARK    1  A    between atoms: C_1  and  C_2
REMARK    2  A    between atoms: C_2  and  N_3
REMARK    3  A    between atoms: C_4  and  C_8
REMARK    4  A    between atoms: C_10  and  C_27
REMARK    5  A    between atoms: N_14  and  C_15
REMARK    6  A    between atoms: C_15  and  C_16
REMARK    7  A    between atoms: C_16  and  N_17
REMARK    8  A    between atoms: C_24  and  C_26
REMARK                            x       y       z     vdW  Elec       q    Type
REMARK                         _______ _______ _______ _____ _____    ______ ____
ROOT
ATOM      1  C   UNL     1      -1.332  -0.605  -2.740  0.00  0.00    +0.024 C 
ATOM      2  C   UNL     1      -1.980  -1.999  -2.877  0.00  0.00    +0.076 C 
ATOM      3  N   UNL     1      -2.917  -1.834  -4.021  0.00  0.00    -0.327 NA
ATOM      4  C   UNL     1      -2.172  -0.934  -4.938  0.00  0.00    +0.006 C 
ATOM      5  N   UNL     1      -1.489   0.043  -4.059  0.00  0.00    +0.397 N 
ATOM      6  H   UNL     1      -3.110  -2.720  -4.462  0.00  0.00    +0.120 HD
ATOM      7  H   UNL     1      -0.583   0.274  -4.439  0.00  0.00    -0.079 HD
ENDROOT
BRANCH   2   8
ATOM      8  C   UNL     1      -2.728  -2.364  -1.621  0.00  0.00    -0.032 A 
ATOM      9  C   UNL     1      -3.996  -1.857  -1.400  0.00  0.00    +0.005 A 
ATOM     10  C   UNL     1      -4.682  -2.192  -0.248  0.00  0.00    +0.000 A 
ATOM     11  C   UNL     1      -4.102  -3.033   0.683  0.00  0.00    +0.000 A 
ATOM     12  C   UNL     1      -2.835  -3.540   0.462  0.00  0.00    +0.000 A 
ATOM     13  C   UNL     1      -2.150  -3.209  -0.693  0.00  0.00    +0.005 A 
ENDBRANCH   2   8
BRANCH   1  15
ATOM     14  N   UNL     1       0.688  -0.476  -1.203  0.00  0.00    -0.251 N 
ATOM     15  C   UNL     1       0.129  -0.741  -2.397  0.00  0.00    +0.116 A 
ATOM     16  N   UNL     1       1.075  -1.138  -3.209  0.00  0.00    -0.221 NA
ATOM     17  C   UNL     1       2.245  -1.140  -2.573  0.00  0.00    +0.245 A 
ATOM     18  N   UNL     1       2.061  -0.737  -1.343  0.00  0.00    -0.158 NA
BRANCH  14  20
ATOM     19  C   UNL     1      -0.019   1.526   0.010  0.00  0.00    +0.029 C 
ATOM     20  C   UNL     1       0.002  -0.004   0.002  0.00  0.00    +0.142 C 
ENDBRANCH  14  20
ENDBRANCH   1  15
BRANCH   5  21
ATOM     21  C   UNL     1      -2.306   1.257  -3.927  0.00  0.00    -0.057 C 
BRANCH  21  22
ATOM     22  C   UNL     1      -2.358   1.986  -5.271  0.00  0.00    +0.086 C 
BRANCH  22  23
ATOM     23  N   UNL     1      -3.173   3.196  -5.139  0.00  0.00    -0.317 N 
ATOM     24  C   UNL     1      -3.363   4.014  -6.221  0.00  0.00    +0.196 A 
ATOM     25  N   UNL     1      -4.117   5.138  -6.084  0.00  0.00    -0.295 N 
ATOM     26  H   UNL     1      -4.515   5.356  -5.226  0.00  0.00    +0.172 HD
ATOM     27  C   UNL     1      -4.309   5.950  -7.145  0.00  0.00    +0.253 A 
ATOM     28  O   UNL     1      -4.982   6.962  -7.040  0.00  0.00    -0.268 OA
ATOM     29  C   UNL     1      -3.718   5.607  -8.374  0.00  0.00    +0.093 A 
ATOM     30  C   UNL     1      -2.972   4.467  -8.452  0.00  0.00    +0.047 A 
ATOM     31  N   UNL     1      -2.808   3.702  -7.375  0.00  0.00    -0.221 NA
ATOM     32  C   UNL     1      -2.327   4.077  -9.757  0.00  0.00    +0.066 C 
ATOM     33  H   UNL     1      -3.577   3.418  -4.286  0.00  0.00    +0.149 HD
ENDBRANCH  22  23
ENDBRANCH  21  22
ENDBRANCH   5  21
TORSDOF 6
