REMARK  Name = ZINC58105480
REMARK  5 active torsions:
REMARK  status: ('A' for Active; 'I' for Inactive)
REMARK    1  A    between atoms: C_1  and  C_2
REMARK    2  A    between atoms: C_2  and  C_22
REMARK    3  A    between atoms: C_7  and  C_12
REMARK    4  A    between atoms: C_12  and  C_14
REMARK    5  A    between atoms: C_12  and  N_20
REMARK                            x       y       z     vdW  Elec       q    Type
REMARK                         _______ _______ _______ _____ _____    ______ ____
ROOT
ATOM      1  C   UNL     1      -0.019   1.526   0.010  0.00  0.00    +0.025 C 
ATOM      2  C   UNL     1       0.002  -0.004   0.002  0.00  0.00    +0.068 C 
ATOM      3  C   UNL     1      -1.402  -0.553   0.108  0.00  0.00    -0.010 A 
ATOM      4  C   UNL     1      -2.515  -0.439  -0.693  0.00  0.00    +0.026 A 
ATOM      5  C   UNL     1      -3.694  -1.069  -0.332  0.00  0.00    +0.042 A 
ATOM      6  C   UNL     1      -3.748  -1.811   0.835  0.00  0.00    +0.024 A 
ATOM      7  C   UNL     1      -2.633  -1.927   1.639  0.00  0.00    -0.037 A 
ATOM      8  C   UNL     1      -1.443  -1.296   1.282  0.00  0.00    +0.039 A 
ATOM      9  N   UNL     1      -0.201  -1.263   1.917  0.00  0.00    -0.284 N 
ATOM     10  C   UNL     1       0.699  -0.532   1.238  0.00  0.00    +0.227 C 
ATOM     11  O   UNL     1       1.852  -0.332   1.556  0.00  0.00    -0.275 OA
ATOM     12 CL   UNL     1      -5.101  -0.927  -1.339  0.00  0.00    -0.084 Cl
ATOM     13  C   UNL     1       0.689  -0.522  -1.263  0.00  0.00    +0.025 C 
ATOM     14  H   UNL     1      -0.009  -1.716   2.753  0.00  0.00    +0.155 HD
ENDROOT
BRANCH   7  15
ATOM     15  C   UNL     1      -2.702  -2.738   2.907  0.00  0.00    -0.013 C 
BRANCH  15  16
ATOM     16  C   UNL     1      -3.008  -1.814   4.088  0.00  0.00    +0.108 C 
ATOM     17  C   UNL     1      -3.049  -2.624   5.408  0.00  0.00    +0.032 C 
ATOM     18  C   UNL     1      -2.717  -1.516   6.444  0.00  0.00    +0.030 C 
ATOM     19  C   UNL     1      -1.736  -0.617   5.660  0.00  0.00    +0.160 C 
ATOM     20  O   UNL     1      -1.948  -0.861   4.263  0.00  0.00    -0.378 OA
ENDBRANCH  15  16
BRANCH  15  21
ATOM     21  N   UNL     1      -3.764  -3.746   2.787  0.00  0.00    +0.384 N 
ATOM     22  H   UNL     1      -4.649  -3.286   2.633  0.00  0.00    -0.089 HD
ATOM     23  H   UNL     1      -3.562  -4.356   2.008  0.00  0.00    -0.089 HD
ATOM     24  H   UNL     1      -3.810  -4.290   3.636  0.00  0.00    -0.089 HD
ENDBRANCH  15  21
ENDBRANCH   7  15
TORSDOF 3
