REMARK  Name = ZINC08834880
REMARK  15 active torsions:
REMARK  status: ('A' for Active; 'I' for Inactive)
REMARK    1  A    between atoms: C_1  and  C_2
REMARK    2  A    between atoms: C_2  and  N_67
REMARK    3  A    between atoms: C_3  and  C_4
REMARK    4  A    between atoms: C_3  and  N_67
REMARK    5  A    between atoms: C_5  and  C_6
REMARK    6  A    between atoms: C_5  and  N_67
REMARK    7  A    between atoms: C_6  and  C_7
REMARK    8  A    between atoms: C_7  and  N_8
REMARK    9  A    between atoms: C_9  and  C_25
REMARK   10  A    between atoms: C_27  and  O_35
REMARK   11  A    between atoms: C_28  and  O_33
REMARK   12  A    between atoms: C_29  and  O_31
REMARK   13  A    between atoms: O_31  and  C_32
REMARK   14  A    between atoms: O_33  and  C_34
REMARK   15  A    between atoms: O_35  and  C_36
REMARK                            x       y       z     vdW  Elec       q    Type
REMARK                         _______ _______ _______ _____ _____    ______ ____
ROOT
ATOM      1  N   UNL     1       3.502   1.539  -0.429  0.00  0.00    -0.284 N 
ATOM      2  C   UNL     1       2.945   0.225  -0.769  0.00  0.00    +0.145 C 
ATOM      3  C   UNL     1       1.447   0.390  -0.747  0.00  0.00    +0.072 A 
ATOM      4  C   UNL     1       0.342  -0.539  -0.996  0.00  0.00    +0.199 A 
ATOM      5  O   UNL     1       0.540  -1.705  -1.289  0.00  0.00    -0.287 OA
ATOM      6  C   UNL     1      -1.024   0.009  -0.881  0.00  0.00    +0.066 A 
ATOM      7  C   UNL     1      -2.147  -0.785  -1.103  0.00  0.00    +0.035 A 
ATOM      8  C   UNL     1      -3.404  -0.232  -0.985  0.00  0.00    +0.042 A 
ATOM      9  C   UNL     1      -3.549   1.108  -0.647  0.00  0.00    +0.023 A 
ATOM     10  C   UNL     1      -2.446   1.899  -0.415  0.00  0.00    +0.048 A 
ATOM     11  C   UNL     1      -1.166   1.363  -0.533  0.00  0.00    +0.140 A 
ATOM     12  O   UNL     1      -0.081   2.131  -0.325  0.00  0.00    -0.450 OA
ATOM     13  C   UNL     1       1.185   1.680  -0.423  0.00  0.00    +0.199 A 
ATOM     14  C   UNL     1       2.476   2.385  -0.228  0.00  0.00    +0.283 C 
ATOM     15  O   UNL     1       2.590   3.557   0.070  0.00  0.00    -0.267 OA
ATOM     16 CL   UNL     1      -4.811  -1.212  -1.259  0.00  0.00    -0.084 Cl
ENDROOT
BRANCH   2  17
ATOM     17  C   UNL     1       3.369  -0.799   0.252  0.00  0.00    -0.015 A 
ATOM     18  C   UNL     1       3.447  -0.450   1.587  0.00  0.00    +0.055 A 
ATOM     19  C   UNL     1       3.832  -1.391   2.530  0.00  0.00    +0.165 A 
ATOM     20  C   UNL     1       4.150  -2.683   2.131  0.00  0.00    +0.204 A 
ATOM     21  C   UNL     1       4.075  -3.029   0.786  0.00  0.00    +0.165 A 
ATOM     22  C   UNL     1       3.685  -2.084  -0.150  0.00  0.00    +0.055 A 
BRANCH  21  23
ATOM     23  O   UNL     1       4.386  -4.292   0.390  0.00  0.00    -0.491 OA
ATOM     24  C   UNL     1       4.287  -4.577  -1.007  0.00  0.00    +0.277 C 
ENDBRANCH  21  23
BRANCH  20  25
ATOM     25  O   UNL     1       4.533  -3.608   3.053  0.00  0.00    -0.488 OA
ATOM     26  C   UNL     1       5.931  -3.701   3.336  0.00  0.00    +0.277 C 
ENDBRANCH  20  25
BRANCH  19  27
ATOM     27  O   UNL     1       3.903  -1.048   3.845  0.00  0.00    -0.491 OA
ATOM     28  C   UNL     1       3.562   0.298   4.183  0.00  0.00    +0.277 C 
ENDBRANCH  19  27
ENDBRANCH   2  17
BRANCH   1  29
ATOM     29  C   UNL     1       4.925   1.871  -0.326  0.00  0.00    +0.107 C 
BRANCH  29  30
ATOM     30  C   UNL     1       5.438   2.341  -1.689  0.00  0.00    +0.000 C 
BRANCH  30  31
ATOM     31  C   UNL     1       6.925   2.688  -1.581  0.00  0.00    -0.077 C 
BRANCH  31  32
ATOM     32  N   UNL     1       7.410   3.120  -2.909  0.00  0.00    +0.379 N 
ATOM     33  H   UNL     1       7.150   2.412  -3.606  0.00  0.00    -0.082 HD
BRANCH  32  35
ATOM     34  C   UNL     1       7.135   5.486  -2.249  0.00  0.00    -0.017 C 
ATOM     35  C   UNL     1       6.790   4.409  -3.280  0.00  0.00    -0.082 C 
ENDBRANCH  32  35
BRANCH  32  36
ATOM     36  C   UNL     1       8.882   3.255  -2.889  0.00  0.00    -0.082 C 
ATOM     37  C   UNL     1       9.388   3.339  -4.331  0.00  0.00    -0.017 C 
ENDBRANCH  32  36
ENDBRANCH  31  32
ENDBRANCH  30  31
ENDBRANCH  29  30
ENDBRANCH   1  29
TORSDOF 10
