REMARK  Name = ZINC03376312
REMARK  13 active torsions:
REMARK  status: ('A' for Active; 'I' for Inactive)
REMARK    1  A    between atoms: C_1  and  C_2
REMARK    2  A    between atoms: C_2  and  C_4
REMARK    3  A    between atoms: C_2  and  N_32
REMARK    4  A    between atoms: C_7  and  S_16
REMARK    5  A    between atoms: N_8  and  C_9
REMARK    6  A    between atoms: S_16  and  C_17
REMARK    7  A    between atoms: C_17  and  C_19
REMARK    8  A    between atoms: C_17  and  C_20
REMARK    9  A    between atoms: N_22  and  C_23
REMARK   10  A    between atoms: C_28  and  O_29
REMARK   11  A    between atoms: O_29  and  C_30
REMARK   12  A    between atoms: N_32  and  C_33
REMARK   13  A    between atoms: N_32  and  C_34
REMARK                            x       y       z     vdW  Elec       q    Type
REMARK                         _______ _______ _______ _____ _____    ______ ____
ROOT
ATOM      1  C   UNL     1      -7.189   0.441  -0.527  0.00  0.00    +0.125 A 
ATOM      2  N   UNL     1      -6.406  -0.447   0.018  0.00  0.00    -0.135 NA
ATOM      3  N   UNL     1      -5.202  -0.002   0.072  0.00  0.00    -0.122 NA
ATOM      4  C   UNL     1      -5.148   1.205  -0.441  0.00  0.00    +0.197 A 
ATOM      5  N   UNL     1      -6.417   1.529  -0.835  0.00  0.00    -0.275 N 
ENDROOT
BRANCH   5   6
ATOM      6  C   UNL     1      -6.839   2.726  -1.434  0.00  0.00    +0.050 A 
ATOM      7  C   UNL     1      -7.726   3.561  -0.768  0.00  0.00    +0.028 A 
ATOM      8  C   UNL     1      -8.137   4.740  -1.357  0.00  0.00    +0.022 A 
ATOM      9  C   UNL     1      -7.673   5.085  -2.615  0.00  0.00    +0.041 A 
ATOM     10  C   UNL     1      -6.793   4.252  -3.282  0.00  0.00    +0.022 A 
ATOM     11  C   UNL     1      -6.375   3.074  -2.695  0.00  0.00    +0.028 A 
ATOM     12 CL   UNL     1      -8.196   6.566  -3.355  0.00  0.00    -0.084 Cl
ENDBRANCH   5   6
BRANCH   1  14
ATOM     13  C   UNL     1      -9.419   0.453   0.557  0.00  0.00    -0.005 C 
ATOM     14  C   UNL     1      -8.669   0.298  -0.768  0.00  0.00    -0.003 C 
BRANCH  14  15
ATOM     15  N   UNL     1      -8.948  -1.028  -1.336  0.00  0.00    +0.382 N 
ATOM     16  C   UNL     1     -10.385  -1.202  -1.585  0.00  0.00    -0.096 C 
ATOM     17  C   UNL     1      -8.171  -1.248  -2.563  0.00  0.00    -0.096 C 
ATOM     18  H   UNL     1      -8.638  -1.783  -0.599  0.00  0.00    -0.082 HD
ENDBRANCH  14  15
ENDBRANCH   1  14
BRANCH   4  19
ATOM     19  S   UNL     1      -3.714   2.219  -0.586  0.00  0.00    -0.073 S 
BRANCH  19  20
ATOM     20  C   UNL     1      -2.476   1.120   0.144  0.00  0.00    +0.137 C 
ATOM     21  C   UNL     1      -2.799   0.899   1.624  0.00  0.00    +0.029 C 
BRANCH  20  22
ATOM     22  C   UNL     1      -1.111   1.745   0.016  0.00  0.00    +0.230 C 
ATOM     23  O   UNL     1      -1.002   2.949  -0.079  0.00  0.00    -0.274 OA
ATOM     24  N   UNL     1      -0.011   0.966   0.007  0.00  0.00    -0.282 N 
ATOM     25  H   UNL     1      -0.113  -0.129   0.025  0.00  0.00    +0.155 HD
BRANCH  24  26
ATOM     26  C   UNL     1       1.262   1.551  -0.024  0.00  0.00    +0.077 A 
ATOM     27  C   UNL     1       1.468   2.729  -0.726  0.00  0.00    +0.047 A 
ATOM     28  C   UNL     1       2.725   3.307  -0.752  0.00  0.00    +0.043 A 
ATOM     29  C   UNL     1       3.779   2.707  -0.086  0.00  0.00    +0.024 A 
ATOM     30  C   UNL     1       3.581   1.530   0.611  0.00  0.00    +0.049 A 
ATOM     31  C   UNL     1       2.324   0.948   0.645  0.00  0.00    +0.141 A 
ATOM     32 CL   UNL     1       2.981   4.785  -1.626  0.00  0.00    -0.083 Cl
BRANCH  31  33
ATOM     33  O   UNL     1       2.128  -0.210   1.331  0.00  0.00    -0.493 OA
ATOM     34  C   UNL     1       3.263  -0.772   1.993  0.00  0.00    +0.277 C 
ENDBRANCH  31  33
ENDBRANCH  24  26
ENDBRANCH  20  22
ENDBRANCH  19  20
ENDBRANCH   4  19
TORSDOF 8
