REMARK  Name = ZINC31631752
REMARK  6 active torsions:
REMARK  status: ('A' for Active; 'I' for Inactive)
REMARK    1  A    between atoms: C_1  and  C_2
REMARK    2  A    between atoms: C_2  and  C_24
REMARK    3  A    between atoms: N_5  and  C_9
REMARK    4  A    between atoms: C_9  and  C_10
REMARK    5  A    between atoms: N_12  and  C_13
REMARK    6  A    between atoms: C_14  and  C_21
REMARK                            x       y       z     vdW  Elec       q    Type
REMARK                         _______ _______ _______ _____ _____    ______ ____
ROOT
ATOM      1  C   UNL     1       1.396   1.982  -0.001  0.00  0.00    +0.236 C 
ATOM      2  O   UNL     1       2.328   1.207  -0.014  0.00  0.00    -0.274 OA
ATOM      3  N   UNL     1       1.624   3.311   0.004  0.00  0.00    -0.278 N 
ATOM      4  H   UNL     1       0.779   4.014   0.016  0.00  0.00    +0.155 HD
ENDROOT
BRANCH   3   5
ATOM      5  C   UNL     1       2.925   3.791  -0.005  0.00  0.00    +0.084 A 
ATOM      6  C   UNL     1       3.357   5.106  -0.008  0.00  0.00    +0.068 A 
ATOM      7  C   UNL     1       4.800   5.345  -0.014  0.00  0.00    -0.023 A 
ATOM      8  C   UNL     1       5.562   4.237  -0.029  0.00  0.00    -0.004 A 
ATOM      9  S   UNL     1       4.404   2.891  -0.025  0.00  0.00    -0.077 S 
ATOM     10  C   UNL     1       7.031   4.563  -0.045  0.00  0.00    +0.043 C 
ATOM     11  C   UNL     1       7.096   6.045  -0.475  0.00  0.00    +0.010 C 
ATOM     12  C   UNL     1       5.720   6.566  -0.014  0.00  0.00    +0.037 C 
BRANCH   6  13
ATOM     13  C   UNL     1       2.402   6.219  -0.001  0.00  0.00    +0.244 C 
ATOM     14  O   UNL     1       2.014   6.681   1.056  0.00  0.00    -0.270 OA
ATOM     15  N   UNL     1       1.955   6.730  -1.164  0.00  0.00    -0.325 N 
ATOM     16  H   UNL     1       1.238   7.565  -1.159  0.00  0.00    +0.145 HD
ATOM     17  H   UNL     1       2.305   6.313  -2.120  0.00  0.00    +0.145 HD
ENDBRANCH   6  13
ENDBRANCH   3   5
BRANCH   1  18
ATOM     18  C   UNL     1      -0.018   1.461   0.010  0.00  0.00    +0.214 C 
BRANCH  18  23
ATOM     19  C   UNL     1      -1.207  -2.948   1.110  0.00  0.00    +0.047 C 
ATOM     20  C   UNL     1       0.037  -2.202   0.624  0.00  0.00    +0.135 C 
ATOM     21  C   UNL     1       0.023  -0.767   1.113  0.00  0.00    +0.251 C 
ATOM     22  O   UNL     1       0.030  -0.385   2.263  0.00  0.00    -0.272 OA
ATOM     23  N   UNL     1       0.002  -0.004   0.002  0.00  0.00    -0.215 N 
ATOM     24  C   UNL     1      -0.004  -0.750  -1.109  0.00  0.00    +0.310 C 
ATOM     25  O   UNL     1      -0.026  -0.287  -2.233  0.00  0.00    -0.252 OA
ATOM     26  N   UNL     1       0.021  -2.068  -0.843  0.00  0.00    -0.281 N 
ATOM     27  H   UNL     1       0.030  -2.967  -1.477  0.00  0.00    +0.152 HD
BRANCH  20  28
ATOM     28  C   UNL     1       1.290  -2.905   1.079  0.00  0.00    -0.016 A 
ATOM     29  C   UNL     1       1.903  -2.530   2.260  0.00  0.00    +0.006 A 
ATOM     30  C   UNL     1       3.050  -3.178   2.679  0.00  0.00    +0.000 A 
ATOM     31  C   UNL     1       3.590  -4.194   1.912  0.00  0.00    +0.000 A 
ATOM     32  C   UNL     1       2.980  -4.565   0.729  0.00  0.00    +0.000 A 
ATOM     33  C   UNL     1       1.830  -3.920   0.312  0.00  0.00    +0.006 A 
ENDBRANCH  20  28
ENDBRANCH  18  23
ENDBRANCH   1  18
TORSDOF 5
