REMARK  Name = ZINC50675516
REMARK  2 active torsions:
REMARK  status: ('A' for Active; 'I' for Inactive)
REMARK    1  A    between atoms: C_3  and  S_8
REMARK    2  A    between atoms: S_8  and  N_11
REMARK                            x       y       z     vdW  Elec       q    Type
REMARK                         _______ _______ _______ _____ _____    ______ ____
ROOT
ATOM      1  S   UNL     1       3.919   2.184  -0.024  0.00  0.00    +0.104 S 
ATOM      2  O   UNL     1       4.689   1.591  -1.060  0.00  0.00    -0.146 OA
ATOM      3  O   UNL     1       3.634   3.576   0.013  0.00  0.00    -0.146 OA
ENDROOT
BRANCH   1   6
ATOM      4  C   UNL     1      -0.017   1.376   0.010  0.00  0.00    +0.019 A 
ATOM      5  C   UNL     1       1.185   2.073   0.002  0.00  0.00    +0.034 A 
ATOM      6  C   UNL     1       2.365   1.353  -0.013  0.00  0.00    +0.150 A 
ATOM      7  C   UNL     1       2.310  -0.038  -0.020  0.00  0.00    +0.121 A 
ATOM      8  N   UNL     1       1.144  -0.665  -0.012  0.00  0.00    -0.348 N 
ATOM      9  C   UNL     1       0.002  -0.004   0.002  0.00  0.00    +0.084 A 
ATOM     10  N   UNL     1       3.489  -0.774  -0.036  0.00  0.00    -0.343 N 
ATOM     11  H   UNL     1       4.345  -0.319  -0.042  0.00  0.00    +0.144 HD
ATOM     12  H   UNL     1       3.455  -1.744  -0.041  0.00  0.00    +0.144 HD
ATOM     13  H   UNL     1       1.129  -1.635  -0.018  0.00  0.00    +0.167 HD
ENDBRANCH   1   6
BRANCH   1  14
ATOM     14  N   UNL     1       4.680   1.819   1.400  0.00  0.00    -0.103 NA
ATOM     15  C   UNL     1       5.867   2.312   1.654  0.00  0.00    +0.192 A 
ATOM     16  N   UNL     1       6.644   3.145   0.892  0.00  0.00    -0.336 N 
ATOM     17  C   UNL     1       7.887   3.550   1.361  0.00  0.00    +0.028 A 
ATOM     18  C   UNL     1       8.268   3.096   2.555  0.00  0.00    +0.012 A 
ATOM     19  S   UNL     1       6.903   2.088   3.091  0.00  0.00    -0.053 S 
ATOM     20  C   UNL     1       9.628   3.594   2.955  0.00  0.00    +0.044 C 
ATOM     21  C   UNL     1      10.255   4.105   1.639  0.00  0.00    +0.011 C 
ATOM     22  C   UNL     1       8.999   4.451   0.814  0.00  0.00    +0.054 C 
ATOM     23  H   UNL     1       6.327   3.450   0.027  0.00  0.00    +0.168 HD
ENDBRANCH   1  14
TORSDOF 2
