REMARK  Name = ZINC14661919
REMARK  10 active torsions:
REMARK  status: ('A' for Active; 'I' for Inactive)
REMARK    1  A    between atoms: C_1  and  O_2
REMARK    2  A    between atoms: O_2  and  C_3
REMARK    3  A    between atoms: C_3  and  C_4
REMARK    4  A    between atoms: C_4  and  O_5
REMARK    5  A    between atoms: O_5  and  C_6
REMARK    6  A    between atoms: C_9  and  C_13
REMARK    7  A    between atoms: N_15  and  C_16
REMARK    8  A    between atoms: C_16  and  N_18
REMARK    9  A    between atoms: N_18  and  C_19
REMARK   10  A    between atoms: C_20  and  C_28
REMARK                            x       y       z     vdW  Elec       q    Type
REMARK                         _______ _______ _______ _____ _____    ______ ____
ROOT
ATOM      1  C   UNL     1      -4.853   3.840   0.068  0.00  0.00    +0.141 C 
ATOM      2  S   UNL     1      -4.873   5.552   0.076  0.00  0.00    -0.018 S 
ENDROOT
BRANCH   1   5
ATOM      3  C   UNL     1      -2.519   3.867   0.045  0.00  0.00    +0.250 C 
ATOM      4  O   UNL     1      -2.533   5.083   0.051  0.00  0.00    -0.270 OA
ATOM      5  N   UNL     1      -3.678   3.180   0.053  0.00  0.00    -0.264 N 
ATOM      6  H   UNL     1      -3.667   2.210   0.049  0.00  0.00    +0.157 HD
BRANCH   3  10
ATOM      7  C   UNL     1       1.182   1.786   0.000  0.00  0.00    +0.135 A 
ATOM      8  C   UNL     1      -0.013   1.076   0.008  0.00  0.00    +0.047 A 
ATOM      9  C   UNL     1      -1.215   1.747   0.017  0.00  0.00    +0.017 A 
ATOM     10  C   UNL     1      -1.233   3.145   0.030  0.00  0.00    +0.038 A 
ATOM     11  C   UNL     1      -0.030   3.856   0.022  0.00  0.00    +0.032 A 
ATOM     12  C   UNL     1       1.169   3.177   0.007  0.00  0.00    +0.060 A 
ATOM     13 BR   UNL     1       2.798   4.137  -0.003  0.00  0.00    -0.046 Br
BRANCH   7  14
ATOM     14  O   UNL     1       2.365   1.121  -0.014  0.00  0.00    -0.489 OA
BRANCH  14  15
ATOM     15  C   UNL     1       2.306  -0.307  -0.021  0.00  0.00    +0.257 C 
BRANCH  15  16
ATOM     16  C   UNL     1       3.726  -0.876  -0.037  0.00  0.00    +0.200 C 
BRANCH  16  18
ATOM     17  C   UNL     1       5.733  -1.017   1.267  0.00  0.00    +0.194 C 
ATOM     18  O   UNL     1       4.392  -0.531   1.180  0.00  0.00    -0.380 OA
ENDBRANCH  16  18
ENDBRANCH  15  16
ENDBRANCH  14  15
ENDBRANCH   7  14
ENDBRANCH   3  10
ENDBRANCH   1   5
BRANCH   1  19
ATOM     19  N   UNL     1      -6.013   3.153   0.075  0.00  0.00    -0.291 N 
ATOM     20  H   UNL     1      -6.001   2.183   0.071  0.00  0.00    +0.154 HD
BRANCH  19  21
ATOM     21  C   UNL     1      -7.220   3.831   0.090  0.00  0.00    +0.084 A 
ATOM     22  C   UNL     1      -8.505   3.306   0.094  0.00  0.00    +0.068 A 
ATOM     23  C   UNL     1      -9.614   4.245   0.116  0.00  0.00    -0.023 A 
ATOM     24  C   UNL     1      -9.264   5.549   0.117  0.00  0.00    -0.004 A 
ATOM     25  S   UNL     1      -7.494   5.542   0.100  0.00  0.00    -0.077 S 
ATOM     26  C   UNL     1     -10.184   6.731   0.131  0.00  0.00    +0.043 C 
ATOM     27  C   UNL     1     -11.595   6.250  -0.236  0.00  0.00    +0.005 C 
ATOM     28  C   UNL     1     -11.926   5.009   0.598  0.00  0.00    +0.005 C 
ATOM     29  C   UNL     1     -11.079   3.825   0.128  0.00  0.00    +0.037 C 
BRANCH  22  30
ATOM     30  C   UNL     1      -8.734   1.858   0.082  0.00  0.00    +0.244 C 
ATOM     31  O   UNL     1      -8.822   1.247   1.131  0.00  0.00    -0.270 OA
ATOM     32  N   UNL     1      -8.848   1.204  -1.091  0.00  0.00    -0.325 N 
ATOM     33  H   UNL     1      -8.777   1.691  -1.927  0.00  0.00    +0.145 HD
ATOM     34  H   UNL     1      -8.999   0.246  -1.099  0.00  0.00    +0.145 HD
ENDBRANCH  22  30
ENDBRANCH  19  21
ENDBRANCH   1  19
TORSDOF 9
