REMARK  Name = ZINC52713594
REMARK  7 active torsions:
REMARK  status: ('A' for Active; 'I' for Inactive)
REMARK    1  A    between atoms: C_1  and  C_2
REMARK    2  A    between atoms: C_2  and  N_3
REMARK    3  A    between atoms: C_7  and  C_9
REMARK    4  A    between atoms: C_9  and  C_11
REMARK    5  A    between atoms: C_9  and  N_12
REMARK    6  A    between atoms: C_15  and  C_18
REMARK    7  A    between atoms: C_18  and  N_19
REMARK                            x       y       z     vdW  Elec       q    Type
REMARK                         _______ _______ _______ _____ _____    ______ ____
ROOT
ATOM      1  N   UNL     1       2.118  -5.666  -4.269  0.00  0.00    +0.387 N 
ATOM      2  C   UNL     1       2.772  -5.912  -2.978  0.00  0.00    -0.078 C 
ATOM      3  C   UNL     1       2.953  -7.418  -2.772  0.00  0.00    -0.017 C 
ATOM      4  C   UNL     1       3.820  -7.981  -3.902  0.00  0.00    -0.031 C 
ATOM      5  C   UNL     1       3.165  -7.654  -5.247  0.00  0.00    -0.017 C 
ATOM      6  C   UNL     1       2.976  -6.139  -5.361  0.00  0.00    -0.078 C 
ATOM      7  H   UNL     1       1.238  -6.159  -4.296  0.00  0.00    -0.081 HD
ENDROOT
BRANCH   1   8
ATOM      8  C   UNL     1       1.876  -4.226  -4.427  0.00  0.00    +0.017 C 
ATOM      9  C   UNL     1       1.265  -3.959  -5.804  0.00  0.00    -0.004 C 
BRANCH   8  14
ATOM     10  N   UNL     1       0.158  -0.777  -1.551  0.00  0.00    -0.299 N 
ATOM     11  C   UNL     1       0.117  -2.056  -1.975  0.00  0.00    +0.306 C 
ATOM     12  O   UNL     1      -0.688  -2.830  -1.494  0.00  0.00    -0.252 OA
ATOM     13  N   UNL     1       0.967  -2.477  -2.932  0.00  0.00    -0.242 N 
ATOM     14  C   UNL     1       0.925  -3.755  -3.356  0.00  0.00    +0.207 C 
ATOM     15  O   UNL     1       0.123  -4.527  -2.876  0.00  0.00    -0.277 OA
ATOM     16  H   UNL     1       0.800  -0.160  -1.935  0.00  0.00    +0.150 HD
ATOM     17  H   UNL     1       1.609  -1.859  -3.316  0.00  0.00    +0.159 HD
BRANCH  10  19
ATOM     18  C   UNL     1      -0.511   1.159  -0.216  0.00  0.00    +0.024 C 
ATOM     19  C   UNL     1      -0.766  -0.320  -0.510  0.00  0.00    +0.102 C 
ENDBRANCH  10  19
ENDBRANCH   8  14
ENDBRANCH   1   8
BRANCH   4  20
ATOM     20  C   UNL     1       3.939  -9.498  -3.747  0.00  0.00    -0.076 C 
BRANCH  20  21
ATOM     21  N   UNL     1       4.888 -10.019  -4.741  0.00  0.00    +0.380 N 
ATOM     22  C   UNL     1       4.805 -11.492  -4.748  0.00  0.00    -0.079 C 
ATOM     23  C   UNL     1       5.269 -11.986  -6.095  0.00  0.00    -0.019 C 
ATOM     24  C   UNL     1       6.755 -12.389  -6.066  0.00  0.00    -0.002 C 
ATOM     25  C   UNL     1       7.601 -11.396  -5.244  0.00  0.00    -0.002 C 
ATOM     26  C   UNL     1       7.207  -9.963  -5.491  0.00  0.00    -0.019 C 
ATOM     27  C   UNL     1       6.163  -9.538  -4.438  0.00  0.00    -0.079 C 
ATOM     28  H   UNL     1       4.621  -9.677  -5.652  0.00  0.00    -0.082 HD
ENDBRANCH  20  21
ENDBRANCH   4  20
TORSDOF 5
