REMARK  Name = ZINC55104275
REMARK  13 active torsions:
REMARK  status: ('A' for Active; 'I' for Inactive)
REMARK    1  A    between atoms: C_1  and  C_2
REMARK    2  A    between atoms: C_2  and  N_3
REMARK    3  A    between atoms: N_3  and  C_4
REMARK    4  A    between atoms: N_3  and  C_6
REMARK    5  A    between atoms: C_4  and  C_5
REMARK    6  A    between atoms: C_6  and  C_7
REMARK    7  A    between atoms: C_7  and  O_8
REMARK    8  A    between atoms: O_8  and  C_9
REMARK    9  A    between atoms: C_9  and  C_11
REMARK   10  A    between atoms: C_14  and  N_17
REMARK   11  A    between atoms: N_18  and  C_19
REMARK   12  A    between atoms: N_22  and  C_25
REMARK   13  A    between atoms: C_23  and  N_24
REMARK                            x       y       z     vdW  Elec       q    Type
REMARK                         _______ _______ _______ _____ _____    ______ ____
ROOT
ATOM      1  N   UNL     1      -6.551  -1.574  -7.082  0.00  0.00    -0.149 NA
ATOM      2  N   UNL     1      -7.801  -1.739  -7.353  0.00  0.00    -0.142 NA
ENDROOT
BRANCH   2   3
ATOM      3  C   UNL     1      -8.250  -1.544  -8.611  0.00  0.00    +0.166 A 
ATOM      4  C   UNL     1      -7.455  -1.151  -9.779  0.00  0.00    +0.168 A 
ATOM      5  N   UNL     1      -8.273  -1.072 -10.798  0.00  0.00    -0.148 NA
ATOM      6  N   UNL     1      -9.570  -1.388 -10.383  0.00  0.00    -0.215 N 
ATOM      7  C   UNL     1      -9.565  -1.680  -9.064  0.00  0.00    +0.149 A 
ATOM      8  N   UNL     1      -6.082  -0.907  -9.800  0.00  0.00    -0.340 N 
ATOM      9  H   UNL     1      -5.561  -0.994  -8.986  0.00  0.00    +0.144 HD
ATOM     10  H   UNL     1      -5.647  -0.652 -10.629  0.00  0.00    +0.144 HD
BRANCH   6  11
ATOM     11  C   UNL     1     -10.700  -1.406 -11.209  0.00  0.00    +0.068 A 
ATOM     12  C   UNL     1     -11.706  -2.338 -10.992  0.00  0.00    +0.028 A 
ATOM     13  C   UNL     1     -12.820  -2.353 -11.809  0.00  0.00    +0.002 A 
ATOM     14  C   UNL     1     -12.934  -1.440 -12.842  0.00  0.00    +0.000 A 
ATOM     15  C   UNL     1     -11.934  -0.510 -13.060  0.00  0.00    +0.002 A 
ATOM     16  C   UNL     1     -10.820  -0.487 -12.243  0.00  0.00    +0.028 A 
ENDBRANCH   6  11
BRANCH   7  17
ATOM     17  N   UNL     1     -10.658  -2.043  -8.303  0.00  0.00    -0.341 N 
ATOM     18  H   UNL     1     -10.550  -2.230  -7.357  0.00  0.00    +0.144 HD
ATOM     19  H   UNL     1     -11.534  -2.110  -8.714  0.00  0.00    +0.144 HD
ENDBRANCH   7  17
ENDBRANCH   2   3
BRANCH   1  23
ATOM     20  C   UNL     1      -5.178  -2.171  -3.232  0.00  0.00    +0.059 A 
ATOM     21  C   UNL     1      -4.287  -1.791  -4.241  0.00  0.00    +0.017 A 
ATOM     22  C   UNL     1      -4.741  -1.594  -5.514  0.00  0.00    +0.030 A 
ATOM     23  C   UNL     1      -6.097  -1.772  -5.809  0.00  0.00    +0.086 A 
ATOM     24  C   UNL     1      -6.988  -2.153  -4.800  0.00  0.00    +0.030 A 
ATOM     25  C   UNL     1      -6.533  -2.356  -3.528  0.00  0.00    +0.017 A 
BRANCH  20  26
ATOM     26  C   UNL     1      -4.688  -2.384  -1.857  0.00  0.00    +0.339 C 
ATOM     27  O   UNL     1      -5.439  -2.813  -1.004  0.00  0.00    -0.245 OA
BRANCH  26  28
ATOM     28  O   UNL     1      -3.407  -2.103  -1.548  0.00  0.00    -0.463 OA
BRANCH  28  29
ATOM     29  C   UNL     1      -2.970  -2.437  -0.229  0.00  0.00    +0.214 C 
BRANCH  29  30
ATOM     30  C   UNL     1      -1.535  -1.945  -0.027  0.00  0.00    -0.037 C 
BRANCH  30  31
ATOM     31  N   UNL     1      -1.509  -0.477  -0.078  0.00  0.00    +0.382 N 
ATOM     32  H   UNL     1      -1.933  -0.163  -0.938  0.00  0.00    -0.082 HD
BRANCH  31  34
ATOM     33  C   UNL     1      -2.337   1.589   0.944  0.00  0.00    -0.017 C 
ATOM     34  C   UNL     1      -2.257   0.065   1.064  0.00  0.00    -0.082 C 
ENDBRANCH  31  34
BRANCH  31  35
ATOM     35  C   UNL     1      -0.118  -0.010  -0.018  0.00  0.00    -0.082 C 
ATOM     36  C   UNL     1       0.627  -0.464  -1.275  0.00  0.00    -0.017 C 
ENDBRANCH  31  35
ENDBRANCH  30  31
ENDBRANCH  29  30
ENDBRANCH  28  29
ENDBRANCH  26  28
ENDBRANCH  20  26
ENDBRANCH   1  23
TORSDOF 11
