REMARK  Name = ZINC64137915
REMARK  9 active torsions:
REMARK  status: ('A' for Active; 'I' for Inactive)
REMARK    1  A    between atoms: C_7  and  C_10
REMARK    2  A    between atoms: C_10  and  C_11
REMARK    3  A    between atoms: C_11  and  N_12
REMARK    4  A    between atoms: C_13  and  C_15
REMARK    5  A    between atoms: C_15  and  S_16
REMARK    6  A    between atoms: S_16  and  C_17
REMARK    7  A    between atoms: C_20  and  S_23
REMARK    8  A    between atoms: S_23  and  C_24
REMARK    9  A    between atoms: C_24  and  C_25
REMARK                            x       y       z     vdW  Elec       q    Type
REMARK                         _______ _______ _______ _____ _____    ______ ____
ROOT
ATOM      1  N   UNL     1      -0.458  -4.798  -1.460  0.00  0.00    -0.314 N 
ATOM      2  C   UNL     1      -0.811  -5.380  -2.623  0.00  0.00    +0.223 C 
ATOM      3  O   UNL     1      -0.371  -4.957  -3.671  0.00  0.00    -0.275 OA
ATOM      4  H   UNL     1      -0.810  -5.136  -0.622  0.00  0.00    +0.149 HD
ENDROOT
BRANCH   1   5
ATOM      5  C   UNL     1       0.457  -3.653  -1.462  0.00  0.00    +0.108 C 
BRANCH   5   6
ATOM      6  C   UNL     1       0.691  -3.186  -0.024  0.00  0.00    +0.052 C 
BRANCH   6  13
ATOM      7  C   UNL     1      -0.016   1.348   0.009  0.00  0.00    +0.001 A 
ATOM      8  C   UNL     1       1.166   2.101   0.002  0.00  0.00    +0.002 A 
ATOM      9  C   UNL     1       2.391   1.535  -0.013  0.00  0.00    +0.026 A 
ATOM     10  C   UNL     1       2.529   0.120  -0.022  0.00  0.00    +0.043 A 
ATOM     11  N   UNL     1       3.587  -0.654  -0.037  0.00  0.00    -0.380 N 
ATOM     12  C   UNL     1       3.143  -2.053  -0.041  0.00  0.00    +0.144 C 
ATOM     13  C   UNL     1       1.631  -2.008  -0.025  0.00  0.00    -0.040 C 
ATOM     14  C   UNL     1       1.295  -0.698  -0.014  0.00  0.00    -0.001 A 
ATOM     15  C   UNL     1       0.002  -0.004   0.002  0.00  0.00    +0.010 A 
ATOM     16  H   UNL     1       4.509  -0.353  -0.045  0.00  0.00    +0.160 HD
ENDBRANCH   6  13
ENDBRANCH   5   6
ENDBRANCH   1   5
BRANCH   2  17
ATOM     17  C   UNL     1      -1.752  -6.557  -2.622  0.00  0.00    +0.172 C 
BRANCH  17  18
ATOM     18  S   UNL     1      -2.029  -7.112  -4.326  0.00  0.00    -0.088 S 
BRANCH  18  19
ATOM     19  C   UNL     1      -3.134  -8.474  -4.157  0.00  0.00    +0.151 C 
ATOM     20  N   UNL     1      -3.639  -8.963  -3.066  0.00  0.00    -0.172 NA
ATOM     21  N   UNL     1      -4.499 -10.038  -3.047  0.00  0.00    -0.244 N 
ATOM     22  C   UNL     1      -4.820 -10.613  -4.373  0.00  0.00    +0.211 C 
ATOM     23  S   UNL     1      -3.826  -9.496  -5.447  0.00  0.00    -0.063 S 
ATOM     24  H   UNL     1      -4.869 -10.393  -2.224  0.00  0.00    +0.170 HD
BRANCH  22  25
ATOM     25  S   UNL     1      -6.591 -10.472  -4.743  0.00  0.00    -0.117 S 
BRANCH  25  26
ATOM     26  C   UNL     1      -6.907  -8.686  -4.704  0.00  0.00    +0.167 C 
BRANCH  26  27
ATOM     27  C   UNL     1      -8.361  -8.427  -4.999  0.00  0.00    +0.220 C 
ATOM     28  O   UNL     1      -9.111  -9.355  -5.214  0.00  0.00    -0.275 OA
ATOM     29  N   UNL     1      -8.829  -7.163  -5.023  0.00  0.00    -0.329 N 
ATOM     30  H   UNL     1      -8.230  -6.420  -4.851  0.00  0.00    +0.145 HD
ATOM     31  H   UNL     1      -9.766  -6.996  -5.213  0.00  0.00    +0.145 HD
ENDBRANCH  26  27
ENDBRANCH  25  26
ENDBRANCH  22  25
ENDBRANCH  18  19
ENDBRANCH  17  18
ENDBRANCH   2  17
TORSDOF 9
