REMARK  Name = ZINC57380659
REMARK  7 active torsions:
REMARK  status: ('A' for Active; 'I' for Inactive)
REMARK    1  A    between atoms: C_1  and  C_2
REMARK    2  A    between atoms: C_2  and  C_4
REMARK    3  A    between atoms: C_2  and  N_10
REMARK    4  A    between atoms: N_10  and  C_11
REMARK    5  A    between atoms: C_11  and  C_12
REMARK    6  A    between atoms: N_14  and  C_15
REMARK    7  A    between atoms: C_16  and  C_24
REMARK                            x       y       z     vdW  Elec       q    Type
REMARK                         _______ _______ _______ _____ _____    ______ ____
ROOT
ATOM      1  C   UNL     1       0.504  -1.036  -3.564  0.00  0.00    +0.231 C 
ATOM      2  O   UNL     1       1.685  -1.300  -3.491  0.00  0.00    -0.274 OA
ATOM      3  N   UNL     1      -0.147  -1.179  -4.736  0.00  0.00    -0.278 N 
ATOM      4  H   UNL     1      -1.092  -0.967  -4.794  0.00  0.00    +0.155 HD
ENDROOT
BRANCH   3   5
ATOM      5  C   UNL     1       0.533  -1.628  -5.857  0.00  0.00    +0.084 A 
ATOM      6  C   UNL     1       0.033  -1.829  -7.134  0.00  0.00    +0.068 A 
ATOM      7  C   UNL     1       0.960  -2.311  -8.143  0.00  0.00    -0.023 A 
ATOM      8  C   UNL     1       2.217  -2.504  -7.689  0.00  0.00    -0.004 A 
ATOM      9  S   UNL     1       2.154  -2.049  -5.981  0.00  0.00    -0.077 S 
ATOM     10  C   UNL     1       3.393  -2.993  -8.478  0.00  0.00    +0.043 C 
ATOM     11  C   UNL     1       2.874  -3.602  -9.789  0.00  0.00    +0.005 C 
ATOM     12  C   UNL     1       1.874  -2.631 -10.425  0.00  0.00    +0.005 C 
ATOM     13  C   UNL     1       0.591  -2.585  -9.593  0.00  0.00    +0.037 C 
BRANCH   6  14
ATOM     14  C   UNL     1      -1.374  -1.565  -7.453  0.00  0.00    +0.244 C 
ATOM     15  O   UNL     1      -1.715  -0.462  -7.837  0.00  0.00    -0.270 OA
ATOM     16  N   UNL     1      -2.290  -2.546  -7.321  0.00  0.00    -0.325 N 
ATOM     17  H   UNL     1      -2.018  -3.425  -7.015  0.00  0.00    +0.145 HD
ATOM     18  H   UNL     1      -3.220  -2.372  -7.532  0.00  0.00    +0.145 HD
ENDBRANCH   6  14
ENDBRANCH   3   5
BRANCH   1  19
ATOM     19  C   UNL     1      -0.235  -0.547  -2.346  0.00  0.00    +0.178 C 
BRANCH  19  20
ATOM     20  N   UNL     1       0.690  -0.478  -1.207  0.00  0.00    -0.302 NA
ATOM     21  H   UNL     1       1.485   0.104  -1.422  0.00  0.00    +0.123 HD
BRANCH  20  23
ATOM     22  C   UNL     1      -0.019   1.526   0.010  0.00  0.00    +0.029 C 
ATOM     23  C   UNL     1       0.002  -0.004   0.002  0.00  0.00    +0.081 C 
BRANCH  23  24
ATOM     24  C   UNL     1       0.731  -0.503   1.223  0.00  0.00    -0.031 A 
ATOM     25  C   UNL     1       2.113  -0.514   1.247  0.00  0.00    +0.005 A 
ATOM     26  C   UNL     1       2.782  -0.972   2.366  0.00  0.00    +0.000 A 
ATOM     27  C   UNL     1       2.068  -1.419   3.463  0.00  0.00    +0.000 A 
ATOM     28  C   UNL     1       0.686  -1.407   3.439  0.00  0.00    +0.000 A 
ATOM     29  C   UNL     1       0.017  -0.945   2.321  0.00  0.00    +0.005 A 
ENDBRANCH  23  24
ENDBRANCH  20  23
ENDBRANCH  19  20
ENDBRANCH   1  19
TORSDOF 6
