REMARK  Name = ZINC65467078
REMARK  9 active torsions:
REMARK  status: ('A' for Active; 'I' for Inactive)
REMARK    1  A    between atoms: C_1  and  C_2
REMARK    2  A    between atoms: C_5  and  C_8
REMARK    3  A    between atoms: C_8  and  C_9
REMARK    4  A    between atoms: C_8  and  N_24
REMARK    5  A    between atoms: C_9  and  N_10
REMARK    6  A    between atoms: N_13  and  N_14
REMARK    7  A    between atoms: C_15  and  C_17
REMARK    8  A    between atoms: N_24  and  C_25
REMARK    9  A    between atoms: N_24  and  C_26
REMARK                            x       y       z     vdW  Elec       q    Type
REMARK                         _______ _______ _______ _____ _____    ______ ____
ROOT
ATOM      1  N   UNL     1      -1.116  -6.359   0.374  0.00  0.00    -0.299 N 
ATOM      2  C   UNL     1      -2.197  -7.131   0.595  0.00  0.00    +0.316 C 
ATOM      3  O   UNL     1      -3.280  -6.617   0.800  0.00  0.00    -0.251 OA
ATOM      4  N   UNL     1      -2.079  -8.474   0.587  0.00  0.00    -0.218 N 
ATOM      5  H   UNL     1      -0.252  -6.769   0.210  0.00  0.00    +0.150 HD
ATOM      6  H   UNL     1      -2.858  -9.030   0.746  0.00  0.00    +0.174 HD
ENDROOT
BRANCH   4   7
ATOM      7  N   UNL     1      -0.832  -9.066   0.350  0.00  0.00    -0.233 N 
ATOM      8  C   UNL     1      -0.714 -10.409   0.343  0.00  0.00    +0.234 C 
ATOM      9  O   UNL     1      -1.688 -11.104   0.541  0.00  0.00    -0.274 OA
ATOM     10  H   UNL     1      -0.053  -8.510   0.192  0.00  0.00    +0.173 HD
BRANCH   8  11
ATOM     11  C   UNL     1       0.627 -11.046   0.088  0.00  0.00    +0.099 C 
ATOM     12  C   UNL     1       1.133 -10.650  -1.309  0.00  0.00    +0.037 C 
ATOM     13  C   UNL     1       2.336 -11.540  -1.707  0.00  0.00    +0.166 C 
ATOM     14  S   UNL     1       2.013 -13.094  -0.778  0.00  0.00    -0.030 S 
ATOM     15  O   UNL     1       3.063 -13.301   0.157  0.00  0.00    -0.174 OA
ATOM     16  O   UNL     1       1.684 -14.124  -1.700  0.00  0.00    -0.174 OA
ATOM     17  C   UNL     1       0.491 -12.595   0.133  0.00  0.00    +0.178 C 
ENDBRANCH   8  11
ENDBRANCH   4   7
BRANCH   1  18
ATOM     18  C   UNL     1      -1.244  -4.899   0.382  0.00  0.00    +0.095 C 
BRANCH  18  19
ATOM     19  C   UNL     1       0.090  -4.268  -0.022  0.00  0.00    -0.021 C 
BRANCH  19  24
ATOM     20  C   UNL     1       1.299  -5.663  -5.498  0.00  0.00    +0.044 C 
ATOM     21  C   UNL     1       0.984  -5.299  -4.070  0.00  0.00    -0.050 A 
ATOM     22  C   UNL     1       1.585  -5.987  -3.032  0.00  0.00    +0.003 A 
ATOM     23  C   UNL     1       1.296  -5.653  -1.722  0.00  0.00    +0.002 A 
ATOM     24  C   UNL     1       0.406  -4.631  -1.450  0.00  0.00    -0.059 A 
ATOM     25  C   UNL     1      -0.195  -3.943  -2.487  0.00  0.00    +0.002 A 
ATOM     26  C   UNL     1       0.097  -4.274  -3.797  0.00  0.00    +0.003 A 
ENDBRANCH  19  24
BRANCH  19  27
ATOM     27  N   UNL     1      -0.002  -2.807   0.103  0.00  0.00    +0.382 N 
ATOM     28  C   UNL     1      -0.292  -2.452   1.498  0.00  0.00    -0.096 C 
ATOM     29  C   UNL     1       1.273  -2.200  -0.302  0.00  0.00    -0.096 C 
ATOM     30  H   UNL     1      -0.742  -2.465  -0.492  0.00  0.00    -0.082 HD
ENDBRANCH  19  27
ENDBRANCH  18  19
ENDBRANCH   1  18
TORSDOF 6
