REMARK  Name = ZINC39696082
REMARK  10 active torsions:
REMARK  status: ('A' for Active; 'I' for Inactive)
REMARK    1  A    between atoms: C_1  and  C_2
REMARK    2  A    between atoms: C_2  and  C_3
REMARK    3  A    between atoms: C_6  and  C_9
REMARK    4  A    between atoms: C_9  and  C_11
REMARK    5  A    between atoms: C_9  and  N_12
REMARK    6  A    between atoms: C_13  and  C_15
REMARK    7  A    between atoms: C_26  and  C_28
REMARK    8  A    between atoms: C_33  and  O_34
REMARK    9  A    between atoms: O_34  and  C_35
REMARK   10  A    between atoms: C_35  and  C_36
REMARK                            x       y       z     vdW  Elec       q    Type
REMARK                         _______ _______ _______ _____ _____    ______ ____
ROOT
ATOM      1  C   UNL     1       5.158  -4.798  -4.892  0.00  0.00    +0.100 C 
ATOM      2  C   UNL     1       6.531  -4.119  -4.690  0.00  0.00    +0.121 C 
ATOM      3  N   UNL     1       7.512  -5.092  -5.225  0.00  0.00    -0.296 N 
ATOM      4  C   UNL     1       6.860  -5.647  -6.435  0.00  0.00    +0.115 C 
ATOM      5  C   UNL     1       5.378  -5.800  -6.039  0.00  0.00    -0.004 C 
ATOM      6  C   UNL     1       4.478  -5.455  -7.221  0.00  0.00    -0.010 C 
ATOM      7  C   UNL     1       4.671  -6.498  -8.325  0.00  0.00    -0.082 C 
ATOM      8  N   UNL     1       4.341  -7.830  -7.806  0.00  0.00    +0.379 N 
ATOM      9  C   UNL     1       5.271  -8.193  -6.730  0.00  0.00    -0.082 C 
ATOM     10  C   UNL     1       5.103  -7.221  -5.558  0.00  0.00    -0.010 C 
ATOM     11  C   UNL     1       8.724  -5.403  -4.724  0.00  0.00    +0.250 C 
ATOM     12  O   UNL     1       9.083  -4.931  -3.663  0.00  0.00    -0.270 OA
ATOM     13  H   UNL     1       3.398  -7.825  -7.446  0.00  0.00    -0.086 HD
ATOM     14  H   UNL     1       4.410  -8.507  -8.551  0.00  0.00    -0.086 HD
ENDROOT
BRANCH  11  15
ATOM     15  C   UNL     1       9.616  -6.316  -5.464  0.00  0.00    +0.078 A 
ATOM     16  C   UNL     1       9.636  -6.300  -6.861  0.00  0.00    +0.017 A 
ATOM     17  C   UNL     1      10.471  -7.155  -7.546  0.00  0.00    +0.001 A 
ATOM     18  C   UNL     1      11.293  -8.031  -6.856  0.00  0.00    +0.004 A 
ATOM     19  C   UNL     1      11.284  -8.057  -5.476  0.00  0.00    +0.046 A 
ATOM     20  C   UNL     1      10.453  -7.200  -4.770  0.00  0.00    +0.133 A 
BRANCH  20  21
ATOM     21  O   UNL     1      10.447  -7.220  -3.413  0.00  0.00    -0.491 OA
BRANCH  21  22
ATOM     22  C   UNL     1      11.327  -8.148  -2.775  0.00  0.00    +0.226 C 
ATOM     23  C   UNL     1      11.181  -8.026  -1.257  0.00  0.00    +0.048 C 
ENDBRANCH  21  22
ENDBRANCH  20  21
ENDBRANCH  11  15
BRANCH   1  25
ATOM     24  N   UNL     1       2.811  -4.047  -5.104  0.00  0.00    -0.308 N 
ATOM     25  C   UNL     1       4.119  -3.777  -5.279  0.00  0.00    +0.219 C 
ATOM     26  O   UNL     1       4.461  -2.713  -5.749  0.00  0.00    -0.275 OA
ATOM     27  H   UNL     1       2.537  -4.899  -4.728  0.00  0.00    +0.149 HD
BRANCH  24  28
ATOM     28  C   UNL     1       1.801  -3.055  -5.480  0.00  0.00    +0.100 C 
ATOM     29  C   UNL     1       1.601  -2.068  -4.327  0.00  0.00    +0.033 C 
BRANCH  28  33
ATOM     30  C   UNL     1      -1.892  -5.030  -6.321  0.00  0.00    -0.048 A 
ATOM     31  C   UNL     1      -1.479  -3.972  -7.108  0.00  0.00    +0.004 A 
ATOM     32  C   UNL     1      -0.284  -3.333  -6.836  0.00  0.00    +0.006 A 
ATOM     33  C   UNL     1       0.498  -3.751  -5.776  0.00  0.00    -0.027 A 
ATOM     34  C   UNL     1       0.085  -4.809  -4.988  0.00  0.00    +0.006 A 
ATOM     35  C   UNL     1      -1.112  -5.446  -5.258  0.00  0.00    +0.004 A 
BRANCH  30  37
ATOM     36  C   UNL     1      -4.327  -5.041  -5.851  0.00  0.00    +0.009 C 
ATOM     37  C   UNL     1      -3.195  -5.728  -6.618  0.00  0.00    +0.032 C 
ENDBRANCH  30  37
ENDBRANCH  28  33
ENDBRANCH  24  28
ENDBRANCH   1  25
TORSDOF 7
