REMARK  Name = ZINC39695739
REMARK  10 active torsions:
REMARK  status: ('A' for Active; 'I' for Inactive)
REMARK    1  A    between atoms: C_1  and  C_2
REMARK    2  A    between atoms: C_9  and  C_11
REMARK    3  A    between atoms: C_11  and  C_13
REMARK    4  A    between atoms: C_11  and  N_14
REMARK    5  A    between atoms: C_15  and  C_17
REMARK    6  A    between atoms: C_28  and  C_30
REMARK    7  A    between atoms: C_33  and  O_38
REMARK    8  A    between atoms: C_35  and  O_36
REMARK    9  A    between atoms: O_36  and  C_37
REMARK   10  A    between atoms: O_38  and  C_39
REMARK                            x       y       z     vdW  Elec       q    Type
REMARK                         _______ _______ _______ _____ _____    ______ ____
ROOT
ATOM      1  C   UNL     1      -1.369  -9.267   0.725  0.00  0.00    +0.100 C 
ATOM      2  C   UNL     1      -2.599  -8.535   0.144  0.00  0.00    +0.121 C 
ATOM      3  N   UNL     1      -3.686  -9.542   0.184  0.00  0.00    -0.296 N 
ATOM      4  C   UNL     1      -3.483 -10.253   1.468  0.00  0.00    +0.115 C 
ATOM      5  C   UNL     1      -1.952 -10.393   1.594  0.00  0.00    -0.004 C 
ATOM      6  C   UNL     1      -1.502 -11.753   1.069  0.00  0.00    -0.010 C 
ATOM      7  C   UNL     1      -2.048 -12.854   1.983  0.00  0.00    -0.082 C 
ATOM      8  N   UNL     1      -1.556 -12.646   3.350  0.00  0.00    +0.379 N 
ATOM      9  C   UNL     1      -2.071 -11.378   3.881  0.00  0.00    -0.082 C 
ATOM     10  C   UNL     1      -1.525 -10.215   3.048  0.00  0.00    -0.010 C 
ATOM     11  C   UNL     1      -4.644  -9.761  -0.739  0.00  0.00    +0.250 C 
ATOM     12  O   UNL     1      -5.528 -10.566  -0.519  0.00  0.00    -0.270 OA
ATOM     13  H   UNL     1      -1.867 -13.406   3.937  0.00  0.00    -0.086 HD
ATOM     14  H   UNL     1      -0.547 -12.622   3.343  0.00  0.00    -0.086 HD
ENDROOT
BRANCH  11  15
ATOM     15  C   UNL     1      -4.619  -9.025  -2.015  0.00  0.00    +0.079 A 
ATOM     16  C   UNL     1      -4.174  -7.699  -2.053  0.00  0.00    +0.020 A 
ATOM     17  C   UNL     1      -4.152  -7.015  -3.246  0.00  0.00    +0.046 A 
ATOM     18  C   UNL     1      -4.571  -7.638  -4.418  0.00  0.00    +0.124 A 
ATOM     19  C   UNL     1      -5.014  -8.951  -4.392  0.00  0.00    +0.092 A 
ATOM     20  C   UNL     1      -5.035  -9.652  -3.199  0.00  0.00    +0.136 A 
BRANCH  20  21
ATOM     21  O   UNL     1      -5.463 -10.940  -3.172  0.00  0.00    -0.494 OA
ATOM     22  C   UNL     1      -5.872 -11.513  -4.416  0.00  0.00    +0.277 C 
ENDBRANCH  20  21
BRANCH  18  23
ATOM     23  O   UNL     1      -4.547  -6.955  -5.591  0.00  0.00    -0.495 OA
ATOM     24  C   UNL     1      -4.080  -5.606  -5.547  0.00  0.00    +0.277 C 
ENDBRANCH  18  23
ENDBRANCH  11  15
BRANCH   1  26
ATOM     25  N   UNL     1       0.781  -8.509   1.686  0.00  0.00    -0.305 N 
ATOM     26  C   UNL     1      -0.548  -8.325   1.569  0.00  0.00    +0.219 C 
ATOM     27  O   UNL     1      -1.085  -7.400   2.142  0.00  0.00    -0.275 OA
ATOM     28  H   UNL     1       1.211  -9.248   1.228  0.00  0.00    +0.149 HD
BRANCH  25  29
ATOM     29  C   UNL     1       1.578  -7.593   2.506  0.00  0.00    +0.136 C 
ATOM     30  C   UNL     1       1.535  -8.047   3.966  0.00  0.00    +0.036 C 
BRANCH  29  39
ATOM     31  C   UNL     1       8.685  -6.394   0.651  0.00  0.00    +0.044 C 
ATOM     32  C   UNL     1       7.334  -7.042   0.811  0.00  0.00    -0.048 A 
ATOM     33  C   UNL     1       7.116  -8.315   0.305  0.00  0.00    +0.005 A 
ATOM     34  C   UNL     1       5.898  -8.920   0.440  0.00  0.00    +0.030 A 
ATOM     35  C   UNL     1       4.859  -8.254   1.095  0.00  0.00    +0.089 A 
ATOM     36  C   UNL     1       5.080  -6.965   1.609  0.00  0.00    +0.067 A 
ATOM     37  C   UNL     1       6.325  -6.368   1.466  0.00  0.00    +0.031 A 
ATOM     38  N   UNL     1       3.888  -6.577   2.189  0.00  0.00    -0.340 N 
ATOM     39  C   UNL     1       3.005  -7.598   2.021  0.00  0.00    +0.128 A 
ATOM     40  N   UNL     1       3.572  -8.579   1.382  0.00  0.00    -0.231 NA
ATOM     41  H   UNL     1       3.714  -5.732   2.634  0.00  0.00    +0.167 HD
ENDBRANCH  29  39
ENDBRANCH  25  29
ENDBRANCH   1  26
TORSDOF 6
