REMARK  Name = ZINC21151927
REMARK  11 active torsions:
REMARK  status: ('A' for Active; 'I' for Inactive)
REMARK    1  A    between atoms: C_1  and  C_2
REMARK    2  A    between atoms: C_2  and  C_3
REMARK    3  A    between atoms: C_3  and  N_4
REMARK    4  A    between atoms: C_13  and  O_14
REMARK    5  A    between atoms: C_15  and  N_16
REMARK    6  A    between atoms: N_19  and  C_20
REMARK    7  A    between atoms: C_23  and  C_26
REMARK    8  A    between atoms: C_26  and  C_27
REMARK    9  A    between atoms: C_27  and  O_29
REMARK   10  A    between atoms: O_29  and  C_30
REMARK   11  A    between atoms: C_30  and  C_31
REMARK                            x       y       z     vdW  Elec       q    Type
REMARK                         _______ _______ _______ _____ _____    ______ ____
ROOT
ATOM      1  N   UNL     1      -0.413  -1.187   1.715  0.00  0.00    -0.262 N 
ATOM      2  C   UNL     1       0.058  -2.450   1.738  0.00  0.00    +0.308 C 
ATOM      3  O   UNL     1       0.848  -2.789   2.597  0.00  0.00    -0.252 OA
ATOM      4  N   UNL     1      -0.348  -3.337   0.808  0.00  0.00    -0.269 N 
ATOM      5  H   UNL     1      -1.201  -0.906   1.000  0.00  0.00    +0.157 HD
ATOM      6  H   UNL     1      -1.000  -3.011  -0.016  0.00  0.00    +0.156 HD
ENDROOT
BRANCH   1  17
ATOM      7  N   UNL     1       0.419   1.332   0.799  0.00  0.00    -0.382 N 
ATOM      8  C   UNL     1       0.509   1.010   2.140  0.00  0.00    +0.075 A 
ATOM      9  C   UNL     1       1.034   1.974   3.120  0.00  0.00    +0.042 A 
ATOM     10  C   UNL     1       1.458   3.244   2.722  0.00  0.00    +0.013 A 
ATOM     11  C   UNL     1       1.946   4.124   3.662  0.00  0.00    +0.001 A 
ATOM     12  C   UNL     1       2.016   3.754   4.997  0.00  0.00    +0.004 A 
ATOM     13  C   UNL     1       1.601   2.503   5.403  0.00  0.00    +0.047 A 
ATOM     14  C   UNL     1       1.105   1.600   4.471  0.00  0.00    +0.141 A 
ATOM     15  O   UNL     1       0.696   0.372   4.855  0.00  0.00    -0.424 OA
ATOM     16  C   UNL     1       0.214  -0.522   3.977  0.00  0.00    +0.309 A 
ATOM     17  C   UNL     1       0.102  -0.229   2.606  0.00  0.00    +0.140 A 
ATOM     18  H   UNL     1      -0.199   2.183   0.479  0.00  0.00    +0.160 HD
BRANCH  16  19
ATOM     19  O   UNL     1      -0.141  -1.617   4.380  0.00  0.00    -0.479 OA
ATOM     20  H   UNL     1      -0.538  -2.361   3.674  0.00  0.00    +0.295 HD
ENDBRANCH  16  19
BRANCH   7  21
ATOM     21  C   UNL     1       1.222   0.413  -0.018  0.00  0.00    +0.112 C 
BRANCH  21  23
ATOM     22  C   UNL     1       1.935  -0.156  -2.344  0.00  0.00    +0.005 C 
ATOM     23  C   UNL     1       1.098   0.800  -1.493  0.00  0.00    +0.017 C 
ENDBRANCH  21  23
ENDBRANCH   7  21
ENDBRANCH   1  17
BRANCH   4  24
ATOM     24  C   UNL     1       0.060  -4.673   0.890  0.00  0.00    +0.035 A 
ATOM     25  C   UNL     1       1.331  -4.985   1.357  0.00  0.00    +0.023 A 
ATOM     26  C   UNL     1       1.729  -6.304   1.442  0.00  0.00    +0.006 A 
ATOM     27  C   UNL     1       0.869  -7.314   1.051  0.00  0.00    -0.037 A 
ATOM     28  C   UNL     1      -0.395  -7.007   0.580  0.00  0.00    +0.006 A 
ATOM     29  C   UNL     1      -0.801  -5.689   0.498  0.00  0.00    +0.023 A 
BRANCH  27  30
ATOM     30  C   UNL     1       1.309  -8.753   1.139  0.00  0.00    +0.155 C 
BRANCH  30  31
ATOM     31  C   UNL     1       1.967  -9.156  -0.155  0.00  0.00    +0.311 C 
ATOM     32  O   UNL     1       2.069  -8.358  -1.056  0.00  0.00    -0.250 OA
BRANCH  31  33
ATOM     33  O   UNL     1       2.441 -10.403  -0.306  0.00  0.00    -0.465 OA
BRANCH  33  34
ATOM     34  C   UNL     1       3.063 -10.722  -1.579  0.00  0.00    +0.229 C 
ATOM     35  C   UNL     1       3.538 -12.176  -1.565  0.00  0.00    +0.048 C 
ENDBRANCH  33  34
ENDBRANCH  31  33
ENDBRANCH  30  31
ENDBRANCH  27  30
ENDBRANCH   4  24
TORSDOF 9
