REMARK  Name = ZINC21158633
REMARK  4 active torsions:
REMARK  status: ('A' for Active; 'I' for Inactive)
REMARK    1  A    between atoms: C_1  and  C_2
REMARK    2  A    between atoms: C_2  and  C_4
REMARK    3  A    between atoms: C_2  and  N_14
REMARK    4  A    between atoms: C_15  and  C_17
REMARK                            x       y       z     vdW  Elec       q    Type
REMARK                         _______ _______ _______ _____ _____    ______ ____
ROOT
ATOM      1  C   UNL     1      -6.653  -0.158  -2.322  0.00  0.00    +0.078 C 
ATOM      2  C   UNL     1      -7.372   0.948  -1.545  0.00  0.00    +0.032 C 
ATOM      3  C   UNL     1      -8.423   1.598  -2.448  0.00  0.00    +0.108 C 
ATOM      4  N   UNL     1      -9.384   0.582  -2.896  0.00  0.00    -0.303 N 
ATOM      5  C   UNL     1      -8.722  -0.465  -3.685  0.00  0.00    +0.108 C 
ATOM      6  C   UNL     1      -7.682  -1.178  -2.818  0.00  0.00    +0.032 C 
ATOM      7  C   UNL     1     -10.417   1.157  -3.605  0.00  0.00    +0.174 A 
ATOM      8  N   UNL     1     -11.223   2.159  -3.145  0.00  0.00    -0.327 N 
ATOM      9  H   UNL     1     -11.071   2.567  -2.135  0.00  0.00    +0.169 HD
ATOM     10  C   UNL     1     -12.127   2.454  -4.152  0.00  0.00    +0.065 A 
ATOM     11  C   UNL     1     -13.169   3.361  -4.273  0.00  0.00    +0.028 A 
ATOM     12  C   UNL     1     -13.904   3.411  -5.440  0.00  0.00    +0.002 A 
ATOM     13  C   UNL     1     -13.606   2.561  -6.495  0.00  0.00    +0.002 A 
ATOM     14  C   UNL     1     -12.575   1.655  -6.392  0.00  0.00    +0.028 A 
ATOM     15  C   UNL     1     -11.822   1.591  -5.217  0.00  0.00    +0.065 A 
ATOM     16  N   UNL     1     -10.767   0.829  -4.824  0.00  0.00    -0.327 N 
ATOM     17  H   UNL     1     -10.220   0.038  -5.359  0.00  0.00    +0.169 HD
ENDROOT
BRANCH   1  19
ATOM     18  N   UNL     1      -4.657  -0.137  -0.860  0.00  0.00    -0.309 N 
ATOM     19  C   UNL     1      -5.660  -0.844  -1.419  0.00  0.00    +0.217 C 
ATOM     20  O   UNL     1      -5.762  -2.031  -1.195  0.00  0.00    -0.275 OA
ATOM     21  H   UNL     1      -4.564   0.940  -1.063  0.00  0.00    +0.149 HD
BRANCH  18  23
ATOM     22  C   UNL     1      -4.250  -0.858   1.441  0.00  0.00    +0.033 C 
ATOM     23  C   UNL     1      -3.692  -0.803   0.018  0.00  0.00    +0.100 C 
BRANCH  23  24
ATOM     24  C   UNL     1      -2.397  -0.033   0.016  0.00  0.00    -0.024 A 
ATOM     25  C   UNL     1      -2.415   1.349   0.025  0.00  0.00    +0.009 A 
ATOM     26  C   UNL     1      -1.229   2.059   0.019  0.00  0.00    +0.050 A 
ATOM     27  C   UNL     1      -0.017   1.385   0.010  0.00  0.00    +0.162 A 
ATOM     28  C   UNL     1       0.002  -0.004   0.002  0.00  0.00    +0.162 A 
ATOM     29  C   UNL     1      -1.192  -0.710   0.004  0.00  0.00    +0.055 A 
ATOM     30  O   UNL     1       1.181  -0.685  -0.007  0.00  0.00    -0.485 OA
ATOM     31  C   UNL     1       2.347   0.053  -0.387  0.00  0.00    +0.270 C 
ATOM     32  C   UNL     1       2.334   1.392   0.364  0.00  0.00    +0.270 C 
ATOM     33  O   UNL     1       1.143   2.098   0.002  0.00  0.00    -0.485 OA
ENDBRANCH  23  24
ENDBRANCH  18  23
ENDBRANCH   1  19
TORSDOF 3
