REMARK  Name = ZINC63311716
REMARK  13 active torsions:
REMARK  status: ('A' for Active; 'I' for Inactive)
REMARK    1  A    between atoms: C_1  and  C_2
REMARK    2  A    between atoms: C_2  and  O_3
REMARK    3  A    between atoms: O_3  and  C_4
REMARK    4  A    between atoms: C_8  and  C_10
REMARK    5  A    between atoms: C_10  and  C_11
REMARK    6  A    between atoms: C_10  and  N_12
REMARK    7  A    between atoms: N_12  and  C_13
REMARK    8  A    between atoms: C_13  and  C_14
REMARK    9  A    between atoms: C_13  and  C_15
REMARK   10  A    between atoms: C_15  and  C_17
REMARK   11  A    between atoms: C_18  and  N_27
REMARK   12  A    between atoms: N_19  and  C_26
REMARK   13  A    between atoms: N_22  and  C_25
REMARK                            x       y       z     vdW  Elec       q    Type
REMARK                         _______ _______ _______ _____ _____    ______ ____
ROOT
ATOM      1  C   UNL     1      -5.741  -6.020  -1.006  0.00  0.00    -0.001 C 
ATOM      2  C   UNL     1      -6.629  -4.984  -1.699  0.00  0.00    -0.006 C 
ENDROOT
BRANCH   1   3
ATOM      3  N   UNL     1      -4.368  -5.504  -0.913  0.00  0.00    +0.390 N 
ATOM      4  H   UNL     1      -4.043  -5.246  -1.833  0.00  0.00    -0.084 HD
ATOM      5  H   UNL     1      -3.766  -6.218  -0.531  0.00  0.00    -0.084 HD
BRANCH   3   6
ATOM      6  C   UNL     1      -4.347  -4.325  -0.037  0.00  0.00    -0.043 C 
ATOM      7  C   UNL     1      -4.721  -4.741   1.387  0.00  0.00    -0.009 C 
BRANCH   6  12
ATOM      8  C   UNL     1      -1.538  -1.798  -0.056  0.00  0.00    +0.121 A 
ATOM      9  C   UNL     1      -0.424  -2.625  -0.042  0.00  0.00    +0.045 A 
ATOM     10  C   UNL     1      -0.585  -3.997  -0.025  0.00  0.00    +0.004 A 
ATOM     11  C   UNL     1      -1.854  -4.546  -0.024  0.00  0.00    +0.002 A 
ATOM     12  C   UNL     1      -2.965  -3.724  -0.039  0.00  0.00    -0.058 A 
ATOM     13  C   UNL     1      -2.810  -2.351  -0.049  0.00  0.00    +0.047 A 
BRANCH   8  14
ATOM     14  O   UNL     1      -1.383  -0.448  -0.072  0.00  0.00    -0.492 OA
BRANCH  14  16
ATOM     15  C   UNL     1      -0.069   1.581  -0.096  0.00  0.00    +0.048 C 
ATOM     16  C   UNL     1      -0.043   0.051  -0.079  0.00  0.00    +0.225 C 
ENDBRANCH  14  16
ENDBRANCH   8  14
ENDBRANCH   6  12
ENDBRANCH   3   6
ENDBRANCH   1   3
BRANCH   1  17
ATOM     17  C   UNL     1      -5.744  -7.299  -1.804  0.00  0.00    +0.158 C 
ATOM     18  O   UNL     1      -4.777  -7.598  -2.475  0.00  0.00    -0.294 OA
BRANCH  17  19
ATOM     19  C   UNL     1      -6.870  -8.149  -1.770  0.00  0.00    +0.118 A 
ATOM     20  C   UNL     1      -6.949  -9.281  -2.598  0.00  0.00    +0.116 A 
ATOM     21  N   UNL     1      -8.059 -10.074  -2.529  0.00  0.00    -0.284 N 
ATOM     22  C   UNL     1      -9.068  -9.791  -1.690  0.00  0.00    +0.333 A 
ATOM     23  O   UNL     1     -10.034 -10.528  -1.667  0.00  0.00    -0.246 OA
ATOM     24  N   UNL     1      -9.048  -8.723  -0.876  0.00  0.00    -0.263 N 
ATOM     25  C   UNL     1      -7.994  -7.881  -0.864  0.00  0.00    +0.269 A 
ATOM     26  O   UNL     1      -7.978  -6.917  -0.121  0.00  0.00    -0.267 OA
ATOM     27  C   UNL     1     -10.184  -8.473   0.015  0.00  0.00    +0.157 C 
ATOM     28  C   UNL     1      -8.151 -11.257  -3.388  0.00  0.00    +0.155 C 
BRANCH  20  29
ATOM     29  N   UNL     1      -5.936  -9.583  -3.455  0.00  0.00    -0.344 N 
ATOM     30  H   UNL     1      -5.119  -9.060  -3.444  0.00  0.00    +0.144 HD
ATOM     31  H   UNL     1      -6.031 -10.322  -4.077  0.00  0.00    +0.144 HD
ENDBRANCH  20  29
ENDBRANCH  17  19
ENDBRANCH   1  17
TORSDOF 8
