REMARK  Name = ZINC04891177
REMARK  9 active torsions:
REMARK  status: ('A' for Active; 'I' for Inactive)
REMARK    1  A    between atoms: C_1  and  C_2
REMARK    2  A    between atoms: C_2  and  N_50
REMARK    3  A    between atoms: C_8  and  N_13
REMARK    4  A    between atoms: C_9  and  C_10
REMARK    5  A    between atoms: N_13  and  C_14
REMARK    6  A    between atoms: C_14  and  N_16
REMARK    7  A    between atoms: C_17  and  C_19
REMARK    8  A    between atoms: C_22  and  O_25
REMARK    9  A    between atoms: O_25  and  C_26
REMARK                            x       y       z     vdW  Elec       q    Type
REMARK                         _______ _______ _______ _____ _____    ______ ____
ROOT
ATOM      1  C   UNL     1       4.955 -10.869   0.339  0.00  0.00    -0.074 C 
ATOM      2  C   UNL     1       5.586  -9.544  -0.099  0.00  0.00    +0.018 C 
ATOM      3  C   UNL     1       4.501  -8.474  -0.085  0.00  0.00    -0.027 A 
ATOM      4  C   UNL     1       3.196  -8.831  -0.075  0.00  0.00    -0.021 A 
ATOM      5  S   UNL     1       2.310  -7.300  -0.058  0.00  0.00    -0.079 S 
ATOM      6  C   UNL     1       3.650  -6.201  -0.065  0.00  0.00    +0.084 A 
ATOM      7  C   UNL     1       4.753  -7.045  -0.086  0.00  0.00    +0.068 A 
ATOM      8  C   UNL     1       2.657 -10.226  -0.079  0.00  0.00    -0.035 C 
ATOM      9  N   UNL     1       3.757 -11.137  -0.482  0.00  0.00    +0.383 N 
ATOM     10  H   UNL     1       3.984 -10.970  -1.469  0.00  0.00    -0.081 HD
ENDROOT
BRANCH   7  11
ATOM     11  C   UNL     1       6.119  -6.513  -0.104  0.00  0.00    +0.244 C 
ATOM     12  O   UNL     1       6.702  -6.298   0.943  0.00  0.00    -0.270 OA
ATOM     13  N   UNL     1       6.729  -6.263  -1.279  0.00  0.00    -0.325 N 
ATOM     14  H   UNL     1       6.264  -6.434  -2.113  0.00  0.00    +0.145 HD
ATOM     15  H   UNL     1       7.632  -5.911  -1.291  0.00  0.00    +0.145 HD
ENDBRANCH   7  11
BRANCH   9  17
ATOM     16  C   UNL     1       3.089 -12.859   1.160  0.00  0.00    -0.017 C 
ATOM     17  C   UNL     1       3.334 -12.544  -0.317  0.00  0.00    -0.082 C 
ENDBRANCH   9  17
BRANCH   6  18
ATOM     18  N   UNL     1       3.627  -4.815  -0.058  0.00  0.00    -0.291 N 
ATOM     19  H   UNL     1       4.459  -4.316  -0.063  0.00  0.00    +0.154 HD
BRANCH  18  20
ATOM     20  C   UNL     1       2.449  -4.161  -0.043  0.00  0.00    +0.141 C 
ATOM     21  S   UNL     1       0.981  -5.042  -0.033  0.00  0.00    -0.018 S 
BRANCH  20  22
ATOM     22  N   UNL     1       2.426  -2.814  -0.036  0.00  0.00    -0.264 N 
ATOM     23  C   UNL     1       1.248  -2.159  -0.021  0.00  0.00    +0.250 C 
ATOM     24  O   UNL     1       0.205  -2.785  -0.014  0.00  0.00    -0.270 OA
ATOM     25  H   UNL     1       3.258  -2.314  -0.041  0.00  0.00    +0.157 HD
BRANCH  23  26
ATOM     26  C   UNL     1       1.223  -0.684  -0.013  0.00  0.00    +0.037 A 
ATOM     27  C   UNL     1       0.002  -0.004   0.002  0.00  0.00    +0.016 A 
ATOM     28  C   UNL     1      -0.017   1.373   0.010  0.00  0.00    +0.046 A 
ATOM     29  C   UNL     1       1.177   2.086   0.002  0.00  0.00    +0.120 A 
ATOM     30  C   UNL     1       2.393   1.413  -0.013  0.00  0.00    +0.046 A 
ATOM     31  C   UNL     1       2.420   0.037  -0.021  0.00  0.00    +0.016 A 
BRANCH  29  32
ATOM     32  O   UNL     1       1.154   3.443   0.009  0.00  0.00    -0.495 OA
ATOM     33  C   UNL     1       2.416   4.113   0.001  0.00  0.00    +0.277 C 
ENDBRANCH  29  32
ENDBRANCH  23  26
ENDBRANCH  20  22
ENDBRANCH  18  20
ENDBRANCH   6  18
TORSDOF 7
