REMARK  Name = ZINC34748207
REMARK  4 active torsions:
REMARK  status: ('A' for Active; 'I' for Inactive)
REMARK    1  A    between atoms: C_1  and  N_2
REMARK    2  A    between atoms: N_15  and  C_18
REMARK    3  A    between atoms: C_18  and  C_19
REMARK    4  A    between atoms: N_21  and  C_22
REMARK                            x       y       z     vdW  Elec       q    Type
REMARK                         _______ _______ _______ _____ _____    ______ ____
ROOT
ATOM      1  C   UNL     1       1.619  -2.237   2.142  0.00  0.00    +0.155 C 
ATOM      2  N   UNL     1       0.734  -1.863   1.035  0.00  0.00    -0.283 N 
ATOM      3  C   UNL     1       0.814  -2.534  -0.129  0.00  0.00    +0.264 A 
ATOM      4  O   UNL     1       1.613  -3.444  -0.266  0.00  0.00    -0.267 OA
ATOM      5  C   UNL     1      -0.055  -2.162  -1.203  0.00  0.00    +0.076 A 
ATOM      6  C   UNL     1      -0.138  -2.754  -2.548  0.00  0.00    -0.023 A 
ATOM      7  C   UNL     1      -1.041  -2.226  -3.389  0.00  0.00    -0.004 A 
ATOM      8  S   UNL     1      -1.832  -0.931  -2.463  0.00  0.00    -0.073 S 
ATOM      9  C   UNL     1      -0.936  -1.103  -0.942  0.00  0.00    +0.117 A 
ATOM     10  N   UNL     1      -0.964  -0.480   0.232  0.00  0.00    -0.208 NA
ATOM     11  C   UNL     1      -0.158  -0.846   1.207  0.00  0.00    +0.202 A 
ATOM     12  N   UNL     1      -0.212  -0.190   2.411  0.00  0.00    -0.304 N 
ATOM     13  C   UNL     1      -0.412   1.267   2.471  0.00  0.00    +0.089 C 
ATOM     14  C   UNL     1      -1.554   1.560   3.449  0.00  0.00    -0.059 C 
ATOM     15  N   UNL     1      -1.260   0.935   4.745  0.00  0.00    +0.387 N 
ATOM     16  C   UNL     1      -1.230  -0.525   4.600  0.00  0.00    -0.059 C 
ATOM     17  C   UNL     1      -0.077  -0.923   3.679  0.00  0.00    +0.089 C 
ATOM     18  C   UNL     1      -1.033  -2.905  -4.733  0.00  0.00    +0.043 C 
ATOM     19  C   UNL     1       0.310  -3.666  -4.773  0.00  0.00    +0.010 C 
ATOM     20  C   UNL     1       0.589  -3.890  -3.274  0.00  0.00    +0.037 C 
ATOM     21  H   UNL     1      -0.364   1.258   5.077  0.00  0.00    -0.081 HD
ENDROOT
BRANCH  15  22
ATOM     22  C   UNL     1      -2.300   1.308   5.713  0.00  0.00    +0.019 C 
BRANCH  22  23
ATOM     23  C   UNL     1      -1.937   0.770   7.073  0.00  0.00    +0.201 C 
ATOM     24  O   UNL     1      -0.912   0.138   7.221  0.00  0.00    -0.278 OA
ATOM     25  N   UNL     1      -2.750   0.991   8.125  0.00  0.00    -0.287 N 
ATOM     26  H   UNL     1      -3.604   1.431   7.993  0.00  0.00    +0.155 HD
BRANCH  25  27
ATOM     27  C   UNL     1      -2.362   0.586   9.407  0.00  0.00    +0.033 A 
ATOM     28  C   UNL     1      -1.014   0.483   9.726  0.00  0.00    +0.024 A 
ATOM     29  C   UNL     1      -0.634   0.083  10.992  0.00  0.00    +0.017 A 
ATOM     30  C   UNL     1      -1.594  -0.215  11.942  0.00  0.00    +0.018 A 
ATOM     31  C   UNL     1      -2.938  -0.114  11.627  0.00  0.00    +0.017 A 
ATOM     32  C   UNL     1      -3.323   0.290  10.364  0.00  0.00    +0.024 A 
ATOM     33 BR   UNL     1      -1.069  -0.763  13.674  0.00  0.00    -0.050 Br
ENDBRANCH  25  27
ENDBRANCH  22  23
ENDBRANCH  15  22
TORSDOF 3
