REMARK  Name = ZINC22055034
REMARK  11 active torsions:
REMARK  status: ('A' for Active; 'I' for Inactive)
REMARK    1  A    between atoms: C_1  and  C_2
REMARK    2  A    between atoms: C_2  and  C_3
REMARK    3  A    between atoms: C_2  and  C_4
REMARK    4  A    between atoms: C_2  and  O_24
REMARK    5  A    between atoms: C_4  and  O_6
REMARK    6  A    between atoms: O_6  and  C_7
REMARK    7  A    between atoms: C_9  and  O_23
REMARK    8  A    between atoms: C_11  and  O_22
REMARK    9  A    between atoms: C_13  and  O_21
REMARK   10  A    between atoms: C_15  and  C_18
REMARK   11  A    between atoms: O_24  and  C_25
REMARK                            x       y       z     vdW  Elec       q    Type
REMARK                         _______ _______ _______ _____ _____    ______ ____
ROOT
ATOM      1  C   UNL     1       0.420   0.828   0.844  0.00  0.00    +0.343 C 
ATOM      2  C   UNL     1      -0.008   1.297   2.237  0.00  0.00    +0.214 C 
ATOM      3  C   UNL     1      -1.375   0.694   2.572  0.00  0.00    +0.180 C 
ATOM      4  C   UNL     1      -2.379   1.099   1.489  0.00  0.00    +0.186 C 
ATOM      5  C   UNL     1      -1.860   0.637   0.125  0.00  0.00    +0.266 C 
ATOM      6  O   UNL     1      -0.572   1.210  -0.112  0.00  0.00    -0.322 OA
ENDROOT
BRANCH   5   7
ATOM      7  C   UNL     1      -2.814   1.083  -0.953  0.00  0.00    +0.387 C 
ATOM      8  O   UNL     1      -2.456   1.886  -1.782  0.00  0.00    -0.243 OA
ATOM      9  O   UNL     1      -4.061   0.589  -0.992  0.00  0.00    -0.243 OA
ENDBRANCH   5   7
BRANCH   4  10
ATOM     10  O   UNL     1      -2.532   2.519   1.486  0.00  0.00    -0.386 OA
ATOM     11  H   UNL     1      -3.217   2.998   0.771  0.00  0.00    +0.210 HD
ENDBRANCH   4  10
BRANCH   3  12
ATOM     12  O   UNL     1      -1.270  -0.731   2.621  0.00  0.00    -0.386 OA
ATOM     13  H   UNL     1      -2.157  -1.340   2.850  0.00  0.00    +0.210 HD
ENDBRANCH   3  12
BRANCH   2  14
ATOM     14  O   UNL     1       0.954   0.866   3.202  0.00  0.00    -0.383 OA
ATOM     15  H   UNL     1       0.815   1.112   4.265  0.00  0.00    +0.210 HD
ENDBRANCH   2  14
BRANCH   1  16
ATOM     16  O   UNL     1       1.689   1.441   0.495  0.00  0.00    -0.429 OA
BRANCH  16  17
ATOM     17  C   UNL     1       2.257   1.053  -0.658  0.00  0.00    +0.353 C 
ATOM     18  O   UNL     1       1.711   0.228  -1.353  0.00  0.00    -0.246 OA
BRANCH  17  20
ATOM     19  C   UNL     1       3.427   3.161  -1.238  0.00  0.00    +0.067 C 
ATOM     20  C   UNL     1       3.575   1.645  -1.086  0.00  0.00    +0.201 C 
ATOM     21  C   UNL     1       4.638   1.340  -0.029  0.00  0.00    +0.067 C 
BRANCH  20  22
ATOM     22  O   UNL     1       3.969   1.077  -2.337  0.00  0.00    -0.475 OA
BRANCH  22  23
ATOM     23  C   UNL     1       3.135   1.269  -3.392  0.00  0.00    +0.122 A 
ATOM     24  C   UNL     1       1.908   1.889  -3.204  0.00  0.00    +0.047 A 
ATOM     25  C   UNL     1       1.063   2.088  -4.279  0.00  0.00    +0.023 A 
ATOM     26  C   UNL     1       1.435   1.659  -5.541  0.00  0.00    +0.041 A 
ATOM     27  C   UNL     1       2.656   1.036  -5.729  0.00  0.00    +0.023 A 
ATOM     28  C   UNL     1       3.506   0.840  -4.658  0.00  0.00    +0.047 A 
ATOM     29 CL   UNL     1       0.369   1.904  -6.889  0.00  0.00    -0.084 Cl
ENDBRANCH  22  23
ENDBRANCH  20  22
ENDBRANCH  17  20
ENDBRANCH  16  17
ENDBRANCH   1  16
TORSDOF 9
