REMARK  Name = ZINC07912373
REMARK  8 active torsions:
REMARK  status: ('A' for Active; 'I' for Inactive)
REMARK    1  A    between atoms: C_1  and  C_2
REMARK    2  A    between atoms: C_2  and  C_4
REMARK    3  A    between atoms: C_2  and  N_54
REMARK    4  A    between atoms: N_9  and  C_10
REMARK    5  A    between atoms: C_16  and  N_54
REMARK    6  A    between atoms: C_17  and  C_18
REMARK    7  A    between atoms: C_17  and  N_54
REMARK    8  A    between atoms: N_20  and  C_21
REMARK                            x       y       z     vdW  Elec       q    Type
REMARK                         _______ _______ _______ _____ _____    ______ ____
ROOT
ATOM      1  C   UNL     1       6.506   1.285  -0.175  0.00  0.00    -0.004 C 
ATOM      2  C   UNL     1       5.990   1.226   1.264  0.00  0.00    +0.017 C 
ENDROOT
BRANCH   2   3
ATOM      3  C   UNL     1       4.577   0.702   1.271  0.00  0.00    +0.207 C 
ATOM      4  O   UNL     1       4.310  -0.315   1.875  0.00  0.00    -0.277 OA
ATOM      5  N   UNL     1       3.610   1.364   0.605  0.00  0.00    -0.242 N 
ATOM      6  C   UNL     1       2.346   0.896   0.611  0.00  0.00    +0.306 C 
ATOM      7  O   UNL     1       2.079  -0.124   1.216  0.00  0.00    -0.252 OA
ATOM      8  N   UNL     1       1.379   1.558  -0.055  0.00  0.00    -0.296 N 
ATOM      9  H   UNL     1       3.823   2.178   0.122  0.00  0.00    +0.159 HD
ATOM     10  H   UNL     1       1.593   2.371  -0.538  0.00  0.00    +0.151 HD
BRANCH   8  11
ATOM     11  C   UNL     1       0.005   1.048  -0.049  0.00  0.00    +0.074 C 
ATOM     12  C   UNL     1      -0.718   1.548   1.204  0.00  0.00    +0.022 C 
ATOM     13  C   UNL     1      -2.153   1.016   1.210  0.00  0.00    +0.002 C 
ATOM     14  C   UNL     1      -2.887   1.515  -0.036  0.00  0.00    +0.000 C 
ATOM     15  C   UNL     1      -2.163   1.015  -1.288  0.00  0.00    +0.002 C 
ATOM     16  C   UNL     1      -0.729   1.547  -1.295  0.00  0.00    +0.022 C 
ENDBRANCH   8  11
ENDBRANCH   2   3
BRANCH   2  18
ATOM     17  C   UNL     1       6.960  -0.987   1.420  0.00  0.00    -0.094 C 
ATOM     18  N   UNL     1       6.835   0.329   2.081  0.00  0.00    +0.391 N 
ATOM     19  H   UNL     1       6.394   0.200   2.999  0.00  0.00    -0.080 HD
BRANCH  18  20
ATOM     20  C   UNL     1       8.172   0.929   2.271  0.00  0.00    +0.020 C 
BRANCH  20  21
ATOM     21  C   UNL     1       8.934   0.109   3.280  0.00  0.00    +0.201 C 
ATOM     22  O   UNL     1       8.423  -0.875   3.772  0.00  0.00    -0.278 OA
ATOM     23  N   UNL     1      10.182   0.470   3.637  0.00  0.00    -0.286 N 
ATOM     24  H   UNL     1      10.615   1.218   3.197  0.00  0.00    +0.155 HD
BRANCH  23  25
ATOM     25  C   UNL     1      10.854  -0.235   4.642  0.00  0.00    +0.052 A 
ATOM     26  C   UNL     1      10.662  -1.604   4.780  0.00  0.00    +0.025 A 
ATOM     27  C   UNL     1      11.331  -2.298   5.769  0.00  0.00    +0.002 A 
ATOM     28  C   UNL     1      12.183  -1.630   6.630  0.00  0.00    +0.002 A 
ATOM     29  C   UNL     1      12.373  -0.267   6.500  0.00  0.00    +0.022 A 
ATOM     30  C   UNL     1      11.711   0.433   5.508  0.00  0.00    +0.062 A 
ATOM     31 CL   UNL     1      11.949   2.145   5.346  0.00  0.00    -0.082 Cl
ENDBRANCH  23  25
ENDBRANCH  20  21
ENDBRANCH  18  20
ENDBRANCH   2  18
TORSDOF 6
