REMARK  Name = ZINC31159486
REMARK  10 active torsions:
REMARK  status: ('A' for Active; 'I' for Inactive)
REMARK    1  A    between atoms: C_1  and  C_2
REMARK    2  A    between atoms: C_7  and  C_31
REMARK    3  A    between atoms: C_7  and  C_32
REMARK    4  A    between atoms: C_11  and  C_30
REMARK    5  A    between atoms: C_12  and  C_14
REMARK    6  A    between atoms: C_14  and  C_15
REMARK    7  A    between atoms: C_16  and  O_29
REMARK    8  A    between atoms: C_18  and  O_28
REMARK    9  A    between atoms: C_22  and  O_27
REMARK   10  A    between atoms: C_32  and  O_33
REMARK                            x       y       z     vdW  Elec       q    Type
REMARK                         _______ _______ _______ _____ _____    ______ ____
ROOT
ATOM      1  C   UNL     1      -4.524   2.796   1.125  0.00  0.00    +0.039 C 
ATOM      2  C   UNL     1      -5.025   1.863   0.052  0.00  0.00    -0.073 C 
ATOM      3  C   UNL     1      -6.289   1.848  -0.204  0.00  0.00    -0.027 C 
ATOM      4  C   UNL     1      -6.934   0.989  -1.242  0.00  0.00    +0.031 C 
ATOM      5  C   UNL     1      -6.001  -0.087  -1.817  0.00  0.00    +0.007 C 
ATOM      6  C   UNL     1      -6.629  -0.548  -3.135  0.00  0.00    -0.005 C 
ATOM      7  C   UNL     1      -6.508   0.518  -4.218  0.00  0.00    +0.009 C 
ATOM      8  C   UNL     1      -5.082   1.032  -4.369  0.00  0.00    +0.001 C 
ATOM      9  C   UNL     1      -4.574   1.573  -3.033  0.00  0.00    +0.007 C 
ATOM     10  C   UNL     1      -4.593   0.462  -1.985  0.00  0.00    -0.022 C 
ATOM     11  C   UNL     1      -4.037   1.002  -0.662  0.00  0.00    +0.023 C 
ATOM     12  C   UNL     1      -3.598  -0.634  -2.407  0.00  0.00    +0.012 C 
ATOM     13  C   UNL     1      -6.061  -1.880  -3.627  0.00  0.00    +0.014 C 
ENDROOT
BRANCH  11  14
ATOM     14  C   UNL     1      -3.634  -0.174   0.231  0.00  0.00    +0.049 C 
BRANCH  14  15
ATOM     15  C   UNL     1      -2.519   0.266   1.181  0.00  0.00    +0.128 C 
ATOM     16  C   UNL     1      -1.504   1.195   0.561  0.00  0.00    +0.182 C 
ATOM     17  C   UNL     1      -0.263   1.391   1.407  0.00  0.00    +0.174 C 
ATOM     18  C   UNL     1       0.202   0.111   2.026  0.00  0.00    -0.015 C 
ATOM     19  C   UNL     1       1.446  -0.262   1.861  0.00  0.00    +0.013 C 
ATOM     20  C   UNL     1      -0.719  -0.758   2.829  0.00  0.00    +0.174 C 
ATOM     21  C   UNL     1      -2.121  -0.756   2.228  0.00  0.00    +0.186 C 
ATOM     22  O   UNL     1      -2.920   0.400   2.536  0.00  0.00    -0.359 OA
BRANCH  20  23
ATOM     23  O   UNL     1      -0.213  -2.094   2.842  0.00  0.00    -0.385 OA
ATOM     24  H   UNL     1      -0.756  -2.882   3.385  0.00  0.00    +0.210 HD
ENDBRANCH  20  23
BRANCH  17  25
ATOM     25  O   UNL     1       0.782   1.916   0.585  0.00  0.00    -0.385 OA
ATOM     26  H   UNL     1       1.770   2.128   1.020  0.00  0.00    +0.210 HD
ENDBRANCH  17  25
BRANCH  16  27
ATOM     27  O   UNL     1      -2.120   2.467   0.351  0.00  0.00    -0.386 OA
ATOM     28  H   UNL     1      -1.544   3.291  -0.096  0.00  0.00    +0.210 HD
ENDBRANCH  16  27
ENDBRANCH  14  15
ENDBRANCH  11  14
BRANCH   6  29
ATOM     29  C   UNL     1      -8.140  -0.794  -2.900  0.00  0.00    +0.162 C 
BRANCH  29  30
ATOM     30  O   UNL     1      -8.748  -1.226  -4.119  0.00  0.00    -0.394 OA
ATOM     31  H   UNL     1      -9.824  -1.450  -4.147  0.00  0.00    +0.209 HD
ENDBRANCH  29  30
ENDBRANCH   6  29
TORSDOF 7
