REMARK  Name = ZINC36870839
REMARK  4 active torsions:
REMARK  status: ('A' for Active; 'I' for Inactive)
REMARK    1  A    between atoms: C_7  and  C_9
REMARK    2  A    between atoms: C_9  and  C_10
REMARK    3  A    between atoms: N_12  and  C_13
REMARK    4  A    between atoms: C_15  and  N_17
REMARK                            x       y       z     vdW  Elec       q    Type
REMARK                         _______ _______ _______ _____ _____    ______ ____
ROOT
ATOM      1  C   UNL     1      -1.399  -2.041  -0.192  0.00  0.00    +0.214 C 
ATOM      2  O   UNL     1      -0.380  -2.627   0.106  0.00  0.00    -0.276 OA
ATOM      3  N   UNL     1      -2.532  -2.733  -0.421  0.00  0.00    -0.313 N 
ATOM      4  H   UNL     1      -3.347  -2.265  -0.659  0.00  0.00    +0.149 HD
ENDROOT
BRANCH   3   5
ATOM      5  C   UNL     1      -2.533  -4.194  -0.310  0.00  0.00    +0.070 C 
ATOM      6  C   UNL     1      -2.621  -4.915  -1.666  0.00  0.00    +0.006 C 
ATOM      7  C   UNL     1      -3.574  -5.912  -0.985  0.00  0.00    -0.072 C 
ATOM      8  C   UNL     1      -3.916  -4.787   0.006  0.00  0.00    +0.006 C 
BRANCH   7   9
ATOM      9  N   UNL     1      -4.705  -6.316  -1.830  0.00  0.00    +0.380 N 
ATOM     10  H   UNL     1      -4.358  -6.756  -2.669  0.00  0.00    -0.090 HD
ATOM     11  H   UNL     1      -5.287  -6.968  -1.325  0.00  0.00    -0.090 HD
ATOM     12  H   UNL     1      -5.248  -5.502  -2.077  0.00  0.00    -0.090 HD
ENDBRANCH   7   9
ENDBRANCH   3   5
BRANCH   1  13
ATOM     13  C   UNL     1      -1.398  -0.538  -0.306  0.00  0.00    +0.101 C 
BRANCH  13  20
ATOM     14  C   UNL     1      -0.019   1.534   0.011  0.00  0.00    +0.028 C 
ATOM     15  C   UNL     1       1.429   2.081  -0.000  0.00  0.00    +0.166 C 
ATOM     16  S   UNL     1       2.358   0.748  -0.862  0.00  0.00    -0.031 S 
ATOM     17  O   UNL     1       3.316   0.199   0.034  0.00  0.00    -0.174 OA
ATOM     18  O   UNL     1       2.781   1.225  -2.131  0.00  0.00    -0.174 OA
ATOM     19  C   UNL     1       0.996  -0.469  -1.101  0.00  0.00    +0.170 C 
ATOM     20  C   UNL     1       0.002  -0.004   0.002  0.00  0.00    +0.020 C 
ENDBRANCH  13  20
ENDBRANCH   1  13
TORSDOF 4
