REMARK  Name = ZINC01355748
REMARK  11 active torsions:
REMARK  status: ('A' for Active; 'I' for Inactive)
REMARK    1  A    between atoms: C_1  and  C_2
REMARK    2  A    between atoms: C_5  and  C_8
REMARK    3  A    between atoms: C_17  and  C_19
REMARK    4  A    between atoms: C_20  and  C_39
REMARK    5  A    between atoms: C_25  and  C_27
REMARK    6  A    between atoms: C_29  and  O_37
REMARK    7  A    between atoms: C_30  and  O_35
REMARK    8  A    between atoms: C_31  and  O_33
REMARK    9  A    between atoms: O_33  and  C_34
REMARK   10  A    between atoms: O_35  and  C_36
REMARK   11  A    between atoms: O_37  and  C_38
REMARK                            x       y       z     vdW  Elec       q    Type
REMARK                         _______ _______ _______ _____ _____    ______ ____
ROOT
ATOM      1  C   UNL     1      -0.487  -3.161   6.489  0.00  0.00    +0.083 A 
ATOM      2  C   UNL     1       0.137  -2.031   6.938  0.00  0.00    +0.016 A 
ATOM      3  S   UNL     1      -0.346  -2.045   8.659  0.00  0.00    -0.057 S 
ATOM      4  C   UNL     1      -1.322  -3.542   8.604  0.00  0.00    +0.165 A 
ATOM      5  N   UNL     1      -1.206  -3.885   7.334  0.00  0.00    -0.224 NA
ATOM      6  N   UNL     1      -2.021  -4.173   9.624  0.00  0.00    -0.261 N 
ATOM      7  C   UNL     1      -2.018  -3.650  10.867  0.00  0.00    +0.250 C 
ATOM      8  O   UNL     1      -1.403  -2.626  11.094  0.00  0.00    -0.270 OA
ATOM      9  C   UNL     1       0.997  -1.045   6.188  0.00  0.00    +0.054 C 
ATOM     10  H   UNL     1      -2.511  -4.990   9.443  0.00  0.00    +0.157 HD
ENDROOT
BRANCH   1  20
ATOM     11  C   UNL     1       0.060  -4.251  -0.021  0.00  0.00    +0.251 C 
ATOM     12  O   UNL     1       0.144  -3.038  -0.013  0.00  0.00    -0.270 OA
ATOM     13  N   UNL     1      -0.027  -4.929   1.140  0.00  0.00    -0.267 N 
ATOM     14  C   UNL     1      -0.012  -6.388   1.264  0.00  0.00    +0.118 C 
ATOM     15  C   UNL     1      -0.135  -6.667   2.771  0.00  0.00    +0.056 C 
ATOM     16  C   UNL     1      -0.212  -5.297   3.406  0.00  0.00    -0.024 A 
ATOM     17  C   UNL     1      -0.138  -4.341   2.404  0.00  0.00    +0.040 A 
ATOM     18  C   UNL     1      -0.183  -2.987   2.747  0.00  0.00    +0.024 A 
ATOM     19  C   UNL     1      -0.296  -2.605   4.065  0.00  0.00    +0.012 A 
ATOM     20  C   UNL     1      -0.366  -3.570   5.069  0.00  0.00    +0.002 A 
ATOM     21  C   UNL     1      -0.331  -4.921   4.728  0.00  0.00    +0.015 A 
BRANCH  11  26
ATOM     22  C   UNL     1       0.031  -7.098  -5.022  0.00  0.00    +0.044 C 
ATOM     23  C   UNL     1       0.038  -6.353  -3.712  0.00  0.00    -0.050 A 
ATOM     24  C   UNL     1      -0.033  -4.971  -3.706  0.00  0.00    +0.004 A 
ATOM     25  C   UNL     1      -0.027  -4.282  -2.511  0.00  0.00    +0.013 A 
ATOM     26  C   UNL     1       0.052  -4.982  -1.306  0.00  0.00    +0.037 A 
ATOM     27  C   UNL     1       0.123  -6.376  -1.319  0.00  0.00    +0.013 A 
ATOM     28  C   UNL     1       0.111  -7.053  -2.521  0.00  0.00    +0.004 A 
ENDBRANCH  11  26
ENDBRANCH   1  20
BRANCH   7  29
ATOM     29  C   UNL     1      -2.760  -4.321  11.951  0.00  0.00    +0.044 A 
ATOM     30  C   UNL     1      -3.462  -5.501  11.693  0.00  0.00    +0.062 A 
ATOM     31  C   UNL     1      -4.157  -6.128  12.710  0.00  0.00    +0.166 A 
ATOM     32  C   UNL     1      -4.157  -5.584  13.992  0.00  0.00    +0.204 A 
ATOM     33  C   UNL     1      -3.459  -4.408  14.252  0.00  0.00    +0.166 A 
ATOM     34  C   UNL     1      -2.758  -3.780  13.239  0.00  0.00    +0.062 A 
BRANCH  33  35
ATOM     35  O   UNL     1      -3.462  -3.879  15.505  0.00  0.00    -0.491 OA
ATOM     36  C   UNL     1      -2.724  -2.671  15.701  0.00  0.00    +0.277 C 
ENDBRANCH  33  35
BRANCH  32  37
ATOM     37  O   UNL     1      -4.842  -6.202  14.990  0.00  0.00    -0.488 OA
ATOM     38  C   UNL     1      -4.132  -7.177  15.757  0.00  0.00    +0.277 C 
ENDBRANCH  32  37
BRANCH  31  39
ATOM     39  O   UNL     1      -4.840  -7.277  12.459  0.00  0.00    -0.491 OA
ATOM     40  C   UNL     1      -4.797  -7.779  11.122  0.00  0.00    +0.277 C 
ENDBRANCH  31  39
ENDBRANCH   7  29
TORSDOF 6
