REMARK  Name = ZINC12097935
REMARK  10 active torsions:
REMARK  status: ('A' for Active; 'I' for Inactive)
REMARK    1  A    between atoms: C_1  and  C_2
REMARK    2  A    between atoms: C_7  and  C_19
REMARK    3  A    between atoms: C_15  and  O_18
REMARK    4  A    between atoms: C_19  and  N_20
REMARK    5  A    between atoms: N_20  and  C_21
REMARK    6  A    between atoms: C_21  and  C_22
REMARK    7  A    between atoms: C_22  and  C_23
REMARK    8  A    between atoms: C_23  and  N_24
REMARK    9  A    between atoms: C_30  and  C_32
REMARK   10  A    between atoms: C_33  and  C_37
REMARK                            x       y       z     vdW  Elec       q    Type
REMARK                         _______ _______ _______ _____ _____    ______ ____
ROOT
ATOM      1  C   UNL     1     -13.155   5.043  -4.956  0.00  0.00    +0.044 C 
ATOM      2  C   UNL     1     -11.988   4.303  -4.353  0.00  0.00    -0.048 A 
ATOM      3  C   UNL     1     -11.532   4.658  -3.086  0.00  0.00    +0.004 A 
ATOM      4  C   UNL     1     -10.480   4.009  -2.515  0.00  0.00    +0.010 A 
ATOM      5  C   UNL     1      -9.846   2.968  -3.211  0.00  0.00    -0.001 A 
ATOM      6  C   UNL     1      -8.757   2.269  -2.651  0.00  0.00    +0.018 A 
ATOM      7  C   UNL     1      -8.183   1.273  -3.382  0.00  0.00    +0.008 A 
ATOM      8  C   UNL     1      -8.688   0.961  -4.653  0.00  0.00    +0.104 A 
ATOM      9  C   UNL     1     -10.308   2.605  -4.499  0.00  0.00    +0.048 A 
ATOM     10  C   UNL     1     -11.397   3.298  -5.055  0.00  0.00    +0.029 A 
ATOM     11  N   UNL     1      -8.097  -0.059  -5.383  0.00  0.00    -0.314 N 
ATOM     12  C   UNL     1      -8.713  -1.355  -5.071  0.00  0.00    +0.106 C 
ATOM     13  C   UNL     1      -7.945  -2.472  -5.782  0.00  0.00    +0.021 C 
ATOM     14  C   UNL     1      -7.973  -2.223  -7.292  0.00  0.00    +0.034 C 
ATOM     15  C   UNL     1      -7.370  -0.846  -7.586  0.00  0.00    +0.132 C 
ATOM     16  C   UNL     1      -8.155   0.223  -6.823  0.00  0.00    +0.137 C 
ATOM     17  N   UNL     1      -9.734   1.594  -5.239  0.00  0.00    -0.343 N 
ATOM     18  H   UNL     1     -10.075   1.337  -6.172  0.00  0.00    +0.167 HD
ENDROOT
BRANCH  15  19
ATOM     19  O   UNL     1      -7.444  -0.583  -8.989  0.00  0.00    -0.390 OA
ATOM     20  H   UNL     1      -6.967  -1.223  -9.535  0.00  0.00    +0.210 HD
ENDBRANCH  15  19
BRANCH   7  21
ATOM     21  C   UNL     1      -7.013   0.505  -2.824  0.00  0.00    +0.146 C 
BRANCH  21  22
ATOM     22  N   UNL     1      -5.764   1.097  -3.310  0.00  0.00    -0.293 N 
ATOM     23  C   UNL     1      -5.140   0.568  -4.381  0.00  0.00    +0.254 C 
ATOM     24  O   UNL     1      -5.658  -0.345  -4.998  0.00  0.00    -0.269 OA
BRANCH  23  25
ATOM     25  C   UNL     1      -3.838   1.092  -4.803  0.00  0.00    +0.077 A 
ATOM     26  C   UNL     1      -3.090   0.774  -5.926  0.00  0.00    -0.031 A 
ATOM     27  C   UNL     1      -1.892   1.425  -6.085  0.00  0.00    +0.011 A 
ATOM     28  C   UNL     1      -1.496   2.324  -5.146  0.00  0.00    +0.046 A 
ATOM     29  S   UNL     1      -2.798   2.300  -4.001  0.00  0.00    -0.092 S 
ATOM     30  C   UNL     1      -3.575  -0.238  -6.933  0.00  0.00    +0.045 C 
ENDBRANCH  23  25
BRANCH  22  31
ATOM     31  C   UNL     1      -5.194   2.263  -2.631  0.00  0.00    +0.110 C 
BRANCH  31  32
ATOM     32  C   UNL     1      -4.211   1.797  -1.555  0.00  0.00    +0.038 C 
BRANCH  32  33
ATOM     33  C   UNL     1      -3.615   3.015  -0.847  0.00  0.00    +0.109 C 
BRANCH  33  34
ATOM     34  N   UNL     1      -2.675   2.569   0.184  0.00  0.00    -0.301 N 
ATOM     35  C   UNL     1      -3.044   2.286   1.576  0.00  0.00    +0.108 C 
ATOM     36  C   UNL     1      -1.712   2.284   2.365  0.00  0.00    +0.028 C 
ATOM     37  C   UNL     1      -0.696   1.918   1.259  0.00  0.00    +0.097 C 
ATOM     38  C   UNL     1      -1.363   2.365  -0.024  0.00  0.00    +0.216 C 
ATOM     39  O   UNL     1      -0.795   2.517  -1.085  0.00  0.00    -0.276 OA
ENDBRANCH  33  34
ENDBRANCH  32  33
ENDBRANCH  31  32
ENDBRANCH  22  31
ENDBRANCH  21  22
ENDBRANCH   7  21
TORSDOF 8
