REMARK  Name = ZINC63456233
REMARK  13 active torsions:
REMARK  status: ('A' for Active; 'I' for Inactive)
REMARK    1  A    between atoms: C_1  and  C_2
REMARK    2  A    between atoms: C_2  and  C_3
REMARK    3  A    between atoms: C_2  and  C_4
REMARK    4  A    between atoms: C_4  and  C_5
REMARK    5  A    between atoms: C_5  and  C_6
REMARK    6  A    between atoms: C_6  and  C_7
REMARK    7  A    between atoms: C_6  and  N_8
REMARK    8  A    between atoms: C_9  and  C_11
REMARK    9  A    between atoms: C_11  and  O_12
REMARK   10  A    between atoms: O_12  and  N_13
REMARK   11  A    between atoms: C_14  and  C_15
REMARK   12  A    between atoms: C_16  and  N_26
REMARK   13  A    between atoms: N_22  and  C_25
REMARK                            x       y       z     vdW  Elec       q    Type
REMARK                         _______ _______ _______ _____ _____    ______ ____
ROOT
ATOM      1  N   UNL     1       3.293  -6.074  -5.113  0.00  0.00    -0.068 NA
ATOM      2  C   UNL     1       3.282  -6.633  -6.290  0.00  0.00    +0.169 C 
ATOM      3  N   UNL     1       3.299  -8.014  -6.401  0.00  0.00    -0.340 N 
ATOM      4  H   UNL     1       3.244  -8.565  -5.604  0.00  0.00    +0.144 HD
ATOM      5  H   UNL     1       3.364  -8.429  -7.275  0.00  0.00    +0.144 HD
ENDROOT
BRANCH   2   6
ATOM      6  C   UNL     1       3.254  -5.796  -7.504  0.00  0.00    +0.098 C 
ATOM      7  C   UNL     1       2.222  -4.979  -7.880  0.00  0.00    +0.041 C 
ATOM      8  C   UNL     1       2.650  -4.340  -9.170  0.00  0.00    +0.076 C 
ATOM      9  C   UNL     1       2.646  -2.805  -9.063  0.00  0.00    +0.032 C 
ATOM     10  C   UNL     1       2.506  -2.326 -10.525  0.00  0.00    +0.003 C 
ATOM     11  C   UNL     1       1.873  -3.489 -11.311  0.00  0.00    +0.003 C 
ATOM     12  C   UNL     1       1.649  -4.636 -10.301  0.00  0.00    +0.032 C 
ATOM     13  N   UNL     1       3.978  -4.852  -9.482  0.00  0.00    -0.289 N 
ATOM     14  C   UNL     1       4.327  -5.702  -8.496  0.00  0.00    +0.252 C 
ATOM     15  O   UNL     1       5.381  -6.308  -8.439  0.00  0.00    -0.270 OA
ATOM     16  C   UNL     1       4.788  -4.502 -10.652  0.00  0.00    +0.133 C 
BRANCH   7  17
ATOM     17  N   UNL     1       1.048  -4.786  -7.221  0.00  0.00    -0.359 N 
ATOM     18  H   UNL     1       0.845  -5.309  -6.429  0.00  0.00    +0.142 HD
ATOM     19  H   UNL     1       0.414  -4.125  -7.542  0.00  0.00    +0.142 HD
ENDBRANCH   7  17
ENDBRANCH   2   6
BRANCH   1  20
ATOM     20  O   UNL     1       3.392  -4.666  -4.999  0.00  0.00    -0.383 OA
BRANCH  20  21
ATOM     21  C   UNL     1       3.392  -4.190  -3.651  0.00  0.00    +0.358 C 
BRANCH  21  23
ATOM     22  N   UNL     1       3.519  -2.015  -2.481  0.00  0.00    -0.310 N 
ATOM     23  C   UNL     1       3.500  -2.687  -3.649  0.00  0.00    +0.254 C 
ATOM     24  O   UNL     1       3.571  -2.083  -4.698  0.00  0.00    -0.272 OA
ATOM     25  H   UNL     1       3.463  -2.498  -1.642  0.00  0.00    +0.149 HD
BRANCH  22  26
ATOM     26  C   UNL     1       3.625  -0.554  -2.479  0.00  0.00    +0.070 C 
ATOM     27  C   UNL     1       5.098  -0.149  -2.567  0.00  0.00    +0.028 C 
BRANCH  26  28
ATOM     28  C   UNL     1       3.020  -0.000  -1.187  0.00  0.00    +0.022 C 
BRANCH  28  29
ATOM     29  C   UNL     1       1.520  -0.298  -1.158  0.00  0.00    +0.005 C 
BRANCH  29  31
ATOM     30  C   UNL     1       1.026   1.781   0.137  0.00  0.00    +0.007 C 
ATOM     31  C   UNL     1       0.915   0.255   0.134  0.00  0.00    -0.017 C 
ATOM     32  C   UNL     1      -0.558  -0.149   0.223  0.00  0.00    +0.007 C 
ENDBRANCH  29  31
ENDBRANCH  28  29
ENDBRANCH  26  28
ENDBRANCH  22  26
ENDBRANCH  21  23
ENDBRANCH  20  21
ENDBRANCH   1  20
TORSDOF 9
