REMARK  Name = ZINC09408669
REMARK  15 active torsions:
REMARK  status: ('A' for Active; 'I' for Inactive)
REMARK    1  A    between atoms: C_1  and  C_2
REMARK    2  A    between atoms: C_5  and  N_8
REMARK    3  A    between atoms: C_9  and  C_35
REMARK    4  A    between atoms: C_10  and  C_32
REMARK    5  A    between atoms: C_15  and  O_17
REMARK    6  A    between atoms: O_17  and  C_18
REMARK    7  A    between atoms: C_18  and  C_19
REMARK    8  A    between atoms: C_19  and  C_21
REMARK    9  A    between atoms: C_19  and  O_31
REMARK   10  A    between atoms: C_21  and  N_68
REMARK   11  A    between atoms: C_22  and  C_23
REMARK   12  A    between atoms: C_22  and  N_68
REMARK   13  A    between atoms: C_23  and  C_24
REMARK   14  A    between atoms: C_29  and  C_30
REMARK   15  A    between atoms: C_32  and  C_34
REMARK                            x       y       z     vdW  Elec       q    Type
REMARK                         _______ _______ _______ _____ _____    ______ ____
ROOT
ATOM      1  N   UNL     1       0.011   1.075   4.743  0.00  0.00    -0.313 N 
ATOM      2  C   UNL     1      -0.746   1.594   3.748  0.00  0.00    +0.032 A 
ATOM      3  C   UNL     1      -0.217   1.229   2.528  0.00  0.00    +0.046 A 
ATOM      4  C   UNL     1       0.972   0.405   2.822  0.00  0.00    +0.014 A 
ATOM      5  C   UNL     1       1.067   0.349   4.221  0.00  0.00    +0.055 A 
ATOM      6  C   UNL     1       2.107  -0.364   4.808  0.00  0.00    +0.030 A 
ATOM      7  C   UNL     1       3.036  -1.004   4.017  0.00  0.00    +0.048 A 
ATOM      8  C   UNL     1       2.946  -0.944   2.630  0.00  0.00    +0.121 A 
ATOM      9  C   UNL     1       1.919  -0.238   2.031  0.00  0.00    +0.056 A 
ATOM     10  C   UNL     1      -1.978   2.440   3.943  0.00  0.00    +0.064 C 
ENDROOT
BRANCH   1  15
ATOM     11  C   UNL     1      -1.005   1.780  10.281  0.00  0.00    +0.044 C 
ATOM     12  C   UNL     1      -0.736   1.593   8.810  0.00  0.00    -0.050 A 
ATOM     13  C   UNL     1      -1.634   0.891   8.028  0.00  0.00    +0.005 A 
ATOM     14  C   UNL     1      -1.390   0.718   6.679  0.00  0.00    +0.026 A 
ATOM     15  C   UNL     1      -0.240   1.249   6.110  0.00  0.00    +0.047 A 
ATOM     16  C   UNL     1       0.663   1.948   6.899  0.00  0.00    +0.026 A 
ATOM     17  C   UNL     1       0.410   2.123   8.246  0.00  0.00    +0.005 A 
ENDBRANCH   1  15
BRANCH   3  18
ATOM     18  C   UNL     1      -0.718   1.572   1.248  0.00  0.00    +0.162 C 
ATOM     19  O   UNL     1      -1.716   2.257   1.150  0.00  0.00    -0.292 OA
ATOM     20  C   UNL     1      -0.013   1.086   0.008  0.00  0.00    +0.091 C 
ENDBRANCH   3  18
BRANCH   8  21
ATOM     21  O   UNL     1       3.870  -1.580   1.862  0.00  0.00    -0.489 OA
BRANCH  21  22
ATOM     22  C   UNL     1       4.904  -2.290   2.547  0.00  0.00    +0.258 C 
BRANCH  22  23
ATOM     23  C   UNL     1       5.842  -2.936   1.525  0.00  0.00    +0.135 C 
BRANCH  23  24
ATOM     24  O   UNL     1       6.512  -1.916   0.782  0.00  0.00    -0.390 OA
ATOM     25  H   UNL     1       7.048  -1.321   1.325  0.00  0.00    +0.210 HD
ENDBRANCH  23  24
BRANCH  23  26
ATOM     26  C   UNL     1       6.875  -3.798   2.254  0.00  0.00    -0.048 C 
BRANCH  26  27
ATOM     27  N   UNL     1       7.774  -4.417   1.262  0.00  0.00    +0.381 N 
ATOM     28  H   UNL     1       8.250  -3.679   0.729  0.00  0.00    -0.086 HD
ATOM     29  H   UNL     1       7.223  -5.000   0.622  0.00  0.00    -0.086 HD
BRANCH  27  30
ATOM     30  C   UNL     1       8.783  -5.255   1.937  0.00  0.00    -0.078 C 
BRANCH  30  31
ATOM     31  C   UNL     1       9.700  -5.883   0.885  0.00  0.00    +0.016 C 
BRANCH  31  32
ATOM     32  C   UNL     1      10.733  -6.741   1.568  0.00  0.00    -0.046 A 
ATOM     33  C   UNL     1      11.981  -6.221   1.859  0.00  0.00    +0.004 A 
ATOM     34  C   UNL     1      12.927  -7.007   2.489  0.00  0.00    +0.000 A 
ATOM     35  C   UNL     1      12.630  -8.316   2.819  0.00  0.00    +0.000 A 
ATOM     36  C   UNL     1      11.384  -8.838   2.523  0.00  0.00    +0.003 A 
ATOM     37  C   UNL     1      10.436  -8.050   1.897  0.00  0.00    -0.047 A 
ATOM     38  C   UNL     1       9.078  -8.619   1.574  0.00  0.00    +0.044 C 
ENDBRANCH  31  32
ENDBRANCH  30  31
ENDBRANCH  27  30
ENDBRANCH  26  27
ENDBRANCH  23  26
ENDBRANCH  22  23
ENDBRANCH  21  22
ENDBRANCH   8  21
TORSDOF 11
