REMARK  Name = ZINC17428735
REMARK  6 active torsions:
REMARK  status: ('A' for Active; 'I' for Inactive)
REMARK    1  A    between atoms: C_2  and  C_25
REMARK    2  A    between atoms: N_5  and  C1*_6
REMARK    3  A    between atoms: C2*_8  and  O2*_18
REMARK    4  A    between atoms: C3*_10  and  O3*_17
REMARK    5  A    between atoms: C4*_12  and  C5*_15
REMARK    6  A    between atoms: C5*_15  and  O5*_16
REMARK                            x       y       z     vdW  Elec       q    Type
REMARK                         _______ _______ _______ _____ _____    ______ ____
ROOT
ATOM      1  C   UNL     1       3.036   3.457  -0.007  0.00  0.00    +0.104 A 
ATOM      2  C   UNL     1       1.672   3.462   0.006  0.00  0.00    +0.069 A 
ATOM      3  C   UNL     1       1.261   2.051   0.001  0.00  0.00    +0.095 A 
ATOM      4  C   UNL     1       2.434   1.304  -0.014  0.00  0.00    +0.128 A 
ATOM      5  N   UNL     1       3.480   2.173  -0.019  0.00  0.00    -0.304 N 
ATOM      6  N   UNL     1       2.331  -0.063  -0.021  0.00  0.00    -0.332 N 
ATOM      7  H   UNL     1       3.239  -0.683  -0.033  0.00  0.00    +0.168 HD
ATOM      8  C   UNL     1       1.128  -0.663  -0.012  0.00  0.00    +0.202 A 
ATOM      9  N   UNL     1       0.002  -0.004   0.002  0.00  0.00    -0.199 NA
ATOM     10  C   UNL     1      -0.016   1.344   0.009  0.00  0.00    +0.283 A 
ATOM     11  O   UNL     1      -1.072   1.957   0.018  0.00  0.00    -0.265 OA
ENDROOT
BRANCH   5  12
ATOM     12  C1* UNL     1       4.891   1.778  -0.034  0.00  0.00    +0.252 C 
ATOM     13  C2* UNL     1       5.353   1.542  -1.486  0.00  0.00    +0.195 C 
ATOM     14  C3* UNL     1       6.455   2.605  -1.711  0.00  0.00    +0.178 C 
ATOM     15  C4* UNL     1       6.131   3.647  -0.611  0.00  0.00    +0.177 C 
ATOM     16  O4* UNL     1       5.700   2.837   0.504  0.00  0.00    -0.346 OA
BRANCH  14  17
ATOM     17  O3* UNL     1       7.754   2.043  -1.514  0.00  0.00    -0.386 OA
ATOM     18  H3* UNL     1       8.649   2.670  -1.637  0.00  0.00    +0.210 HD
ENDBRANCH  14  17
BRANCH  13  19
ATOM     19  O2* UNL     1       4.269   1.745  -2.394  0.00  0.00    -0.385 OA
ATOM     20  H2* UNL     1       4.426   1.616  -3.476  0.00  0.00    +0.210 HD
ENDBRANCH  13  19
BRANCH  15  21
ATOM     21  C5* UNL     1       7.379   4.452  -0.241  0.00  0.00    +0.190 C 
BRANCH  21  22
ATOM     22  O5* UNL     1       7.047   5.412   0.763  0.00  0.00    -0.392 OA
ATOM     23  H5* UNL     1       7.822   6.087   1.157  0.00  0.00    +0.210 HD
ENDBRANCH  21  22
ENDBRANCH  15  21
ENDBRANCH   5  12
BRANCH   2  24
ATOM     24  C   UNL     1       0.791   4.639   0.020  0.00  0.00    +0.244 C 
ATOM     25  O   UNL     1      -0.417   4.496   0.030  0.00  0.00    -0.270 OA
ATOM     26  N   UNL     1       1.322   5.878   0.022  0.00  0.00    -0.325 N 
ATOM     27  H   UNL     1       0.664   6.759   0.033  0.00  0.00    +0.145 HD
ATOM     28  H   UNL     1       2.415   6.008   0.013  0.00  0.00    +0.145 HD
ENDBRANCH   2  24
TORSDOF 6
