REMARK  Name = ZINC12710967
REMARK  9 active torsions:
REMARK  status: ('A' for Active; 'I' for Inactive)
REMARK    1  A    between atoms: C_3  and  C_6
REMARK    2  A    between atoms: C_6  and  N_7
REMARK    3  A    between atoms: N_7  and  C_8
REMARK    4  A    between atoms: C_8  and  C_10
REMARK    5  A    between atoms: C_8  and  C_15
REMARK    6  A    between atoms: N_17  and  C_18
REMARK    7  A    between atoms: C_23  and  C_25
REMARK    8  A    between atoms: C_26  and  N_33
REMARK    9  A    between atoms: C_27  and  C_30
REMARK                            x       y       z     vdW  Elec       q    Type
REMARK                         _______ _______ _______ _____ _____    ______ ____
ROOT
ATOM      1  N   UNL     1       2.447   5.087  -1.023  0.00  0.00    -0.274 N 
ATOM      2  C   UNL     1       2.488   5.792  -2.171  0.00  0.00    +0.258 C 
ATOM      3  O   UNL     1       1.593   6.574  -2.437  0.00  0.00    -0.269 OA
ENDROOT
BRANCH   2   4
ATOM      4  C   UNL     1       3.608   5.618  -3.098  0.00  0.00    +0.115 A 
ATOM      5  C   UNL     1       3.898   6.310  -4.275  0.00  0.00    +0.076 A 
ATOM      6  C   UNL     1       5.064   5.853  -4.889  0.00  0.00    +0.155 A 
ATOM      7  N   UNL     1       5.742   4.873  -4.335  0.00  0.00    -0.203 NA
ATOM      8  S   UNL     1       4.969   4.472  -3.021  0.00  0.00    +0.019 S 
BRANCH   6   9
ATOM      9  C   UNL     1       5.532   6.464  -6.147  0.00  0.00    +0.262 C 
ATOM     10  O   UNL     1       4.900   7.371  -6.655  0.00  0.00    -0.269 OA
ATOM     11  N   UNL     1       6.660   6.018  -6.735  0.00  0.00    -0.324 N 
ATOM     12  H   UNL     1       7.164   5.295  -6.330  0.00  0.00    +0.145 HD
ATOM     13  H   UNL     1       6.967   6.420  -7.562  0.00  0.00    +0.145 HD
ENDBRANCH   6   9
BRANCH   5  14
ATOM     14  N   UNL     1       3.112   7.338  -4.779  0.00  0.00    -0.355 N 
ATOM     15  H   UNL     1       2.311   7.612  -4.306  0.00  0.00    +0.142 HD
ATOM     16  H   UNL     1       3.365   7.782  -5.603  0.00  0.00    +0.142 HD
ENDBRANCH   5  14
ENDBRANCH   2   4
BRANCH   1  17
ATOM     17  C   UNL     1       3.575   4.231  -0.649  0.00  0.00    +0.183 C 
BRANCH  17  20
ATOM     18  C   UNL     1       6.004   6.096   1.401  0.00  0.00    +0.041 A 
ATOM     19  C   UNL     1       4.894   5.229   1.278  0.00  0.00    +0.046 A 
ATOM     20  C   UNL     1       4.665   5.073  -0.038  0.00  0.00    +0.122 A 
ATOM     21  O   UNL     1       5.576   5.791  -0.715  0.00  0.00    -0.466 OA
ATOM     22  C   UNL     1       6.387   6.419   0.152  0.00  0.00    +0.195 A 
ENDBRANCH  17  20
ENDBRANCH   1  17
BRANCH   1  23
ATOM     23  C   UNL     1       1.275   5.177  -0.149  0.00  0.00    +0.199 C 
BRANCH  23  24
ATOM     24  C   UNL     1       0.735   3.795   0.111  0.00  0.00    +0.019 A 
ATOM     25  C   UNL     1      -0.552   3.394   0.255  0.00  0.00    +0.013 A 
ATOM     26  C   UNL     1      -0.817   2.057   0.484  0.00  0.00    +0.008 A 
ATOM     27  C   UNL     1       0.220   1.187   0.569  0.00  0.00    +0.045 A 
ATOM     28  S   UNL     1       1.623   2.259   0.308  0.00  0.00    -0.099 S 
ENDBRANCH  23  24
BRANCH  23  29
ATOM     29  C   UNL     1       1.670   5.816   1.158  0.00  0.00    +0.239 C 
ATOM     30  O   UNL     1       2.777   6.293   1.289  0.00  0.00    -0.273 OA
ATOM     31  N   UNL     1       0.793   5.856   2.180  0.00  0.00    -0.311 N 
ATOM     32  H   UNL     1      -0.092   5.474   2.076  0.00  0.00    +0.149 HD
BRANCH  31  33
ATOM     33  C   UNL     1       1.178   6.477   3.450  0.00  0.00    +0.073 C 
ATOM     34  C   UNL     1       1.860   5.436   4.362  0.00  0.00    +0.022 C 
ATOM     35  C   UNL     1       1.364   5.794   5.785  0.00  0.00    +0.002 C 
ATOM     36  C   UNL     1      -0.110   6.201   5.541  0.00  0.00    +0.002 C 
ATOM     37  C   UNL     1      -0.075   6.963   4.200  0.00  0.00    +0.022 C 
ENDBRANCH  31  33
ENDBRANCH  23  29
ENDBRANCH   1  23
TORSDOF 9
