REMARK  Name = ZINC09541553
REMARK  9 active torsions:
REMARK  status: ('A' for Active; 'I' for Inactive)
REMARK    1  A    between atoms: C_1  and  C_2
REMARK    2  A    between atoms: C_2  and  O_3
REMARK    3  A    between atoms: O_3  and  C_4
REMARK    4  A    between atoms: C_7  and  C_10
REMARK    5  A    between atoms: C_12  and  C_25
REMARK    6  A    between atoms: C_14  and  C_17
REMARK    7  A    between atoms: C_22  and  O_23
REMARK    8  A    between atoms: C_30  and  O_31
REMARK    9  A    between atoms: O_31  and  C_32
REMARK                            x       y       z     vdW  Elec       q    Type
REMARK                         _______ _______ _______ _____ _____    ______ ____
ROOT
ATOM      1  C   UNL     1      -1.136   6.282  -1.930  0.00  0.00    +0.040 C 
ATOM      2  N   UNL     1      -1.207   5.822  -0.738  0.00  0.00    -0.298 NA
ATOM      3  C   UNL     1      -0.059   5.351   0.028  0.00  0.00    +0.084 C 
ATOM      4  C   UNL     1       1.233   5.558  -1.999  0.00  0.00    -0.028 C 
ATOM      5  C   UNL     1       0.156   6.402  -2.688  0.00  0.00    +0.044 C 
ATOM      6  N   UNL     1       1.196   5.853  -0.553  0.00  0.00    +0.401 N 
ATOM      7  H   UNL     1       1.991   5.395  -0.091  0.00  0.00    -0.081 HD
ATOM      8  H   UNL     1       1.255   6.868  -0.410  0.00  0.00    -0.081 HD
ENDROOT
BRANCH   4   9
ATOM      9  C   UNL     1       2.589   5.914  -2.551  0.00  0.00    -0.018 A 
ATOM     10  C   UNL     1       3.406   6.792  -1.866  0.00  0.00    +0.025 A 
ATOM     11  C   UNL     1       4.654   7.114  -2.369  0.00  0.00    +0.041 A 
ATOM     12  C   UNL     1       5.081   6.567  -3.567  0.00  0.00    +0.023 A 
ATOM     13  C   UNL     1       4.265   5.693  -4.258  0.00  0.00    +0.047 A 
ATOM     14  C   UNL     1       3.016   5.364  -3.751  0.00  0.00    +0.119 A 
ATOM     15 CL   UNL     1       5.682   8.212  -1.502  0.00  0.00    -0.084 Cl
BRANCH  14  16
ATOM     16  O   UNL     1       2.211   4.504  -4.429  0.00  0.00    -0.507 OA
ATOM     17  H   UNL     1       1.621   4.934  -5.064  0.00  0.00    +0.292 HD
ENDBRANCH  14  16
ENDBRANCH   4   9
BRANCH   1  21
ATOM     18  C   UNL     1      -4.721   7.527  -3.834  0.00  0.00    +0.121 A 
ATOM     19  C   UNL     1      -4.763   7.023  -2.539  0.00  0.00    +0.046 A 
ATOM     20  C   UNL     1      -3.602   6.618  -1.918  0.00  0.00    +0.013 A 
ATOM     21  C   UNL     1      -2.381   6.714  -2.591  0.00  0.00    -0.004 A 
ATOM     22  C   UNL     1      -2.343   7.227  -3.891  0.00  0.00    +0.013 A 
ATOM     23  C   UNL     1      -3.509   7.625  -4.507  0.00  0.00    +0.046 A 
BRANCH  18  24
ATOM     24  O   UNL     1      -5.867   7.925  -4.443  0.00  0.00    -0.492 OA
BRANCH  24  26
ATOM     25  C   UNL     1      -7.137   8.828  -6.290  0.00  0.00    +0.048 C 
ATOM     26  C   UNL     1      -5.752   8.433  -5.773  0.00  0.00    +0.225 C 
ENDBRANCH  24  26
ENDBRANCH  18  24
ENDBRANCH   1  21
BRANCH   3  27
ATOM     27  C   UNL     1      -0.043   3.844   0.021  0.00  0.00    +0.001 A 
ATOM     28  C   UNL     1       1.161   3.165   0.007  0.00  0.00    +0.007 A 
ATOM     29  C   UNL     1       1.176   1.783   0.000  0.00  0.00    +0.000 A 
ATOM     30  C   UNL     1      -0.013   1.076   0.008  0.00  0.00    +0.004 A 
ATOM     31  C   UNL     1      -1.218   1.750   0.017  0.00  0.00    +0.046 A 
ATOM     32  C   UNL     1      -1.236   3.137   0.029  0.00  0.00    +0.123 A 
BRANCH  32  33
ATOM     33  O   UNL     1      -2.421   3.802   0.044  0.00  0.00    -0.495 OA
ATOM     34  C   UNL     1      -3.610   3.009   0.051  0.00  0.00    +0.277 C 
ENDBRANCH  32  33
ENDBRANCH   3  27
TORSDOF 7
