REMARK  Name = ZINC08781471
REMARK  6 active torsions:
REMARK  status: ('A' for Active; 'I' for Inactive)
REMARK    1  A    between atoms: C_1  and  O_2
REMARK    2  A    between atoms: O_2  and  C_3
REMARK    3  A    between atoms: C_3  and  C_5
REMARK    4  A    between atoms: C_5  and  C_31
REMARK    5  A    between atoms: C_10  and  C_12
REMARK    6  A    between atoms: N_21  and  C_24
REMARK                            x       y       z     vdW  Elec       q    Type
REMARK                         _______ _______ _______ _____ _____    ______ ____
ROOT
ATOM      1  C   UNL     1      -4.610   2.184   0.111  0.00  0.00    +0.070 C 
ATOM      2  C   UNL     1      -3.864   2.332   1.415  0.00  0.00    +0.090 C 
ATOM      3  C   UNL     1      -3.096   0.947   1.385  0.00  0.00    +0.078 C 
ATOM      4  C   UNL     1      -2.514   0.979   0.019  0.00  0.00    -0.026 C 
ATOM      5  C   UNL     1      -2.540   0.956   2.737  0.00  0.00    +0.229 C 
ATOM      6  O   UNL     1      -1.464   0.520   3.086  0.00  0.00    -0.275 OA
ATOM      7  N   UNL     1      -3.486   1.571   3.517  0.00  0.00    -0.210 N 
ATOM      8  C   UNL     1      -4.437   2.222   2.775  0.00  0.00    +0.229 C 
ATOM      9  O   UNL     1      -5.518   2.622   3.152  0.00  0.00    -0.275 OA
ATOM     10  N   UNL     1      -3.542   1.679  -0.803  0.00  0.00    +0.398 N 
ATOM     11  H   UNL     1      -3.111   2.467  -1.301  0.00  0.00    -0.083 HD
ATOM     12  H   UNL     1      -3.948   1.025  -1.482  0.00  0.00    -0.083 HD
ENDROOT
BRANCH   4  13
ATOM     13  C   UNL     1      -1.219   1.750   0.017  0.00  0.00    -0.061 A 
ATOM     14  C   UNL     1      -0.013   1.076   0.008  0.00  0.00    +0.003 A 
ATOM     15  C   UNL     1       1.175   1.783   0.000  0.00  0.00    +0.020 A 
ATOM     16  C   UNL     1       1.156   3.166   0.008  0.00  0.00    +0.041 A 
ATOM     17  C   UNL     1      -0.052   3.841   0.023  0.00  0.00    +0.020 A 
ATOM     18  C   UNL     1      -1.239   3.133   0.031  0.00  0.00    +0.003 A 
ATOM     19 CL   UNL     1       2.647   4.055  -0.002  0.00  0.00    -0.084 Cl
ENDBRANCH   4  13
BRANCH   7  20
ATOM     20  C   UNL     1      -3.482   1.537   4.919  0.00  0.00    +0.044 A 
ATOM     21  C   UNL     1      -4.476   2.192   5.634  0.00  0.00    +0.025 A 
ATOM     22  C   UNL     1      -4.473   2.152   7.014  0.00  0.00    +0.022 A 
ATOM     23  C   UNL     1      -3.473   1.470   7.685  0.00  0.00    +0.041 A 
ATOM     24  C   UNL     1      -2.477   0.822   6.975  0.00  0.00    +0.022 A 
ATOM     25  C   UNL     1      -2.480   0.854   5.595  0.00  0.00    +0.025 A 
ATOM     26 CL   UNL     1      -3.468   1.427   9.421  0.00  0.00    -0.084 Cl
ENDBRANCH   7  20
BRANCH   1  27
ATOM     27  C   UNL     1      -5.142   3.515  -0.355  0.00  0.00    -0.047 A 
ATOM     28  C   UNL     1      -5.597   4.439   0.567  0.00  0.00    +0.003 A 
ATOM     29  C   UNL     1      -6.080   5.662   0.139  0.00  0.00    +0.000 A 
ATOM     30  C   UNL     1      -6.117   5.956  -1.211  0.00  0.00    +0.000 A 
ATOM     31  C   UNL     1      -5.667   5.030  -2.133  0.00  0.00    +0.000 A 
ATOM     32  C   UNL     1      -5.179   3.809  -1.705  0.00  0.00    +0.003 A 
ENDBRANCH   1  27
BRANCH   1  33
ATOM     33  C   UNL     1      -5.724   1.177   0.243  0.00  0.00    +0.301 C 
ATOM     34  O   UNL     1      -6.280   1.027   1.304  0.00  0.00    -0.252 OA
BRANCH  33  36
ATOM     35  C   UNL     1      -7.177  -0.503  -0.621  0.00  0.00    +0.280 C 
ATOM     36  O   UNL     1      -6.098   0.448  -0.820  0.00  0.00    -0.469 OA
ENDBRANCH  33  36
ENDBRANCH   1  33
TORSDOF 5
