REMARK  Name = ZINC49192847
REMARK  12 active torsions:
REMARK  status: ('A' for Active; 'I' for Inactive)
REMARK    1  A    between atoms: C_1  and  C_2
REMARK    2  A    between atoms: C_3  and  N_22
REMARK    3  A    between atoms: C_5  and  S_9
REMARK    4  A    between atoms: S_9  and  N_12
REMARK    5  A    between atoms: N_12  and  C_13
REMARK    6  A    between atoms: C_13  and  C_15
REMARK    7  A    between atoms: C_13  and  C_19
REMARK    8  A    between atoms: C_15  and  N_16
REMARK    9  A    between atoms: N_16  and  C_17
REMARK   10  A    between atoms: N_16  and  C_18
REMARK   11  A    between atoms: C_19  and  C_20
REMARK   12  A    between atoms: C_19  and  C_21
REMARK                            x       y       z     vdW  Elec       q    Type
REMARK                         _______ _______ _______ _____ _____    ______ ____
ROOT
ATOM      1  S   UNL     1       0.021  -5.244   0.259  0.00  0.00    +0.059 S 
ATOM      2  O   UNL     1      -0.004  -6.256   1.256  0.00  0.00    -0.153 OA
ATOM      3  O   UNL     1      -0.668  -5.374  -0.977  0.00  0.00    -0.153 OA
ENDROOT
BRANCH   1   8
ATOM      4  C   UNL     1      -2.044  -0.207   2.875  0.00  0.00    +0.047 C 
ATOM      5  C   UNL     1      -1.529  -1.463   2.220  0.00  0.00    -0.011 A 
ATOM      6  C   UNL     1      -1.531  -1.577   0.836  0.00  0.00    +0.031 A 
ATOM      7  C   UNL     1      -1.055  -2.737   0.237  0.00  0.00    +0.051 A 
ATOM      8  C   UNL     1      -0.582  -3.773   1.018  0.00  0.00    +0.108 A 
ATOM      9  C   UNL     1      -0.581  -3.657   2.396  0.00  0.00    +0.049 A 
ATOM     10  C   UNL     1      -1.049  -2.501   2.997  0.00  0.00    +0.047 A 
ATOM     11 CL   UNL     1      -1.038  -2.357   4.727  0.00  0.00    -0.083 Cl
BRANCH   6  12
ATOM     12  N   UNL     1      -2.010  -0.529   0.048  0.00  0.00    -0.358 N 
ATOM     13  H   UNL     1      -2.342   0.281   0.468  0.00  0.00    +0.142 HD
ATOM     14  H   UNL     1      -2.011  -0.609  -0.918  0.00  0.00    +0.142 HD
ENDBRANCH   6  12
ENDBRANCH   1   8
BRANCH   1  15
ATOM     15  N   UNL     1       1.614  -4.985  -0.113  0.00  0.00    -0.188 NA
ATOM     16  H   UNL     1       1.907  -5.009  -1.037  0.00  0.00    +0.148 HD
BRANCH  15  17
ATOM     17  C   UNL     1       2.582  -4.721   0.956  0.00  0.00    +0.063 C 
BRANCH  17  18
ATOM     18  C   UNL     1       3.217  -3.346   0.739  0.00  0.00    -0.000 C 
ATOM     19  C   UNL     1       2.118  -2.287   0.637  0.00  0.00    +0.009 C 
ATOM     20  C   UNL     1       4.135  -3.017   1.919  0.00  0.00    +0.009 C 
ENDBRANCH  17  18
BRANCH  17  21
ATOM     21  C   UNL     1       3.671  -5.795   0.935  0.00  0.00    -0.059 C 
BRANCH  21  22
ATOM     22  N   UNL     1       3.050  -7.124   1.022  0.00  0.00    +0.377 N 
ATOM     23  C   UNL     1       4.084  -8.158   0.882  0.00  0.00    -0.097 C 
ATOM     24  C   UNL     1       2.386  -7.269   2.324  0.00  0.00    -0.097 C 
ATOM     25  H   UNL     1       2.369  -7.226   0.284  0.00  0.00    -0.083 HD
ENDBRANCH  21  22
ENDBRANCH  17  21
ENDBRANCH  15  17
ENDBRANCH   1  15
TORSDOF 7
