REMARK  Name = ZINC44545022
REMARK  7 active torsions:
REMARK  status: ('A' for Active; 'I' for Inactive)
REMARK    1  A    between atoms: C_1  and  O_2
REMARK    2  A    between atoms: O_2  and  C_3
REMARK    3  A    between atoms: C_6  and  C_9
REMARK    4  A    between atoms: C_10  and  C_25
REMARK    5  A    between atoms: C_11  and  N_24
REMARK    6  A    between atoms: C_15  and  N_23
REMARK    7  A    between atoms: C_16  and  C_18
REMARK                            x       y       z     vdW  Elec       q    Type
REMARK                         _______ _______ _______ _____ _____    ______ ____
ROOT
ATOM      1  C   UNL     1       2.134  -3.595  -4.087  0.00  0.00    +0.014 A 
ATOM      2  C   UNL     1       1.475  -3.615  -5.324  0.00  0.00    +0.100 A 
ATOM      3  C   UNL     1       2.220  -3.750  -6.511  0.00  0.00    +0.136 A 
ATOM      4  N   UNL     1       3.538  -3.859  -6.461  0.00  0.00    -0.224 NA
ATOM      5  C   UNL     1       4.195  -3.845  -5.318  0.00  0.00    +0.113 A 
ATOM      6  C   UNL     1       3.556  -3.709  -4.065  0.00  0.00    +0.038 A 
ATOM      7  C   UNL     1       4.444  -3.708  -2.915  0.00  0.00    +0.052 A 
ATOM      8  C   UNL     1       5.798  -3.832  -3.133  0.00  0.00    +0.073 A 
ATOM      9  S   UNL     1       5.919  -3.967  -4.906  0.00  0.00    -0.064 S 
ENDROOT
BRANCH   8  10
ATOM     10  C   UNL     1       6.844  -3.857  -2.176  0.00  0.00    +0.108 C 
ATOM     11  N   UNL     1       6.670  -3.496  -0.907  0.00  0.00    -0.371 N 
ATOM     12  C   UNL     1       7.944  -3.637  -0.185  0.00  0.00    +0.132 C 
ATOM     13  C   UNL     1       8.918  -4.151  -1.263  0.00  0.00    +0.124 C 
ATOM     14  N   UNL     1       8.082  -4.247  -2.469  0.00  0.00    -0.328 N 
ATOM     15  H   UNL     1       8.385  -4.546  -3.341  0.00  0.00    +0.147 HD
ATOM     16  H   UNL     1       5.835  -3.189  -0.520  0.00  0.00    +0.161 HD
ENDBRANCH   8  10
BRANCH   1  20
ATOM     17  C   UNL     1      -0.060  -3.188  -0.471  0.00  0.00    +0.120 A 
ATOM     18  C   UNL     1       0.034  -2.115  -1.349  0.00  0.00    +0.046 A 
ATOM     19  C   UNL     1       0.744  -2.244  -2.523  0.00  0.00    +0.012 A 
ATOM     20  C   UNL     1       1.371  -3.453  -2.829  0.00  0.00    -0.016 A 
ATOM     21  C   UNL     1       1.275  -4.529  -1.943  0.00  0.00    +0.012 A 
ATOM     22  C   UNL     1       0.567  -4.391  -0.770  0.00  0.00    +0.046 A 
BRANCH  17  24
ATOM     23  C   UNL     1      -1.382  -1.794   0.928  0.00  0.00    +0.277 C 
ATOM     24  O   UNL     1      -0.762  -3.058   0.684  0.00  0.00    -0.495 OA
ENDBRANCH  17  24
ENDBRANCH   1  20
BRANCH   7  25
ATOM     25  N   UNL     1       3.939  -3.586  -1.627  0.00  0.00    -0.356 N 
ATOM     26  H   UNL     1       4.327  -4.101  -0.903  0.00  0.00    +0.142 HD
ATOM     27  H   UNL     1       3.198  -2.984  -1.451  0.00  0.00    +0.142 HD
ENDBRANCH   7  25
BRANCH   3  28
ATOM     28  N   UNL     1       1.573  -3.770  -7.733  0.00  0.00    -0.342 N 
ATOM     29  H   UNL     1       0.607  -3.690  -7.772  0.00  0.00    +0.144 HD
ATOM     30  H   UNL     1       2.085  -3.863  -8.552  0.00  0.00    +0.144 HD
ENDBRANCH   3  28
BRANCH   2  31
ATOM     31  C   UNL     1       0.049  -3.498  -5.380  0.00  0.00    +0.103 C 
ATOM     32  N   UNL     1      -1.083  -3.405  -5.424  0.00  0.00    -0.191 NA
ENDBRANCH   2  31
TORSDOF 6
