REMARK  Name = ZINC40464258
REMARK  10 active torsions:
REMARK  status: ('A' for Active; 'I' for Inactive)
REMARK    1  A    between atoms: C_1  and  C_2
REMARK    2  A    between atoms: C_6  and  O_18
REMARK    3  A    between atoms: C_7  and  N_8
REMARK    4  A    between atoms: C_9  and  C_11
REMARK    5  A    between atoms: C_11  and  C_13
REMARK    6  A    between atoms: C_11  and  N_17
REMARK    7  A    between atoms: C_13  and  C_14
REMARK    8  A    between atoms: C_14  and  S_15
REMARK    9  A    between atoms: S_15  and  C_16
REMARK   10  A    between atoms: O_18  and  C_19
REMARK                            x       y       z     vdW  Elec       q    Type
REMARK                         _______ _______ _______ _____ _____    ______ ____
ROOT
ATOM      1  N   UNL     1       0.025  -0.011   2.418  0.00  0.00    -0.284 N 
ATOM      2  C   UNL     1      -0.355  -0.637   3.549  0.00  0.00    +0.203 C 
ATOM      3  O   UNL     1      -0.612  -1.823   3.530  0.00  0.00    -0.277 OA
ATOM      4  H   UNL     1       0.300   0.918   2.447  0.00  0.00    +0.155 HD
ENDROOT
BRANCH   1  11
ATOM      5  C   UNL     1       2.430  -1.283   1.588  0.00  0.00    +0.046 C 
ATOM      6  C   UNL     1       1.174  -1.338   0.757  0.00  0.00    -0.025 A 
ATOM      7  C   UNL     1       1.168  -2.025  -0.442  0.00  0.00    +0.020 A 
ATOM      8  C   UNL     1       0.017  -2.077  -1.207  0.00  0.00    +0.022 A 
ATOM      9  C   UNL     1      -1.134  -1.442  -0.775  0.00  0.00    +0.062 A 
ATOM     10  C   UNL     1      -1.135  -0.752   0.426  0.00  0.00    +0.142 A 
ATOM     11  C   UNL     1       0.022  -0.704   1.199  0.00  0.00    +0.079 A 
ATOM     12 BR   UNL     1       0.016  -3.018  -2.847  0.00  0.00    -0.050 Br
BRANCH  10  13
ATOM     13  O   UNL     1      -2.266  -0.127   0.851  0.00  0.00    -0.493 OA
ATOM     14  C   UNL     1      -3.416  -0.223   0.009  0.00  0.00    +0.277 C 
ENDBRANCH  10  13
ENDBRANCH   1  11
BRANCH   2  15
ATOM     15  C   UNL     1      -0.461   0.135   4.838  0.00  0.00    +0.014 C 
BRANCH  15  16
ATOM     16  N   UNL     1      -1.319  -0.597   5.779  0.00  0.00    +0.386 N 
ATOM     17  H   UNL     1      -2.238  -0.710   5.378  0.00  0.00    -0.089 HD
ATOM     18  H   UNL     1      -0.919  -1.505   5.963  0.00  0.00    -0.089 HD
ATOM     19  H   UNL     1      -1.390  -0.080   6.643  0.00  0.00    -0.089 HD
ENDBRANCH  15  16
BRANCH  15  20
ATOM     20  C   UNL     1       0.932   0.306   5.447  0.00  0.00    +0.003 C 
BRANCH  20  21
ATOM     21  C   UNL     1       0.841   1.196   6.688  0.00  0.00    +0.068 C 
BRANCH  21  22
ATOM     22  S   UNL     1       2.493   1.399   7.409  0.00  0.00    -0.164 S 
ATOM     23  C   UNL     1       2.215   2.463   8.851  0.00  0.00    +0.084 C 
ENDBRANCH  21  22
ENDBRANCH  20  21
ENDBRANCH  15  20
ENDBRANCH   2  15
TORSDOF 7
