REMARK  Name = ZINC63633432
REMARK  5 active torsions:
REMARK  status: ('A' for Active; 'I' for Inactive)
REMARK    1  A    between atoms: C_1  and  C_2
REMARK    2  A    between atoms: C_7  and  C_27
REMARK    3  A    between atoms: N_15  and  C_16
REMARK    4  A    between atoms: C_16  and  C_17
REMARK    5  A    between atoms: C_17  and  C_18
REMARK                            x       y       z     vdW  Elec       q    Type
REMARK                         _______ _______ _______ _____ _____    ______ ____
ROOT
ATOM      1  C   UNL     1      -0.018   1.503   0.010  0.00  0.00    +0.060 C 
ATOM      2  C   UNL     1       0.002  -0.004   0.002  0.00  0.00    +0.008 C 
ATOM      3  C   UNL     1       0.005  -0.653  -1.174  0.00  0.00    +0.085 C 
ATOM      4  C   UNL     1       0.006  -2.062  -1.256  0.00  0.00    +0.245 C 
ATOM      5  O   UNL     1       0.018  -2.604  -2.346  0.00  0.00    -0.270 OA
ATOM      6  N   UNL     1      -0.006  -2.809  -0.142  0.00  0.00    -0.237 N 
ATOM      7  C   UNL     1      -0.101  -4.269  -0.179  0.00  0.00    +0.232 C 
ATOM      8  N   UNL     1      -1.061  -4.716   0.832  0.00  0.00    -0.228 NA
ATOM      9  C   UNL     1      -1.500  -3.943   1.772  0.00  0.00    +0.180 C 
ATOM     10  N   UNL     1      -1.129  -2.625   1.895  0.00  0.00    -0.284 N 
ATOM     11  C   UNL     1       0.060  -2.146   1.175  0.00  0.00    +0.257 C 
ATOM     12  N   UNL     1       0.022  -0.677   1.192  0.00  0.00    -0.314 N 
ATOM     13  N   UNL     1      -2.379  -4.464   2.692  0.00  0.00    -0.317 N 
ATOM     14  H   UNL     1      -1.646  -2.019   2.449  0.00  0.00    +0.152 HD
ATOM     15  H   UNL     1       0.010  -0.194   2.033  0.00  0.00    +0.149 HD
ATOM     16  H   UNL     1      -2.722  -3.905   3.406  0.00  0.00    +0.149 HD
ENDROOT
BRANCH   7  17
ATOM     17  C   UNL     1       1.251  -4.869   0.108  0.00  0.00    +0.013 A 
ATOM     18  C   UNL     1       1.353  -6.107   0.723  0.00  0.00    +0.010 A 
ATOM     19  C   UNL     1       2.618  -6.620   0.969  0.00  0.00    +0.020 A 
ATOM     20  C   UNL     1       3.727  -5.885   0.595  0.00  0.00    +0.111 A 
ATOM     21  N   UNL     1       3.592  -4.709   0.012  0.00  0.00    -0.263 NA
ATOM     22  C   UNL     1       2.405  -4.194  -0.242  0.00  0.00    +0.118 A 
ENDBRANCH   7  17
BRANCH  13  23
ATOM     23  C   UNL     1      -2.797  -5.865   2.593  0.00  0.00    +0.108 C 
BRANCH  23  24
ATOM     24  C   UNL     1      -3.769  -6.188   3.729  0.00  0.00    +0.052 C 
BRANCH  24  25
ATOM     25  C   UNL     1      -4.200  -7.629   3.627  0.00  0.00    -0.040 C 
ATOM     26  C   UNL     1      -3.662  -8.685   4.278  0.00  0.00    -0.001 A 
ATOM     27  C   UNL     1      -2.558  -8.806   5.238  0.00  0.00    +0.010 A 
ATOM     28  C   UNL     1      -2.245 -10.027   5.728  0.00  0.00    +0.001 A 
ATOM     29  C   UNL     1      -2.946 -11.178   5.343  0.00  0.00    +0.002 A 
ATOM     30  C   UNL     1      -3.972 -11.147   4.466  0.00  0.00    +0.026 A 
ATOM     31  C   UNL     1      -4.387  -9.916   3.888  0.00  0.00    +0.043 A 
ATOM     32  N   UNL     1      -5.336  -9.631   3.029  0.00  0.00    -0.380 N 
ATOM     33  C   UNL     1      -5.324  -8.184   2.782  0.00  0.00    +0.144 C 
ATOM     34  H   UNL     1      -5.946 -10.268   2.627  0.00  0.00    +0.160 HD
ENDBRANCH  24  25
ENDBRANCH  23  24
ENDBRANCH  13  23
TORSDOF 4
