REMARK  Name = ZINC16284203
REMARK  9 active torsions:
REMARK  status: ('A' for Active; 'I' for Inactive)
REMARK    1  A    between atoms: C_1  and  C_2
REMARK    2  A    between atoms: C_7  and  C_8
REMARK    3  A    between atoms: C_10  and  C_12
REMARK    4  A    between atoms: C_15  and  N_19
REMARK    5  A    between atoms: C_17  and  O_18
REMARK    6  A    between atoms: N_19  and  C_20
REMARK    7  A    between atoms: C_20  and  N_22
REMARK    8  A    between atoms: C_23  and  C_25
REMARK    9  A    between atoms: C_26  and  C_27
REMARK                            x       y       z     vdW  Elec       q    Type
REMARK                         _______ _______ _______ _____ _____    ______ ____
ROOT
ATOM      1  C   UNL     1       0.090  -5.452  -2.428  0.00  0.00    +0.078 A 
ATOM      2  C   UNL     1       0.492  -6.625  -1.784  0.00  0.00    +0.018 A 
ATOM      3  C   UNL     1       0.497  -7.819  -2.469  0.00  0.00    +0.024 A 
ATOM      4  C   UNL     1       0.101  -7.862  -3.803  0.00  0.00    +0.036 A 
ATOM      5  C   UNL     1      -0.300  -6.702  -4.451  0.00  0.00    +0.069 A 
ATOM      6  C   UNL     1      -0.314  -5.498  -3.770  0.00  0.00    +0.131 A 
ENDROOT
BRANCH   1  16
ATOM      7  C   UNL     1      -0.423   1.509  -0.035  0.00  0.00    +0.044 C 
ATOM      8  C   UNL     1      -0.166   0.025  -0.063  0.00  0.00    -0.045 A 
ATOM      9  C   UNL     1      -0.394  -0.687  -1.220  0.00  0.00    +0.035 A 
ATOM     10  C   UNL     1      -0.156  -2.063  -1.246  0.00  0.00    +0.110 A 
ATOM     11  C   UNL     1       0.315  -2.708  -0.090  0.00  0.00    +0.156 A 
ATOM     12  C   UNL     1       0.537  -1.976   1.065  0.00  0.00    +0.052 A 
ATOM     13  C   UNL     1       0.303  -0.616   1.073  0.00  0.00    -0.044 A 
ATOM     14  C   UNL     1       0.553   0.179   2.329  0.00  0.00    +0.044 C 
ATOM     15  O   UNL     1       0.451  -4.014  -0.410  0.00  0.00    -0.435 OA
ATOM     16  C   UNL     1       0.084  -4.171  -1.697  0.00  0.00    +0.232 A 
ATOM     17  N   UNL     1      -0.278  -3.018  -2.203  0.00  0.00    -0.209 NA
ENDBRANCH   1  16
BRANCH   6  18
ATOM     18  O   UNL     1      -0.711  -4.363  -4.400  0.00  0.00    -0.506 OA
ATOM     19  H   UNL     1       0.006  -3.885  -4.838  0.00  0.00    +0.292 HD
ENDBRANCH   6  18
BRANCH   4  20
ATOM     20  N   UNL     1       0.109  -9.077  -4.491  0.00  0.00    -0.296 N 
ATOM     21  H   UNL     1       0.873  -9.670  -4.419  0.00  0.00    +0.154 HD
BRANCH  20  22
ATOM     22  C   UNL     1      -0.945  -9.424  -5.256  0.00  0.00    +0.141 C 
ATOM     23  S   UNL     1      -2.245  -8.331  -5.470  0.00  0.00    -0.018 S 
BRANCH  22  24
ATOM     24  N   UNL     1      -0.976 -10.633  -5.852  0.00  0.00    -0.264 N 
ATOM     25  C   UNL     1      -2.030 -10.980  -6.617  0.00  0.00    +0.242 C 
ATOM     26  O   UNL     1      -2.954 -10.204  -6.769  0.00  0.00    -0.270 OA
ATOM     27  H   UNL     1      -0.239 -11.252  -5.731  0.00  0.00    +0.157 HD
BRANCH  25  28
ATOM     28  C   UNL     1      -2.063 -12.291  -7.263  0.00  0.00    +0.068 C 
ATOM     29  C   UNL     1      -3.118 -12.640  -8.029  0.00  0.00    +0.014 C 
BRANCH  29  30
ATOM     30  C   UNL     1      -3.151 -13.958  -8.680  0.00  0.00    -0.006 A 
ATOM     31  C   UNL     1      -2.093 -14.856  -8.503  0.00  0.00    +0.011 A 
ATOM     32  C   UNL     1      -2.131 -16.090  -9.116  0.00  0.00    +0.020 A 
ATOM     33  C   UNL     1      -3.214 -16.443  -9.906  0.00  0.00    +0.042 A 
ATOM     34  C   UNL     1      -4.265 -15.560 -10.087  0.00  0.00    +0.040 A 
ATOM     35  C   UNL     1      -4.245 -14.323  -9.475  0.00  0.00    +0.049 A 
ATOM     36 CL   UNL     1      -5.567 -13.220  -9.696  0.00  0.00    -0.083 Cl
ATOM     37 CL   UNL     1      -3.251 -17.999 -10.674  0.00  0.00    -0.083 Cl
ENDBRANCH  29  30
ENDBRANCH  25  28
ENDBRANCH  22  24
ENDBRANCH  20  22
ENDBRANCH   4  20
TORSDOF 7
