REMARK  Name = ZINC63137370
REMARK  8 active torsions:
REMARK  status: ('A' for Active; 'I' for Inactive)
REMARK    1  A    between atoms: C_1  and  C_2
REMARK    2  A    between atoms: C_2  and  C_3
REMARK    3  A    between atoms: C_2  and  C_4
REMARK    4  A    between atoms: C_7  and  C_10
REMARK    5  A    between atoms: N_29  and  C_32
REMARK    6  A    between atoms: C_32  and  C_33
REMARK    7  A    between atoms: C_33  and  C_35
REMARK    8  A    between atoms: C_33  and  O_41
REMARK                            x       y       z     vdW  Elec       q    Type
REMARK                         _______ _______ _______ _____ _____    ______ ____
ROOT
ATOM      1  C   UNL     1      -5.419  -2.005   0.043  0.00  0.00    +0.133 C 
ATOM      2  C   UNL     1      -5.419  -3.495   0.393  0.00  0.00    +0.131 C 
ATOM      3  C   UNL     1      -6.826  -4.010   0.121  0.00  0.00    -0.034 C 
ATOM      4  C   UNL     1      -7.249  -4.564   1.252  0.00  0.00    -0.001 A 
ATOM      5  C   UNL     1      -8.486  -5.287   1.586  0.00  0.00    +0.010 A 
ATOM      6  C   UNL     1      -8.600  -5.718   2.870  0.00  0.00    +0.001 A 
ATOM      7  C   UNL     1      -7.619  -5.505   3.843  0.00  0.00    +0.002 A 
ATOM      8  C   UNL     1      -6.448  -4.855   3.622  0.00  0.00    +0.026 A 
ATOM      9  C   UNL     1      -6.211  -4.359   2.308  0.00  0.00    +0.043 A 
ATOM     10  N   UNL     1      -5.163  -3.723   1.817  0.00  0.00    -0.375 N 
ATOM     11  C   UNL     1      -7.525  -3.793  -1.199  0.00  0.00    +0.065 C 
ATOM     12  C   UNL     1      -7.394  -2.294  -1.524  0.00  0.00    +0.167 C 
ATOM     13  N   UNL     1      -6.019  -1.857  -1.302  0.00  0.00    -0.279 N 
ATOM     14  C   UNL     1      -5.264  -1.325  -2.270  0.00  0.00    +0.234 C 
ATOM     15  O   UNL     1      -4.126  -1.014  -1.990  0.00  0.00    -0.274 OA
ATOM     16  C   UNL     1      -5.724  -1.088  -3.670  0.00  0.00    +0.203 C 
ATOM     17  N   UNL     1      -7.104  -1.496  -3.873  0.00  0.00    -0.288 N 
ATOM     18  C   UNL     1      -7.859  -2.039  -2.920  0.00  0.00    +0.237 C 
ATOM     19  O   UNL     1      -8.998  -2.343  -3.202  0.00  0.00    -0.274 OA
ATOM     20  H   UNL     1      -4.369  -3.449   2.302  0.00  0.00    +0.160 HD
ENDROOT
BRANCH   1  24
ATOM     21  C   UNL     1      -1.413  -0.523   0.009  0.00  0.00    -0.045 A 
ATOM     22  C   UNL     1      -1.670  -1.829  -0.363  0.00  0.00    +0.004 A 
ATOM     23  C   UNL     1      -2.966  -2.309  -0.352  0.00  0.00    +0.006 A 
ATOM     24  C   UNL     1      -4.006  -1.482   0.032  0.00  0.00    -0.025 A 
ATOM     25  C   UNL     1      -3.748  -0.176   0.406  0.00  0.00    +0.006 A 
ATOM     26  C   UNL     1      -2.451   0.302   0.398  0.00  0.00    +0.004 A 
BRANCH  21  28
ATOM     27  C   UNL     1       0.862  -0.837   0.946  0.00  0.00    +0.012 C 
ATOM     28  C   UNL     1       0.001  -0.000  -0.003  0.00  0.00    +0.013 C 
ATOM     29  C   UNL     1       0.567  -0.093  -1.421  0.00  0.00    +0.012 C 
ENDBRANCH  21  28
ENDBRANCH   1  24
BRANCH  17  30
ATOM     30  C   UNL     1      -7.696  -1.302  -5.198  0.00  0.00    +0.144 C 
BRANCH  30  31
ATOM     31  C   UNL     1      -7.456  -2.548  -6.052  0.00  0.00    +0.162 C 
BRANCH  31  32
ATOM     32  C   UNL     1      -8.065  -2.349  -7.416  0.00  0.00    -0.018 A 
ATOM     33  C   UNL     1      -7.348  -1.702  -8.405  0.00  0.00    +0.006 A 
ATOM     34  C   UNL     1      -7.907  -1.519  -9.656  0.00  0.00    +0.000 A 
ATOM     35  C   UNL     1      -9.182  -1.982  -9.918  0.00  0.00    +0.000 A 
ATOM     36  C   UNL     1      -9.899  -2.630  -8.929  0.00  0.00    +0.000 A 
ATOM     37  C   UNL     1      -9.339  -2.817  -7.679  0.00  0.00    +0.006 A 
ENDBRANCH  31  32
BRANCH  31  38
ATOM     38  O   UNL     1      -6.051  -2.771  -6.186  0.00  0.00    -0.386 OA
ATOM     39  H   UNL     1      -5.575  -2.041  -6.606  0.00  0.00    +0.210 HD
ENDBRANCH  31  38
ENDBRANCH  30  31
ENDBRANCH  17  30
TORSDOF 6
