REMARK  Name = ZINC20762918
REMARK  7 active torsions:
REMARK  status: ('A' for Active; 'I' for Inactive)
REMARK    1  A    between atoms: C_1  and  C_2
REMARK    2  A    between atoms: C_5  and  C_8
REMARK    3  A    between atoms: C_10  and  C_24
REMARK    4  A    between atoms: C_13  and  C_16
REMARK    5  A    between atoms: C_21  and  O_22
REMARK    6  A    between atoms: C_29  and  O_30
REMARK    7  A    between atoms: O_30  and  C_31
REMARK                            x       y       z     vdW  Elec       q    Type
REMARK                         _______ _______ _______ _____ _____    ______ ____
ROOT
ATOM      1  C   UNL     1      -2.217   1.330   1.114  0.00  0.00    +0.040 C 
ATOM      2  N   UNL     1      -2.772   1.052  -0.005  0.00  0.00    -0.298 NA
ATOM      3  C   UNL     1      -2.054   0.938  -1.269  0.00  0.00    +0.084 C 
ATOM      4  N   UNL     1      -0.737   1.580  -1.176  0.00  0.00    +0.401 N 
ATOM      5  C   UNL     1      -0.013   1.086   0.008  0.00  0.00    -0.028 C 
ATOM      6  C   UNL     1      -0.742   1.586   1.259  0.00  0.00    +0.044 C 
ATOM      7  H   UNL     1      -0.152   1.348  -2.078  0.00  0.00    -0.081 HD
ATOM      8  H   UNL     1      -0.865   2.669  -1.091  0.00  0.00    -0.081 HD
ENDROOT
BRANCH   1  13
ATOM      9  C   UNL     1      -5.522   1.613   5.814  0.00  0.00    +0.044 C 
ATOM     10  C   UNL     1      -4.656   1.539   4.583  0.00  0.00    -0.050 A 
ATOM     11  C   UNL     1      -5.226   1.241   3.357  0.00  0.00    +0.004 A 
ATOM     12  C   UNL     1      -4.439   1.171   2.226  0.00  0.00    +0.010 A 
ATOM     13  C   UNL     1      -3.065   1.403   2.320  0.00  0.00    -0.004 A 
ATOM     14  C   UNL     1      -2.497   1.698   3.560  0.00  0.00    +0.010 A 
ATOM     15  C   UNL     1      -3.296   1.769   4.683  0.00  0.00    +0.004 A 
ENDBRANCH   1  13
BRANCH   5  16
ATOM     16  C   UNL     1       1.399   1.613  -0.003  0.00  0.00    -0.018 A 
ATOM     17  C   UNL     1       1.698   2.774  -0.690  0.00  0.00    +0.020 A 
ATOM     18  C   UNL     1       2.992   3.261  -0.696  0.00  0.00    +0.018 A 
ATOM     19  C   UNL     1       3.993   2.582  -0.023  0.00  0.00    +0.019 A 
ATOM     20  C   UNL     1       3.699   1.419   0.661  0.00  0.00    +0.047 A 
ATOM     21  C   UNL     1       2.400   0.931   0.673  0.00  0.00    +0.119 A 
ATOM     22 BR   UNL     1       3.397   4.854  -1.632  0.00  0.00    -0.050 Br
BRANCH  21  23
ATOM     23  O   UNL     1       2.109  -0.213   1.345  0.00  0.00    -0.507 OA
ATOM     24  H   UNL     1       2.903  -0.754   1.881  0.00  0.00    +0.292 HD
ENDBRANCH  21  23
ENDBRANCH   5  16
BRANCH   3  25
ATOM     25  C   UNL     1      -2.855   1.604  -2.357  0.00  0.00    +0.001 A 
ATOM     26  C   UNL     1      -2.209   2.250  -3.394  0.00  0.00    +0.007 A 
ATOM     27  C   UNL     1      -2.944   2.861  -4.393  0.00  0.00    +0.000 A 
ATOM     28  C   UNL     1      -4.326   2.827  -4.358  0.00  0.00    +0.004 A 
ATOM     29  C   UNL     1      -4.976   2.183  -3.324  0.00  0.00    +0.046 A 
ATOM     30  C   UNL     1      -4.241   1.565  -2.322  0.00  0.00    +0.123 A 
BRANCH  30  31
ATOM     31  O   UNL     1      -4.878   0.925  -1.306  0.00  0.00    -0.495 OA
ATOM     32  C   UNL     1      -6.307   0.925  -1.335  0.00  0.00    +0.277 C 
ENDBRANCH  30  31
ENDBRANCH   3  25
TORSDOF 5
