REMARK  Name = ZINC50729381
REMARK  6 active torsions:
REMARK  status: ('A' for Active; 'I' for Inactive)
REMARK    1  A    between atoms: C_3  and  C_6
REMARK    2  A    between atoms: C_6  and  C_8
REMARK    3  A    between atoms: C_6  and  N_24
REMARK    4  A    between atoms: C_8  and  C_9
REMARK    5  A    between atoms: C_15  and  C_18
REMARK    6  A    between atoms: N_20  and  C_21
REMARK                            x       y       z     vdW  Elec       q    Type
REMARK                         _______ _______ _______ _____ _____    ______ ____
ROOT
ATOM      1  C   UNL     1       5.712   2.397   1.403  0.00  0.00    +0.218 C 
ATOM      2  O   UNL     1       6.181   2.852   0.382  0.00  0.00    -0.276 OA
ATOM      3  N   UNL     1       6.418   2.448   2.550  0.00  0.00    -0.301 N 
ATOM      4  C   UNL     1       5.865   1.896   3.795  0.00  0.00    +0.108 C 
ATOM      5  C   UNL     1       5.918   2.975   4.880  0.00  0.00    +0.020 C 
ATOM      6  C   UNL     1       7.351   3.497   5.006  0.00  0.00    +0.016 C 
ATOM      7  C   UNL     1       7.786   4.123   3.679  0.00  0.00    +0.092 C 
ATOM      8  C   UNL     1       7.757   3.052   2.579  0.00  0.00    +0.120 C 
ENDROOT
BRANCH   7   9
ATOM      9  C   UNL     1       9.186   4.666   3.814  0.00  0.00    +0.218 C 
ATOM     10  O   UNL     1      10.071   4.244   3.100  0.00  0.00    -0.275 OA
ATOM     11  N   UNL     1       9.454   5.620   4.728  0.00  0.00    -0.312 N 
ATOM     12  H   UNL     1       8.746   5.957   5.298  0.00  0.00    +0.149 HD
BRANCH  11  13
ATOM     13  C   UNL     1      10.814   6.147   4.859  0.00  0.00    +0.073 C 
ATOM     14  C   UNL     1      11.364   6.339   6.273  0.00  0.00    +0.024 C 
ATOM     15  C   UNL     1      10.973   7.556   5.433  0.00  0.00    +0.024 C 
ENDBRANCH  11  13
ENDBRANCH   7   9
BRANCH   1  16
ATOM     16  C   UNL     1       4.339   1.775   1.390  0.00  0.00    +0.123 C 
BRANCH  16  17
ATOM     17  C   UNL     1       3.761   1.845  -0.024  0.00  0.00    +0.120 C 
BRANCH  17  18
ATOM     18  N   UNL     1       4.569   1.019  -0.924  0.00  0.00    -0.292 N 
ATOM     19  C   UNL     1       4.700  -0.302  -0.691  0.00  0.00    +0.298 C 
ATOM     20  O   UNL     1       4.147  -0.808   0.266  0.00  0.00    -0.253 OA
ATOM     21  N   UNL     1       5.444  -1.062  -1.519  0.00  0.00    -0.313 N 
ATOM     22  H   UNL     1       5.011   1.423  -1.688  0.00  0.00    +0.151 HD
ATOM     23  H   UNL     1       5.885  -0.658  -2.283  0.00  0.00    +0.146 HD
ATOM     24  H   UNL     1       5.538  -2.012  -1.352  0.00  0.00    +0.146 HD
ENDBRANCH  17  18
BRANCH  17  27
ATOM     25  C   UNL     1      -0.016   1.351   0.009  0.00  0.00    +0.008 A 
ATOM     26  C   UNL     1       1.183   2.038   0.002  0.00  0.00    +0.013 A 
ATOM     27  C   UNL     1       2.343   1.336  -0.013  0.00  0.00    +0.010 A 
ATOM     28  S   UNL     1       1.754  -0.349  -0.017  0.00  0.00    -0.100 S 
ATOM     29  C   UNL     1       0.002  -0.004   0.002  0.00  0.00    +0.045 A 
ENDBRANCH  17  27
ENDBRANCH  16  17
ENDBRANCH   1  16
TORSDOF 6
