REMARK  Name = ZINC20113337
REMARK  7 active torsions:
REMARK  status: ('A' for Active; 'I' for Inactive)
REMARK    1  A    between atoms: C_1  and  C_2
REMARK    2  A    between atoms: C_19  and  C_21
REMARK    3  A    between atoms: C_21  and  N_22
REMARK    4  A    between atoms: N_25  and  C_28
REMARK    5  A    between atoms: C_28  and  C_29
REMARK    6  A    between atoms: C_28  and  C_35
REMARK    7  A    between atoms: C_28  and  O_41
REMARK                            x       y       z     vdW  Elec       q    Type
REMARK                         _______ _______ _______ _____ _____    ______ ____
ROOT
ATOM      1  N   UNL     1      -5.280   4.085  -4.461  0.00  0.00    +0.382 N 
ATOM      2  C   UNL     1      -6.018   2.997  -5.117  0.00  0.00    -0.063 C 
ATOM      3  C   UNL     1      -7.194   3.582  -5.903  0.00  0.00    +0.069 C 
ATOM      4  N   UNL     1      -6.687   4.543  -6.894  0.00  0.00    -0.271 NA
ATOM      5  C   UNL     1      -5.949   5.631  -6.238  0.00  0.00    +0.069 C 
ATOM      6  C   UNL     1      -4.773   5.045  -5.452  0.00  0.00    -0.063 C 
ATOM      7  H   UNL     1      -5.978   4.618  -3.798  0.00  0.00    -0.082 HD
ENDROOT
BRANCH   1   8
ATOM      8  C   UNL     1      -4.187   3.557  -3.634  0.00  0.00    -0.064 C 
BRANCH   8  24
ATOM      9  C   UNL     1      -2.349   4.543   0.609  0.00  0.00    +0.012 C 
ATOM     10  C   UNL     1      -1.936   3.070   0.587  0.00  0.00    -0.022 C 
ATOM     11  C   UNL     1      -0.877   2.779   1.661  0.00  0.00    +0.007 C 
ATOM     12  C   UNL     1      -0.613   1.273   1.720  0.00  0.00    +0.005 C 
ATOM     13  C   UNL     1      -0.025   0.797   0.388  0.00  0.00    +0.030 C 
ATOM     14  C   UNL     1      -0.934   1.243  -0.737  0.00  0.00    -0.073 C 
ATOM     15  C   UNL     1      -1.353   0.396  -1.645  0.00  0.00    +0.008 C 
ATOM     16  C   UNL     1      -1.344   2.696  -0.779  0.00  0.00    +0.021 C 
ATOM     17  C   UNL     1      -2.381   2.934  -1.863  0.00  0.00    +0.016 C 
ATOM     18  C   UNL     1      -3.634   2.084  -1.642  0.00  0.00    +0.042 C 
ATOM     19  C   UNL     1      -4.186   2.297  -0.218  0.00  0.00    +0.181 C 
ATOM     20  C   UNL     1      -3.138   2.171   0.856  0.00  0.00    +0.052 C 
ATOM     21  O   UNL     1      -4.799   3.615  -0.285  0.00  0.00    -0.461 OA
ATOM     22  C   UNL     1      -5.442   3.693  -1.472  0.00  0.00    +0.309 C 
ATOM     23  O   UNL     1      -6.400   4.392  -1.704  0.00  0.00    -0.251 OA
ATOM     24  C   UNL     1      -4.772   2.762  -2.464  0.00  0.00    +0.088 C 
ENDBRANCH   8  24
ENDBRANCH   1   8
BRANCH   4  25
ATOM     25  C   UNL     1      -7.780   5.071  -7.721  0.00  0.00    +0.172 C 
BRANCH  25  26
ATOM     26  C   UNL     1      -7.224   6.058  -8.715  0.00  0.00    +0.003 A 
ATOM     27  C   UNL     1      -5.955   5.880  -9.231  0.00  0.00    +0.008 A 
ATOM     28  C   UNL     1      -5.447   6.783 -10.146  0.00  0.00    +0.000 A 
ATOM     29  C   UNL     1      -6.206   7.870 -10.538  0.00  0.00    +0.000 A 
ATOM     30  C   UNL     1      -7.474   8.051 -10.019  0.00  0.00    +0.000 A 
ATOM     31  C   UNL     1      -7.983   7.146  -9.107  0.00  0.00    +0.008 A 
ENDBRANCH  25  26
BRANCH  25  32
ATOM     32  C   UNL     1      -8.446   3.938  -8.457  0.00  0.00    +0.003 A 
ATOM     33  C   UNL     1      -7.697   2.858  -8.887  0.00  0.00    +0.008 A 
ATOM     34  C   UNL     1      -8.309   1.816  -9.559  0.00  0.00    +0.000 A 
ATOM     35  C   UNL     1      -9.668   1.858  -9.809  0.00  0.00    +0.000 A 
ATOM     36  C   UNL     1     -10.416   2.940  -9.383  0.00  0.00    +0.000 A 
ATOM     37  C   UNL     1      -9.805   3.980  -8.708  0.00  0.00    +0.008 A 
ENDBRANCH  25  32
BRANCH  25  38
ATOM     38  O   UNL     1      -8.737   5.724  -6.885  0.00  0.00    -0.366 OA
ATOM     39  H   UNL     1      -9.632   6.185  -7.329  0.00  0.00    +0.212 HD
ENDBRANCH  25  38
ENDBRANCH   4  25
TORSDOF 6
