REMARK  Name = ZINC61501207
REMARK  10 active torsions:
REMARK  status: ('A' for Active; 'I' for Inactive)
REMARK    1  A    between atoms: C_1  and  N_2
REMARK    2  A    between atoms: N_2  and  C_3
REMARK    3  A    between atoms: N_2  and  C_20
REMARK    4  A    between atoms: C_3  and  C_4
REMARK    5  A    between atoms: C_4  and  C_5
REMARK    6  A    between atoms: C_5  and  N_6
REMARK    7  A    between atoms: N_9  and  C_10
REMARK    8  A    between atoms: C_10  and  C_11
REMARK    9  A    between atoms: C_10  and  C_17
REMARK   10  A    between atoms: C_20  and  C_21
REMARK                            x       y       z     vdW  Elec       q    Type
REMARK                         _______ _______ _______ _____ _____    ______ ____
ROOT
ATOM      1  N   UNL     1      -4.137  -0.282   2.599  0.00  0.00    -0.299 N 
ATOM      2  C   UNL     1      -5.414  -0.644   2.833  0.00  0.00    +0.300 C 
ATOM      3  O   UNL     1      -6.028  -1.280   1.998  0.00  0.00    -0.253 OA
ATOM      4  N   UNL     1      -6.010  -0.302   3.992  0.00  0.00    -0.284 N 
ATOM      5  H   UNL     1      -3.647   0.225   3.266  0.00  0.00    +0.150 HD
ATOM      6  H   UNL     1      -5.520   0.205   4.658  0.00  0.00    +0.151 HD
ENDROOT
BRANCH   1   7
ATOM      7  C   UNL     1      -3.488  -0.654   1.339  0.00  0.00    +0.104 C 
BRANCH   7   8
ATOM      8  C   UNL     1      -2.053  -0.124   1.328  0.00  0.00    +0.000 C 
BRANCH   8   9
ATOM      9  C   UNL     1      -1.376  -0.512   0.012  0.00  0.00    -0.077 C 
BRANCH   9  11
ATOM     10  C   UNL     1      -0.018   1.465   0.010  0.00  0.00    -0.096 C 
ATOM     11  N   UNL     1       0.002  -0.004   0.002  0.00  0.00    +0.381 N 
ATOM     12  H   UNL     1       0.490  -0.338   0.820  0.00  0.00    -0.082 HD
BRANCH  11  13
ATOM     13  C   UNL     1       0.690  -0.478  -1.207  0.00  0.00    -0.043 C 
BRANCH  13  14
ATOM     14  C   UNL     1       2.137  -0.060  -1.158  0.00  0.00    -0.064 A 
ATOM     15  C   UNL     1       2.523   1.157  -1.688  0.00  0.00    +0.002 A 
ATOM     16  C   UNL     1       3.850   1.540  -1.644  0.00  0.00    +0.000 A 
ATOM     17  C   UNL     1       4.791   0.708  -1.068  0.00  0.00    +0.000 A 
ATOM     18  C   UNL     1       4.405  -0.509  -0.536  0.00  0.00    +0.000 A 
ATOM     19  C   UNL     1       3.077  -0.890  -0.577  0.00  0.00    +0.002 A 
ENDBRANCH  13  14
ENDBRANCH  11  13
ENDBRANCH   9  11
ENDBRANCH   8   9
ENDBRANCH   7   8
ENDBRANCH   1   7
BRANCH   4  20
ATOM     20  C   UNL     1      -7.398  -0.696   4.246  0.00  0.00    +0.190 C 
BRANCH  20  21
ATOM     21  C   UNL     1      -8.018   0.259   5.234  0.00  0.00    -0.018 A 
ATOM     22  C   UNL     1      -7.279   0.719   6.308  0.00  0.00    +0.006 A 
ATOM     23  C   UNL     1      -7.848   1.594   7.214  0.00  0.00    +0.000 A 
ATOM     24  C   UNL     1      -9.156   2.009   7.046  0.00  0.00    +0.000 A 
ATOM     25  C   UNL     1      -9.894   1.550   5.971  0.00  0.00    +0.000 A 
ATOM     26  C   UNL     1      -9.324   0.678   5.063  0.00  0.00    +0.006 A 
ENDBRANCH  20  21
BRANCH  20  27
ATOM     27  C   UNL     1      -7.429  -2.093   4.810  0.00  0.00    +0.235 C 
ATOM     28  O   UNL     1      -6.393  -2.700   4.982  0.00  0.00    -0.274 OA
ATOM     29  N   UNL     1      -8.607  -2.668   5.122  0.00  0.00    -0.328 N 
ATOM     30  H   UNL     1      -9.435  -2.182   4.984  0.00  0.00    +0.145 HD
ATOM     31  H   UNL     1      -8.627  -3.567   5.485  0.00  0.00    +0.145 HD
ENDBRANCH  20  27
ENDBRANCH   4  20
TORSDOF 9
