REMARK  Name = ZINC23063210
REMARK  8 active torsions:
REMARK  status: ('A' for Active; 'I' for Inactive)
REMARK    1  A    between atoms: C_1  and  C_2
REMARK    2  A    between atoms: C_2  and  C_4
REMARK    3  A    between atoms: C_2  and  O_10
REMARK    4  A    between atoms: O_10  and  C_11
REMARK    5  A    between atoms: C_11  and  C_13
REMARK    6  A    between atoms: C_15  and  S_20
REMARK    7  A    between atoms: S_20  and  N_23
REMARK    8  A    between atoms: N_23  and  C_24
REMARK                            x       y       z     vdW  Elec       q    Type
REMARK                         _______ _______ _______ _____ _____    ______ ____
ROOT
ATOM      1  C   UNL     1       2.760  -1.126  -2.262  0.00  0.00    +0.075 A 
ATOM      2  C   UNL     1       2.100  -1.378  -3.467  0.00  0.00    +0.044 A 
ATOM      3  C   UNL     1       2.814  -1.821  -4.561  0.00  0.00    +0.106 A 
ATOM      4  C   UNL     1       4.181  -2.017  -4.467  0.00  0.00    +0.029 A 
ATOM      5  C   UNL     1       4.841  -1.771  -3.277  0.00  0.00    +0.018 A 
ATOM      6  C   UNL     1       4.141  -1.320  -2.175  0.00  0.00    +0.032 A 
ATOM      7 BR   UNL     1       5.047  -0.976  -0.551  0.00  0.00    -0.049 Br
ENDROOT
BRANCH   3   8
ATOM      8  S   UNL     1       1.983  -2.139  -6.081  0.00  0.00    +0.059 S 
ATOM      9  O   UNL     1       2.787  -3.067  -6.797  0.00  0.00    -0.153 OA
ATOM     10  O   UNL     1       0.625  -2.402  -5.755  0.00  0.00    -0.153 OA
BRANCH   8  11
ATOM     11  N   UNL     1       1.997  -0.730  -6.951  0.00  0.00    -0.187 NA
ATOM     12  H   UNL     1       1.164  -0.275  -7.151  0.00  0.00    +0.148 HD
BRANCH  11  13
ATOM     13  C   UNL     1       3.268  -0.171  -7.420  0.00  0.00    +0.077 C 
ATOM     14  C   UNL     1       3.388   1.353  -7.485  0.00  0.00    +0.022 C 
ATOM     15  C   UNL     1       3.270   0.539  -8.775  0.00  0.00    +0.022 C 
ENDBRANCH  11  13
ENDBRANCH   8  11
ENDBRANCH   3   8
BRANCH   1  16
ATOM     16  C   UNL     1       2.002  -0.651  -1.087  0.00  0.00    +0.341 C 
ATOM     17  O   UNL     1       2.580  -0.429  -0.041  0.00  0.00    -0.245 OA
BRANCH  16  18
ATOM     18  O   UNL     1       0.671  -0.465  -1.174  0.00  0.00    -0.449 OA
BRANCH  18  20
ATOM     19  C   UNL     1      -0.019   1.526   0.010  0.00  0.00    +0.062 C 
ATOM     20  C   UNL     1       0.002  -0.004   0.002  0.00  0.00    +0.259 C 
BRANCH  20  21
ATOM     21  C   UNL     1      -1.412  -0.526   0.013  0.00  0.00    +0.261 C 
ATOM     22  O   UNL     1      -1.836  -1.147  -0.938  0.00  0.00    -0.271 OA
ATOM     23  N   UNL     1      -2.204  -0.302   1.079  0.00  0.00    -0.237 N 
ATOM     24  C   UNL     1      -3.469  -0.768   1.089  0.00  0.00    +0.303 C 
ATOM     25  O   UNL     1      -3.894  -1.391   0.136  0.00  0.00    -0.253 OA
ATOM     26  N   UNL     1      -4.262  -0.544   2.156  0.00  0.00    -0.313 N 
ATOM     27  H   UNL     1      -1.865   0.195   1.840  0.00  0.00    +0.159 HD
ATOM     28  H   UNL     1      -3.922  -0.048   2.916  0.00  0.00    +0.146 HD
ATOM     29  H   UNL     1      -5.172  -0.880   2.163  0.00  0.00    +0.146 HD
ENDBRANCH  20  21
ENDBRANCH  18  20
ENDBRANCH  16  18
ENDBRANCH   1  16
TORSDOF 7
