REMARK  Name = ZINC42134293
REMARK  12 active torsions:
REMARK  status: ('A' for Active; 'I' for Inactive)
REMARK    1  A    between atoms: C_1  and  C_2
REMARK    2  A    between atoms: C_2  and  C_3
REMARK    3  A    between atoms: C_3  and  S_4
REMARK    4  A    between atoms: S_4  and  N_7
REMARK    5  A    between atoms: N_7  and  C_8
REMARK    6  A    between atoms: N_11  and  C_14
REMARK    7  A    between atoms: C_14  and  C_16
REMARK    8  A    between atoms: C_14  and  C_17
REMARK    9  A    between atoms: N_19  and  C_20
REMARK   10  A    between atoms: C_21  and  C_28
REMARK   11  A    between atoms: C_25  and  C_26
REMARK   12  A    between atoms: C_26  and  C_27
REMARK                            x       y       z     vdW  Elec       q    Type
REMARK                         _______ _______ _______ _____ _____    ______ ____
ROOT
ATOM      1  C   UNL     1       6.356   1.326  -1.780  0.00  0.00    +0.073 C 
ATOM      2  C   UNL     1       5.663  -0.006  -1.481  0.00  0.00    +0.002 C 
ATOM      3  C   UNL     1       6.467  -1.146  -2.110  0.00  0.00    -0.076 C 
ATOM      4  N   UNL     1       6.547  -0.950  -3.562  0.00  0.00    +0.387 N 
ATOM      5  C   UNL     1       7.274   0.290  -3.858  0.00  0.00    -0.076 C 
ATOM      6  C   UNL     1       6.501   1.485  -3.297  0.00  0.00    +0.002 C 
ATOM      7  H   UNL     1       5.615  -0.892  -3.944  0.00  0.00    -0.081 HD
ENDROOT
BRANCH   1   8
ATOM      8  N   UNL     1       5.552   2.428  -1.247  0.00  0.00    -0.192 NA
ATOM      9  H   UNL     1       4.820   2.792  -1.769  0.00  0.00    +0.148 HD
BRANCH   8  10
ATOM     10  S   UNL     1       5.891   3.052   0.249  0.00  0.00    +0.030 S 
ATOM     11  O   UNL     1       5.947   1.922   1.109  0.00  0.00    -0.158 OA
ATOM     12  O   UNL     1       4.917   4.067   0.449  0.00  0.00    -0.158 OA
BRANCH  10  13
ATOM     13  C   UNL     1       7.539   3.792   0.083  0.00  0.00    +0.185 C 
BRANCH  13  15
ATOM     14  C   UNL     1       9.349   5.031   1.278  0.00  0.00    +0.005 C 
ATOM     15  C   UNL     1       7.960   4.407   1.419  0.00  0.00    +0.021 C 
ENDBRANCH  13  15
ENDBRANCH  10  13
ENDBRANCH   8  10
ENDBRANCH   1   8
BRANCH   4  16
ATOM     16  C   UNL     1       7.252  -2.087  -4.170  0.00  0.00    +0.016 C 
ATOM     17  C   UNL     1       6.463  -3.372  -3.915  0.00  0.00    -0.004 C 
BRANCH  16  18
ATOM     18  C   UNL     1       7.380  -1.862  -5.654  0.00  0.00    +0.203 C 
ATOM     19  O   UNL     1       6.554  -1.196  -6.241  0.00  0.00    -0.277 OA
ATOM     20  N   UNL     1       8.414  -2.402  -6.331  0.00  0.00    -0.286 N 
ATOM     21  H   UNL     1       9.027  -3.004  -5.880  0.00  0.00    +0.155 HD
BRANCH  20  22
ATOM     22  C   UNL     1       8.602  -2.095  -7.683  0.00  0.00    +0.039 A 
ATOM     23  C   UNL     1       7.586  -2.336  -8.599  0.00  0.00    -0.029 A 
ATOM     24  C   UNL     1       7.775  -2.032  -9.933  0.00  0.00    +0.005 A 
ATOM     25  C   UNL     1       8.974  -1.488 -10.356  0.00  0.00    +0.001 A 
ATOM     26  C   UNL     1       9.987  -1.247  -9.447  0.00  0.00    +0.005 A 
ATOM     27  C   UNL     1       9.802  -1.543  -8.110  0.00  0.00    -0.026 A 
ATOM     28  C   UNL     1       6.280  -2.929  -8.138  0.00  0.00    +0.045 C 
BRANCH  27  29
ATOM     29  C   UNL     1      10.904  -1.274  -7.118  0.00  0.00    +0.033 C 
ATOM     30  C   UNL     1      11.730  -2.545  -6.916  0.00  0.00    +0.009 C 
ENDBRANCH  27  29
ENDBRANCH  20  22
ENDBRANCH  16  18
ENDBRANCH   4  16
TORSDOF 8
