REMARK  Name = ZINC09505514
REMARK  10 active torsions:
REMARK  status: ('A' for Active; 'I' for Inactive)
REMARK    1  A    between atoms: C_1  and  C_2
REMARK    2  A    between atoms: C_2  and  C_3
REMARK    3  A    between atoms: N_12  and  C_13
REMARK    4  A    between atoms: C_13  and  C_14
REMARK    5  A    between atoms: C_14  and  N_60
REMARK    6  A    between atoms: C_15  and  N_60
REMARK    7  A    between atoms: C_16  and  N_60
REMARK    8  A    between atoms: C_17  and  C_19
REMARK    9  A    between atoms: N_24  and  S_25
REMARK   10  A    between atoms: S_25  and  C_28
REMARK                            x       y       z     vdW  Elec       q    Type
REMARK                         _______ _______ _______ _____ _____    ______ ____
ROOT
ATOM      1  C   UNL     1      -9.652   4.354  -0.966  0.00  0.00    -0.021 A 
ATOM      2  C   UNL     1     -10.958   4.156  -1.334  0.00  0.00    +0.006 A 
ATOM      3  C   UNL     1     -11.805   3.346  -0.592  0.00  0.00    +0.001 A 
ATOM      4  C   UNL     1     -11.323   2.723   0.545  0.00  0.00    +0.017 A 
ATOM      5  C   UNL     1     -10.017   2.915   0.921  0.00  0.00    +0.041 A 
ATOM      6  C   UNL     1      -9.125   3.733   0.190  0.00  0.00    +0.083 A 
ATOM      7  N   UNL     1      -7.872   3.822   0.687  0.00  0.00    -0.224 NA
ATOM      8  C   UNL     1      -7.500   3.194   1.777  0.00  0.00    +0.168 A 
ATOM      9  S   UNL     1      -8.993   2.335   2.252  0.00  0.00    -0.052 S 
ATOM     10  N   UNL     1      -6.261   3.192   2.398  0.00  0.00    -0.251 N 
ATOM     11  C   UNL     1      -5.245   3.907   1.877  0.00  0.00    +0.240 C 
ATOM     12  O   UNL     1      -5.438   4.626   0.920  0.00  0.00    -0.273 OA
ENDROOT
BRANCH  11  13
ATOM     13  C   UNL     1      -3.869   3.814   2.484  0.00  0.00    +0.166 C 
ATOM     14  C   UNL     1      -3.753   4.781   3.682  0.00  0.00    +0.031 C 
ATOM     15  C   UNL     1      -2.310   5.334   3.546  0.00  0.00    +0.019 C 
ATOM     16  C   UNL     1      -2.148   5.407   2.007  0.00  0.00    +0.110 C 
ATOM     17  N   UNL     1      -2.858   4.219   1.497  0.00  0.00    -0.164 NA
BRANCH  17  18
ATOM     18  S   UNL     1      -2.569   3.471   0.048  0.00  0.00    +0.068 S 
ATOM     19  O   UNL     1      -1.976   4.444  -0.801  0.00  0.00    -0.152 OA
ATOM     20  O   UNL     1      -3.764   2.784  -0.299  0.00  0.00    -0.152 OA
BRANCH  18  21
ATOM     21  C   UNL     1      -1.344   2.238   0.334  0.00  0.00    +0.143 A 
ATOM     22  C   UNL     1      -1.506   0.937   0.678  0.00  0.00    +0.036 A 
ATOM     23  C   UNL     1      -0.386   0.146   0.856  0.00  0.00    +0.010 A 
ATOM     24  C   UNL     1       0.840   0.691   0.669  0.00  0.00    +0.047 A 
ATOM     25  S   UNL     1       0.434   2.375   0.236  0.00  0.00    -0.077 S 
ENDBRANCH  18  21
ENDBRANCH  17  18
ENDBRANCH  11  13
BRANCH   1  27
ATOM     26  C   UNL     1      -7.981   4.388  -2.797  0.00  0.00    +0.009 C 
ATOM     27  C   UNL     1      -8.769   5.243  -1.803  0.00  0.00    +0.034 C 
ENDBRANCH   1  27
BRANCH  10  28
ATOM     28  C   UNL     1      -6.057   2.413   3.622  0.00  0.00    +0.097 C 
BRANCH  28  29
ATOM     29  C   UNL     1      -6.477   3.247   4.834  0.00  0.00    -0.060 C 
BRANCH  29  32
ATOM     30  C   UNL     1      -4.983   2.074   6.336  0.00  0.00    -0.097 C 
ATOM     31  C   UNL     1      -6.995   3.110   7.195  0.00  0.00    -0.097 C 
ATOM     32  N   UNL     1      -6.394   2.403   6.045  0.00  0.00    +0.377 N 
ATOM     33  H   UNL     1      -6.912   1.532   5.881  0.00  0.00    -0.083 HD
ENDBRANCH  29  32
ENDBRANCH  28  29
ENDBRANCH  10  28
TORSDOF 7
