REMARK  Name = ZINC36017229
REMARK  12 active torsions:
REMARK  status: ('A' for Active; 'I' for Inactive)
REMARK    1  A    between atoms: C_1  and  C_2
REMARK    2  A    between atoms: C_2  and  N_3
REMARK    3  A    between atoms: C_4  and  C_24
REMARK    4  A    between atoms: C_5  and  C_19
REMARK    5  A    between atoms: C_6  and  C_11
REMARK    6  A    between atoms: C_13  and  C_18
REMARK    7  A    between atoms: C_16  and  C_17
REMARK    8  A    between atoms: C_19  and  O_21
REMARK    9  A    between atoms: O_21  and  C_22
REMARK   10  A    between atoms: C_22  and  C_23
REMARK   11  A    between atoms: C_24  and  N_25
REMARK   12  A    between atoms: C_32  and  C_34
REMARK                            x       y       z     vdW  Elec       q    Type
REMARK                         _______ _______ _______ _____ _____    ______ ____
ROOT
ATOM      1  N   UNL     1       1.083  -0.232  -1.508  0.00  0.00    -0.261 N 
ATOM      2  C   UNL     1       0.543  -1.158  -2.352  0.00  0.00    +0.010 C 
ATOM      3  C   UNL     1       1.314  -1.835  -3.230  0.00  0.00    +0.076 C 
ATOM      4  C   UNL     1       2.799  -1.531  -3.245  0.00  0.00    +0.144 C 
ATOM      5  N   UNL     1       3.281  -0.515  -2.295  0.00  0.00    -0.288 N 
ATOM      6  C   UNL     1       2.385   0.080  -1.482  0.00  0.00    +0.307 C 
ATOM      7  O   UNL     1       2.773   0.923  -0.697  0.00  0.00    -0.252 OA
ATOM      8  H   UNL     1       4.221  -0.277  -2.257  0.00  0.00    +0.151 HD
ENDROOT
BRANCH   4   9
ATOM      9  C   UNL     1       3.166  -1.078  -4.635  0.00  0.00    -0.019 A 
ATOM     10  C   UNL     1       2.187  -0.605  -5.489  0.00  0.00    +0.009 A 
ATOM     11  C   UNL     1       2.524  -0.190  -6.763  0.00  0.00    -0.050 A 
ATOM     12  C   UNL     1       3.840  -0.247  -7.184  0.00  0.00    +0.003 A 
ATOM     13  C   UNL     1       4.818  -0.719  -6.330  0.00  0.00    +0.004 A 
ATOM     14  C   UNL     1       4.482  -1.131  -5.053  0.00  0.00    -0.045 A 
ATOM     15  C   UNL     1       5.550  -1.641  -4.120  0.00  0.00    +0.044 C 
ATOM     16  C   UNL     1       1.457   0.325  -7.694  0.00  0.00    +0.044 C 
ENDBRANCH   4   9
BRANCH   1  18
ATOM     17  C   UNL     1      -0.297   1.767  -1.223  0.00  0.00    +0.025 C 
ATOM     18  C   UNL     1       0.188   0.466  -0.581  0.00  0.00    +0.111 C 
ENDBRANCH   1  18
BRANCH   3  19
ATOM     19  C   UNL     1       0.756  -2.796  -4.105  0.00  0.00    +0.339 C 
ATOM     20  O   UNL     1      -0.449  -2.964  -4.135  0.00  0.00    -0.245 OA
BRANCH  19  21
ATOM     21  O   UNL     1       1.559  -3.527  -4.906  0.00  0.00    -0.462 OA
BRANCH  21  22
ATOM     22  C   UNL     1       0.922  -4.398  -5.843  0.00  0.00    +0.229 C 
ATOM     23  C   UNL     1       1.982  -5.227  -6.571  0.00  0.00    +0.048 C 
ENDBRANCH  21  22
ENDBRANCH  19  21
ENDBRANCH   3  19
BRANCH   2  24
ATOM     24  C   UNL     1      -0.939  -1.430  -2.304  0.00  0.00    -0.026 C 
BRANCH  24  25
ATOM     25  N   UNL     1      -1.187  -2.659  -1.538  0.00  0.00    +0.384 N 
ATOM     26  C   UNL     1      -2.582  -3.048  -1.729  0.00  0.00    -0.077 C 
ATOM     27  C   UNL     1      -2.702  -4.551  -1.610  0.00  0.00    +0.000 C 
ATOM     28  C   UNL     1      -3.061  -4.924  -0.160  0.00  0.00    +0.106 C 
ATOM     29  N   UNL     1      -2.324  -4.080   0.802  0.00  0.00    -0.303 N 
ATOM     30  C   UNL     1      -0.928  -3.737   0.623  0.00  0.00    +0.089 C 
ATOM     31  C   UNL     1      -0.810  -2.430  -0.195  0.00  0.00    -0.059 C 
ATOM     32  C   UNL     1      -2.974  -3.613   1.887  0.00  0.00    +0.219 C 
ATOM     33  O   UNL     1      -2.389  -2.919   2.692  0.00  0.00    -0.275 OA
ATOM     34  H   UNL     1      -0.601  -3.390  -1.913  0.00  0.00    -0.081 HD
BRANCH  32  35
ATOM     35  C   UNL     1      -4.426  -3.954   2.100  0.00  0.00    +0.075 C 
ATOM     36  C   UNL     1      -5.392  -3.050   1.317  0.00  0.00    +0.013 C 
ATOM     37  C   UNL     1      -6.292  -3.063   2.564  0.00  0.00    +0.001 C 
ATOM     38  C   UNL     1      -5.020  -3.345   3.381  0.00  0.00    +0.013 C 
ENDBRANCH  32  35
ENDBRANCH  24  25
ENDBRANCH   2  24
TORSDOF 8
