REMARK  Name = ZINC21526715
REMARK  10 active torsions:
REMARK  status: ('A' for Active; 'I' for Inactive)
REMARK    1  A    between atoms: C_1  and  C_2
REMARK    2  A    between atoms: C_2  and  C_3
REMARK    3  A    between atoms: C_3  and  N_4
REMARK    4  A    between atoms: N_7  and  C_10
REMARK    5  A    between atoms: C_10  and  C_11
REMARK    6  A    between atoms: C_11  and  C_12
REMARK    7  A    between atoms: C_12  and  N_13
REMARK    8  A    between atoms: C_22  and  C_23
REMARK    9  A    between atoms: C_22  and  C_24
REMARK   10  A    between atoms: N_26  and  C_27
REMARK                            x       y       z     vdW  Elec       q    Type
REMARK                         _______ _______ _______ _____ _____    ______ ____
ROOT
ATOM      1  N   UNL     1      -3.420   2.533  -0.166  0.00  0.00    -0.281 N 
ATOM      2  C   UNL     1      -2.548   1.517   0.038  0.00  0.00    +0.264 C 
ATOM      3  O   UNL     1      -2.926   0.375   0.222  0.00  0.00    -0.268 OA
ATOM      4  C   UNL     1      -1.123   1.867   0.017  0.00  0.00    +0.109 A 
ATOM      5  C   UNL     1      -0.013   1.076   0.008  0.00  0.00    +0.079 A 
ATOM      6  C   UNL     1       1.107   1.921   0.002  0.00  0.00    +0.153 A 
ATOM      7  C   UNL     1       0.644   3.236   0.017  0.00  0.00    +0.088 A 
ATOM      8  N   UNL     1      -0.718   3.200   0.039  0.00  0.00    -0.331 N 
ATOM      9  C   UNL     1      -1.689   4.297   0.083  0.00  0.00    +0.157 C 
ATOM     10  C   UNL     1      -2.979   3.851  -0.605  0.00  0.00    +0.128 C 
ATOM     11  C   UNL     1      -4.080   4.869  -0.300  0.00  0.00    +0.043 C 
ATOM     12  C   UNL     1       1.796   4.059   0.006  0.00  0.00    +0.067 A 
ATOM     13  C   UNL     1       2.866   3.246  -0.012  0.00  0.00    +0.198 A 
ATOM     14  O   UNL     1       2.457   1.966  -0.013  0.00  0.00    -0.461 OA
ENDROOT
BRANCH  10  15
ATOM     15  C   UNL     1      -2.750   3.815  -2.094  0.00  0.00    +0.238 C 
ATOM     16  O   UNL     1      -3.050   4.771  -2.778  0.00  0.00    -0.273 OA
ATOM     17  N   UNL     1      -2.210   2.720  -2.666  0.00  0.00    -0.311 N 
ATOM     18  H   UNL     1      -1.938   1.854  -2.046  0.00  0.00    +0.149 HD
BRANCH  17  19
ATOM     19  C   UNL     1      -1.987   2.685  -4.114  0.00  0.00    +0.073 C 
ATOM     20  C   UNL     1      -3.298   2.269  -4.811  0.00  0.00    +0.022 C 
ATOM     21  C   UNL     1      -3.238   2.717  -6.247  0.00  0.00    +0.002 C 
ATOM     22  C   UNL     1      -2.724   1.610  -7.187  0.00  0.00    +0.000 C 
ATOM     23  C   UNL     1      -1.539   0.825  -6.594  0.00  0.00    +0.000 C 
ATOM     24  C   UNL     1      -0.545   1.719  -5.902  0.00  0.00    +0.002 C 
ATOM     25  C   UNL     1      -0.894   1.768  -4.400  0.00  0.00    +0.022 C 
ENDBRANCH  17  19
ENDBRANCH  10  15
BRANCH   1  26
ATOM     26  C   UNL     1      -4.848   2.300   0.063  0.00  0.00    +0.110 C 
BRANCH  26  27
ATOM     27  C   UNL     1      -5.500   1.812  -1.232  0.00  0.00    +0.034 C 
BRANCH  27  28
ATOM     28  C   UNL     1      -6.991   1.569  -0.993  0.00  0.00    +0.086 C 
BRANCH  28  32
ATOM     29  N   UNL     1      -9.556   1.131  -4.322  0.00  0.00    +0.381 N 
ATOM     30  C   UNL     1      -9.575   0.081  -3.294  0.00  0.00    -0.063 C 
ATOM     31  C   UNL     1      -8.988   0.633  -1.993  0.00  0.00    +0.066 C 
ATOM     32  N   UNL     1      -7.617   1.101  -2.237  0.00  0.00    -0.306 NA
ATOM     33  C   UNL     1      -7.597   2.152  -3.264  0.00  0.00    +0.066 C 
ATOM     34  C   UNL     1      -8.184   1.600  -4.566  0.00  0.00    -0.063 C 
ATOM     35  H   UNL     1     -10.144   1.983  -3.949  0.00  0.00    -0.082 HD
BRANCH  29  36
ATOM     36  C   UNL     1     -10.181   0.663  -5.566  0.00  0.00    -0.079 C 
BRANCH  36  38
ATOM     37  C   UNL     1     -11.019   1.357  -7.815  0.00  0.00    +0.002 C 
ATOM     38  C   UNL     1     -10.368   1.845  -6.519  0.00  0.00    -0.022 C 
ENDBRANCH  36  38
ENDBRANCH  29  36
ENDBRANCH  28  32
ENDBRANCH  27  28
ENDBRANCH  26  27
ENDBRANCH   1  26
TORSDOF 8
