REMARK  Name = ZINC63589158
REMARK  8 active torsions:
REMARK  status: ('A' for Active; 'I' for Inactive)
REMARK    1  A    between atoms: C_1  and  C_2
REMARK    2  A    between atoms: C_5  and  C_32
REMARK    3  A    between atoms: C_6  and  N_8
REMARK    4  A    between atoms: N_10  and  C_11
REMARK    5  A    between atoms: C_11  and  C_12
REMARK    6  A    between atoms: C_12  and  C_13
REMARK    7  A    between atoms: N_22  and  C_23
REMARK    8  A    between atoms: C_23  and  C_25
REMARK                            x       y       z     vdW  Elec       q    Type
REMARK                         _______ _______ _______ _____ _____    ______ ____
ROOT
ATOM      1  N   UNL     1       0.451  -2.761   2.361  0.00  0.00    -0.328 N 
ATOM      2  C   UNL     1       0.348  -2.114   3.559  0.00  0.00    +0.194 C 
ATOM      3  N   UNL     1       0.487  -2.810   4.724  0.00  0.00    -0.357 N 
ATOM      4  N   UNL     1       0.112  -0.811   3.590  0.00  0.00    -0.143 NA
ATOM      5  H   UNL     1       0.414  -2.350   5.575  0.00  0.00    +0.162 HD
ATOM      6  H   UNL     1      -0.214  -3.421   2.107  0.00  0.00    +0.169 HD
ENDROOT
BRANCH   1  12
ATOM      7  C   UNL     1       4.347   0.015   1.230  0.00  0.00    +0.044 C 
ATOM      8  C   UNL     1       3.419  -1.133   0.927  0.00  0.00    -0.048 A 
ATOM      9  C   UNL     1       3.619  -1.903  -0.204  0.00  0.00    +0.004 A 
ATOM     10  C   UNL     1       2.769  -2.957  -0.486  0.00  0.00    +0.005 A 
ATOM     11  C   UNL     1       1.718  -3.244   0.362  0.00  0.00    -0.027 A 
ATOM     12  C   UNL     1       1.514  -2.473   1.500  0.00  0.00    +0.045 A 
ATOM     13  C   UNL     1       2.373  -1.419   1.783  0.00  0.00    +0.029 A 
ATOM     14  C   UNL     1       0.791  -4.392   0.054  0.00  0.00    +0.046 C 
ENDBRANCH   1  12
BRANCH   4  15
ATOM     15  C   UNL     1      -0.074  -0.137   2.447  0.00  0.00    +0.270 C 
ATOM     16  O   UNL     1      -0.136  -0.737   1.389  0.00  0.00    -0.268 OA
BRANCH  15  17
ATOM     17  C   UNL     1      -0.204   1.338   2.471  0.00  0.00    +0.040 A 
ATOM     18  C   UNL     1      -0.096   2.031   3.676  0.00  0.00    +0.013 A 
ATOM     19  C   UNL     1      -0.218   3.405   3.693  0.00  0.00    +0.002 A 
ATOM     20  C   UNL     1      -0.447   4.097   2.516  0.00  0.00    +0.020 A 
ATOM     21  C   UNL     1      -0.555   3.415   1.316  0.00  0.00    +0.042 A 
ATOM     22  C   UNL     1      -0.429   2.040   1.287  0.00  0.00    +0.033 A 
ATOM     23 CL   UNL     1      -0.844   4.290  -0.155  0.00  0.00    -0.084 Cl
ENDBRANCH  15  17
ENDBRANCH   4  15
BRANCH   3  24
ATOM     24  C   UNL     1       0.748  -4.251   4.689  0.00  0.00    +0.120 C 
BRANCH  24  25
ATOM     25  C   UNL     1       0.862  -4.783   6.120  0.00  0.00    +0.054 C 
BRANCH  25  26
ATOM     26  C   UNL     1       1.130  -6.266   6.084  0.00  0.00    -0.040 C 
ATOM     27  C   UNL     1       2.335  -6.876   6.152  0.00  0.00    -0.001 A 
ATOM     28  C   UNL     1       3.704  -6.362   6.274  0.00  0.00    +0.010 A 
ATOM     29  C   UNL     1       4.733  -7.239   6.318  0.00  0.00    +0.001 A 
ATOM     30  C   UNL     1       4.524  -8.623   6.251  0.00  0.00    +0.002 A 
ATOM     31  C   UNL     1       3.296  -9.171   6.139  0.00  0.00    +0.026 A 
ATOM     32  C   UNL     1       2.141  -8.342   6.084  0.00  0.00    +0.043 A 
ATOM     33  N   UNL     1       0.866  -8.627   5.977  0.00  0.00    -0.380 N 
ATOM     34  C   UNL     1       0.105  -7.372   5.973  0.00  0.00    +0.144 C 
ATOM     35  H   UNL     1       0.489  -9.518   5.916  0.00  0.00    +0.160 HD
ENDBRANCH  25  26
ENDBRANCH  24  25
ENDBRANCH   3  24
TORSDOF 6
