REMARK  Name = ZINC14924102
REMARK  10 active torsions:
REMARK  status: ('A' for Active; 'I' for Inactive)
REMARK    1  A    between atoms: C_1  and  C_2
REMARK    2  A    between atoms: C_2  and  C_3
REMARK    3  A    between atoms: C_3  and  N_57
REMARK    4  A    between atoms: C_4  and  C_5
REMARK    5  A    between atoms: C_4  and  N_57
REMARK    6  A    between atoms: N_7  and  C_8
REMARK    7  A    between atoms: C_13  and  C_14
REMARK    8  A    between atoms: C_15  and  C_16
REMARK    9  A    between atoms: C_15  and  N_57
REMARK   10  A    between atoms: N_21  and  C_22
REMARK                            x       y       z     vdW  Elec       q    Type
REMARK                         _______ _______ _______ _____ _____    ______ ____
ROOT
ATOM      1  C   UNL     1       8.261  -3.280   4.051  0.00  0.00    +0.020 C 
ENDROOT
BRANCH   1   2
ATOM      2  C   UNL     1       8.948  -3.211   2.711  0.00  0.00    +0.204 C 
ATOM      3  O   UNL     1       9.403  -4.218   2.211  0.00  0.00    -0.277 OA
ATOM      4  N   UNL     1       9.058  -2.031   2.069  0.00  0.00    -0.241 N 
ATOM      5  C   UNL     1       9.672  -1.970   0.872  0.00  0.00    +0.310 C 
ATOM      6  O   UNL     1      10.128  -2.979   0.370  0.00  0.00    -0.252 OA
ATOM      7  N   UNL     1       9.782  -0.790   0.230  0.00  0.00    -0.269 N 
ATOM      8  H   UNL     1       8.694  -1.226   2.470  0.00  0.00    +0.159 HD
ATOM      9  H   UNL     1       9.482   0.026   0.661  0.00  0.00    +0.156 HD
BRANCH   7  10
ATOM     10  C   UNL     1      10.329  -0.741  -1.059  0.00  0.00    +0.038 A 
ATOM     11  C   UNL     1      10.106  -1.784  -1.948  0.00  0.00    +0.027 A 
ATOM     12  C   UNL     1      10.644  -1.738  -3.219  0.00  0.00    +0.051 A 
ATOM     13  C   UNL     1      11.409  -0.651  -3.611  0.00  0.00    +0.166 A 
ATOM     14  C   UNL     1      11.634   0.397  -2.722  0.00  0.00    +0.168 A 
ATOM     15  C   UNL     1      11.094   0.350  -1.448  0.00  0.00    +0.073 A 
ATOM     16  O   UNL     1      12.407   1.337  -3.342  0.00  0.00    -0.453 OA
ATOM     17  C   UNL     1      12.312   1.046  -4.749  0.00  0.00    +0.466 C 
ATOM     18  O   UNL     1      12.041  -0.367  -4.789  0.00  0.00    -0.453 OA
ENDBRANCH   7  10
ENDBRANCH   1   2
BRANCH   1  19
ATOM     19  N   UNL     1       8.377  -4.658   4.573  0.00  0.00    +0.391 N 
ATOM     20  H   UNL     1       8.202  -5.320   3.808  0.00  0.00    -0.080 HD
BRANCH  19  21
ATOM     21  C   UNL     1       7.378  -4.880   5.638  0.00  0.00    -0.078 C 
BRANCH  21  23
ATOM     22  C   UNL     1       4.945  -5.241   6.079  0.00  0.00    +0.002 C 
ATOM     23  C   UNL     1       6.010  -5.101   4.989  0.00  0.00    -0.022 C 
ENDBRANCH  21  23
ENDBRANCH  19  21
BRANCH  19  24
ATOM     24  C   UNL     1       9.739  -4.884   5.102  0.00  0.00    +0.020 C 
BRANCH  24  25
ATOM     25  C   UNL     1       9.898  -6.348   5.422  0.00  0.00    +0.201 C 
ATOM     26  O   UNL     1       8.973  -7.112   5.245  0.00  0.00    -0.278 OA
ATOM     27  N   UNL     1      11.069  -6.809   5.905  0.00  0.00    -0.287 N 
ATOM     28  H   UNL     1      11.787  -6.189   6.109  0.00  0.00    +0.155 HD
BRANCH  27  29
ATOM     29  C   UNL     1      11.249  -8.180   6.114  0.00  0.00    +0.036 A 
ATOM     30  C   UNL     1      10.159  -8.988   6.411  0.00  0.00    +0.023 A 
ATOM     31  C   UNL     1      10.339 -10.342   6.611  0.00  0.00    +0.002 A 
ATOM     32  C   UNL     1      11.605 -10.893   6.526  0.00  0.00    +0.000 A 
ATOM     33  C   UNL     1      12.693 -10.091   6.236  0.00  0.00    +0.005 A 
ATOM     34  C   UNL     1      12.519  -8.736   6.030  0.00  0.00    -0.029 A 
ATOM     35  C   UNL     1      13.705  -7.862   5.714  0.00  0.00    +0.045 C 
ENDBRANCH  27  29
ENDBRANCH  24  25
ENDBRANCH  19  24
ENDBRANCH   1  19
TORSDOF 8
