REMARK  Name = ZINC59170669
REMARK  10 active torsions:
REMARK  status: ('A' for Active; 'I' for Inactive)
REMARK    1  A    between atoms: C_1  and  C_2
REMARK    2  A    between atoms: C_2  and  C_3
REMARK    3  A    between atoms: C_2  and  C_4
REMARK    4  A    between atoms: C_2  and  C_5
REMARK    5  A    between atoms: C_9  and  C_27
REMARK    6  A    between atoms: N_11  and  C_12
REMARK    7  A    between atoms: C_15  and  S_18
REMARK    8  A    between atoms: S_18  and  N_21
REMARK    9  A    between atoms: C_24  and  O_26
REMARK   10  A    between atoms: N_29  and  C_30
REMARK                            x       y       z     vdW  Elec       q    Type
REMARK                         _______ _______ _______ _____ _____    ______ ____
ROOT
ATOM      1  C   UNL     1       0.187  -0.453  -1.641  0.00  0.00    -0.038 A 
ATOM      2  C   UNL     1       0.106  -1.649  -2.317  0.00  0.00    +0.016 A 
ATOM      3  C   UNL     1       1.139  -2.030  -3.182  0.00  0.00    +0.022 A 
ATOM      4  C   UNL     1       1.081  -3.302  -3.906  0.00  0.00    +0.030 A 
ATOM      5  C   UNL     1       2.245  -3.739  -4.525  0.00  0.00    +0.098 A 
ATOM      6  C   UNL     1       3.438  -2.878  -4.396  0.00  0.00    +0.212 A 
ATOM      7  N   UNL     1       4.650  -3.386  -4.465  0.00  0.00    -0.325 N 
ATOM      8  O   UNL     1       3.246  -1.549  -4.205  0.00  0.00    -0.435 OA
ATOM      9  C   UNL     1       2.250  -1.185  -3.360  0.00  0.00    +0.179 A 
ATOM     10  C   UNL     1       2.314   0.019  -2.666  0.00  0.00    +0.160 A 
ATOM     11  C   UNL     1       1.282   0.380  -1.816  0.00  0.00    +0.053 A 
ATOM     12  H   UNL     1       4.777  -4.346  -4.423  0.00  0.00    +0.169 HD
ENDROOT
BRANCH   7  13
ATOM     13  C   UNL     1       5.731  -2.559  -4.597  0.00  0.00    +0.042 A 
ATOM     14  C   UNL     1       5.697  -1.499  -5.506  0.00  0.00    +0.027 A 
ATOM     15  C   UNL     1       6.791  -0.669  -5.634  0.00  0.00    +0.030 A 
ATOM     16  C   UNL     1       7.920  -0.884  -4.864  0.00  0.00    +0.105 A 
ATOM     17  C   UNL     1       7.961  -1.931  -3.961  0.00  0.00    +0.030 A 
ATOM     18  C   UNL     1       6.872  -2.766  -3.819  0.00  0.00    +0.027 A 
BRANCH  16  19
ATOM     19  S   UNL     1       9.313   0.182  -5.035  0.00  0.00    +0.056 S 
ATOM     20  O   UNL     1      10.445  -0.557  -4.597  0.00  0.00    -0.153 OA
ATOM     21  O   UNL     1       9.231   0.753  -6.333  0.00  0.00    -0.153 OA
BRANCH  19  22
ATOM     22  N   UNL     1       9.114   1.424  -3.958  0.00  0.00    -0.204 NA
ATOM     23  H   UNL     1       8.329   1.451  -3.388  0.00  0.00    +0.144 HD
ATOM     24  H   UNL     1       9.782   2.125  -3.897  0.00  0.00    +0.144 HD
ENDBRANCH  19  22
ENDBRANCH  16  19
ENDBRANCH   7  13
BRANCH   1  26
ATOM     25  C   UNL     1      -0.596   1.318  -0.092  0.00  0.00    +0.015 C 
ATOM     26  C   UNL     1      -0.923  -0.043  -0.708  0.00  0.00    -0.013 C 
ATOM     27  C   UNL     1      -1.067  -1.085   0.403  0.00  0.00    +0.015 C 
ATOM     28  C   UNL     1      -2.236   0.053  -1.490  0.00  0.00    +0.015 C 
ENDBRANCH   1  26
BRANCH   5  29
ATOM     29  C   UNL     1       2.287  -5.004  -5.276  0.00  0.00    +0.253 C 
ATOM     30  O   UNL     1       1.325  -5.749  -5.269  0.00  0.00    -0.270 OA
ATOM     31  N   UNL     1       3.392  -5.338  -5.971  0.00  0.00    -0.281 N 
ATOM     32  H   UNL     1       4.171  -4.761  -5.951  0.00  0.00    +0.155 HD
BRANCH  31  33
ATOM     33  C   UNL     1       3.416  -6.518  -6.724  0.00  0.00    +0.034 A 
ATOM     34  C   UNL     1       2.669  -7.617  -6.318  0.00  0.00    +0.026 A 
ATOM     35  C   UNL     1       2.693  -8.780  -7.062  0.00  0.00    +0.040 A 
ATOM     36  C   UNL     1       3.461  -8.851  -8.212  0.00  0.00    +0.124 A 
ATOM     37  C   UNL     1       4.206  -7.757  -8.619  0.00  0.00    +0.040 A 
ATOM     38  C   UNL     1       4.181  -6.590  -7.880  0.00  0.00    +0.026 A 
ATOM     39  F   UNL     1       3.483  -9.990  -8.939  0.00  0.00    -0.205 F 
ENDBRANCH  31  33
ENDBRANCH   5  29
BRANCH  10  40
ATOM     40  O   UNL     1       3.385   0.842  -2.825  0.00  0.00    -0.503 OA
ATOM     41  H   UNL     1       3.283   1.486  -3.539  0.00  0.00    +0.292 HD
ENDBRANCH  10  40
TORSDOF 7
