REMARK  Name = ZINC00726513
REMARK  11 active torsions:
REMARK  status: ('A' for Active; 'I' for Inactive)
REMARK    1  A    between atoms: C_1  and  C_2
REMARK    2  A    between atoms: C_3  and  C_26
REMARK    3  A    between atoms: C_4  and  C_16
REMARK    4  A    between atoms: C_10  and  C_14
REMARK    5  A    between atoms: C_10  and  C_15
REMARK    6  A    between atoms: C_18  and  O_24
REMARK    7  A    between atoms: C_19  and  O_23
REMARK    8  A    between atoms: O_24  and  C_25
REMARK    9  A    between atoms: C_26  and  O_28
REMARK   10  A    between atoms: O_28  and  C_29
REMARK   11  A    between atoms: C_29  and  C_30
REMARK                            x       y       z     vdW  Elec       q    Type
REMARK                         _______ _______ _______ _____ _____    ______ ____
ROOT
ATOM      1  C   UNL     1       4.973   2.646   2.460  0.00  0.00    +0.061 C 
ATOM      2  C   UNL     1       4.259   2.287   1.182  0.00  0.00    +0.031 C 
ATOM      3  C   UNL     1       3.418   1.238   1.159  0.00  0.00    +0.154 C 
ATOM      4  C   UNL     1       2.682   0.857  -0.093  0.00  0.00    +0.073 C 
ATOM      5  C   UNL     1       3.329   1.477  -1.307  0.00  0.00    +0.025 C 
ATOM      6  C   UNL     1       4.172   2.522  -1.182  0.00  0.00    +0.049 C 
ATOM      7  N   UNL     1       4.472   3.029   0.054  0.00  0.00    -0.260 NA
ATOM      8  C   UNL     1       4.807   3.158  -2.394  0.00  0.00    +0.062 C 
ATOM      9  C   UNL     1       5.006   2.105  -3.482  0.00  0.00    -0.023 C 
ATOM     10  C   UNL     1       3.642   1.495  -3.823  0.00  0.00    +0.086 C 
ATOM     11  C   UNL     1       3.028   0.935  -2.569  0.00  0.00    +0.162 C 
ATOM     12  O   UNL     1       2.259  -0.002  -2.648  0.00  0.00    -0.292 OA
ATOM     13  C   UNL     1       5.945   1.010  -2.973  0.00  0.00    +0.011 C 
ATOM     14  C   UNL     1       5.604   2.756  -4.730  0.00  0.00    +0.011 C 
ENDROOT
BRANCH   4  15
ATOM     15  C   UNL     1       1.254   1.328   0.001  0.00  0.00    -0.034 A 
ATOM     16  C   UNL     1       0.220   0.410  -0.049  0.00  0.00    +0.053 A 
ATOM     17  C   UNL     1      -1.094   0.842   0.032  0.00  0.00    +0.163 A 
ATOM     18  C   UNL     1      -1.371   2.198   0.174  0.00  0.00    +0.173 A 
ATOM     19  C   UNL     1      -0.331   3.113   0.222  0.00  0.00    +0.063 A 
ATOM     20  C   UNL     1       0.979   2.676   0.136  0.00  0.00    +0.023 A 
ATOM     21 BR   UNL     1      -0.702   4.958   0.406  0.00  0.00    -0.046 Br
BRANCH  18  22
ATOM     22  O   UNL     1      -2.659   2.626   0.258  0.00  0.00    -0.503 OA
ATOM     23  H   UNL     1      -3.062   2.831  -0.597  0.00  0.00    +0.292 HD
ENDBRANCH  18  22
BRANCH  17  24
ATOM     24  O   UNL     1      -2.111  -0.059  -0.023  0.00  0.00    -0.491 OA
ATOM     25  C   UNL     1      -1.752  -1.435  -0.165  0.00  0.00    +0.277 C 
ENDBRANCH  17  24
ENDBRANCH   4  15
BRANCH   3  26
ATOM     26  C   UNL     1       3.220   0.482   2.338  0.00  0.00    +0.317 C 
ATOM     27  O   UNL     1       3.897   0.705   3.325  0.00  0.00    -0.250 OA
BRANCH  26  28
ATOM     28  O   UNL     1       2.280  -0.486   2.369  0.00  0.00    -0.459 OA
BRANCH  28  29
ATOM     29  C   UNL     1       2.134  -1.210   3.592  0.00  0.00    +0.267 C 
BRANCH  29  30
ATOM     30  C   UNL     1       1.046  -2.241   3.439  0.00  0.00    -0.010 A 
ATOM     31  C   UNL     1      -0.262  -1.918   3.750  0.00  0.00    +0.007 A 
ATOM     32  C   UNL     1      -1.261  -2.862   3.604  0.00  0.00    +0.000 A 
ATOM     33  C   UNL     1      -0.950  -4.133   3.159  0.00  0.00    +0.000 A 
ATOM     34  C   UNL     1       0.358  -4.458   2.853  0.00  0.00    +0.000 A 
ATOM     35  C   UNL     1       1.356  -3.512   2.993  0.00  0.00    +0.007 A 
ENDBRANCH  29  30
ENDBRANCH  28  29
ENDBRANCH  26  28
ENDBRANCH   3  26
TORSDOF 7
