REMARK  Name = ZINC09358295
REMARK  9 active torsions:
REMARK  status: ('A' for Active; 'I' for Inactive)
REMARK    1  A    between atoms: C_1  and  C_2
REMARK    2  A    between atoms: C_4  and  N_35
REMARK    3  A    between atoms: C_5  and  O_33
REMARK    4  A    between atoms: C_7  and  N_8
REMARK    5  A    between atoms: C_13  and  C_29
REMARK    6  A    between atoms: C_29  and  C_30
REMARK    7  A    between atoms: C_30  and  S_31
REMARK    8  A    between atoms: S_31  and  C_32
REMARK    9  A    between atoms: O_33  and  C_34
REMARK                            x       y       z     vdW  Elec       q    Type
REMARK                         _______ _______ _______ _____ _____    ______ ____
ROOT
ATOM      1  N   UNL     1      -2.264  -1.324  -2.587  0.00  0.00    -0.210 N 
ATOM      2  C   UNL     1      -2.943  -1.412  -1.398  0.00  0.00    +0.228 C 
ATOM      3  O   UNL     1      -3.876  -2.138  -1.133  0.00  0.00    -0.275 OA
ATOM      4  C   UNL     1      -2.281  -0.416  -0.498  0.00  0.00    +0.073 C 
ATOM      5  C   UNL     1      -2.089  -0.659   0.983  0.00  0.00    -0.057 C 
ATOM      6  C   UNL     1       0.002  -0.004   0.002  0.00  0.00    +0.050 C 
ATOM      7  C   UNL     1      -0.814  -0.649  -1.025  0.00  0.00    +0.088 C 
ATOM      8  C   UNL     1      -1.033  -0.728  -2.447  0.00  0.00    +0.229 C 
ATOM      9  O   UNL     1      -0.292  -0.350  -3.329  0.00  0.00    -0.275 OA
ATOM     10  C   UNL     1      -0.018   1.498   0.010  0.00  0.00    -0.028 A 
ATOM     11  C   UNL     1      -1.028   2.435   0.020  0.00  0.00    +0.004 A 
ATOM     12  C   UNL     1      -0.725   3.784   0.030  0.00  0.00    +0.000 A 
ATOM     13  C   UNL     1       0.597   4.192   0.021  0.00  0.00    +0.002 A 
ATOM     14  C   UNL     1       1.612   3.259   0.006  0.00  0.00    +0.023 A 
ATOM     15  C   UNL     1       1.315   1.899  -0.000  0.00  0.00    +0.036 A 
ATOM     16  N   UNL     1       2.154   0.783  -0.016  0.00  0.00    -0.286 N 
ATOM     17  C   UNL     1       1.463  -0.372  -0.017  0.00  0.00    +0.211 C 
ATOM     18  O   UNL     1       1.927  -1.493  -0.030  0.00  0.00    -0.277 OA
ATOM     19  H   UNL     1       3.123   0.834  -0.026  0.00  0.00    +0.155 HD
ATOM     20  N   UNL     1      -0.635  -0.526   1.242  0.00  0.00    +0.394 N 
ATOM     21  H   UNL     1      -0.238  -1.442   1.481  0.00  0.00    -0.083 HD
ATOM     22  H   UNL     1      -0.477   0.128   2.018  0.00  0.00    -0.083 HD
ENDROOT
BRANCH   1  29
ATOM     23  C   UNL     1      -1.700  -4.011  -3.333  0.00  0.00    +0.046 C 
ATOM     24  C   UNL     1      -2.516  -3.097  -4.210  0.00  0.00    -0.026 A 
ATOM     25  C   UNL     1      -3.018  -3.559  -5.412  0.00  0.00    +0.041 A 
ATOM     26  C   UNL     1      -3.762  -2.722  -6.221  0.00  0.00    +0.168 A 
ATOM     27  C   UNL     1      -4.012  -1.415  -5.826  0.00  0.00    +0.152 A 
ATOM     28  C   UNL     1      -3.515  -0.950  -4.619  0.00  0.00    +0.072 A 
ATOM     29  C   UNL     1      -2.768  -1.792  -3.808  0.00  0.00    +0.050 A 
BRANCH  26  30
ATOM     30  N   UNL     1      -4.292  -3.220  -7.510  0.00  0.00    +0.060 N 
ATOM     31  O   UNL     1      -4.073  -4.366  -7.857  0.00  0.00    -0.126 OA
ATOM     32  O   UNL     1      -4.948  -2.482  -8.224  0.00  0.00    -0.126 OA
ENDBRANCH  26  30
BRANCH  27  33
ATOM     33  O   UNL     1      -4.745  -0.593  -6.623  0.00  0.00    -0.493 OA
ATOM     34  C   UNL     1      -4.963   0.739  -6.153  0.00  0.00    +0.277 C 
ENDBRANCH  27  33
ENDBRANCH   1  29
BRANCH   5  35
ATOM     35  C   UNL     1      -2.866   0.384   1.789  0.00  0.00    -0.004 C 
BRANCH  35  36
ATOM     36  C   UNL     1      -2.746   0.068   3.281  0.00  0.00    +0.067 C 
BRANCH  36  37
ATOM     37  S   UNL     1      -3.668   1.304   4.237  0.00  0.00    -0.164 S 
ATOM     38  C   UNL     1      -3.428   0.794   5.961  0.00  0.00    +0.084 C 
ENDBRANCH  36  37
ENDBRANCH  35  36
ENDBRANCH   5  35
TORSDOF 6
