REMARK  Name = ZINC59115639
REMARK  11 active torsions:
REMARK  status: ('A' for Active; 'I' for Inactive)
REMARK    1  A    between atoms: C_1  and  C_2
REMARK    2  A    between atoms: C_4  and  C_23
REMARK    3  A    between atoms: C_5  and  N_9
REMARK    4  A    between atoms: C_6  and  C_8
REMARK    5  A    between atoms: N_9  and  C_10
REMARK    6  A    between atoms: C_10  and  N_12
REMARK    7  A    between atoms: N_12  and  C_13
REMARK    8  A    between atoms: C_15  and  C_21
REMARK    9  A    between atoms: C_15  and  C_22
REMARK   10  A    between atoms: C_17  and  C_19
REMARK   11  A    between atoms: C_17  and  C_20
REMARK                            x       y       z     vdW  Elec       q    Type
REMARK                         _______ _______ _______ _____ _____    ______ ____
ROOT
ATOM      1  N   UNL     1       1.297  -5.693   1.764  0.00  0.00    -0.324 N 
ATOM      2  H   UNL     1       1.190  -6.283   1.002  0.00  0.00    +0.148 HD
ENDROOT
BRANCH   1   3
ATOM      3  C   UNL     1       1.701  -6.240   3.066  0.00  0.00    +0.069 C 
ATOM      4  C   UNL     1       3.223  -6.155   3.196  0.00  0.00    +0.009 C 
ATOM      5  C   UNL     1       3.660  -6.733   4.542  0.00  0.00    -0.072 C 
ATOM      6  N   UNL     1       3.157  -8.082   4.749  0.00  0.00    +0.386 N 
ATOM      7  C   UNL     1       1.754  -8.332   4.457  0.00  0.00    -0.072 C 
ATOM      8  C   UNL     1       1.294  -7.711   3.142  0.00  0.00    +0.009 C 
ATOM      9  C   UNL     1       0.846  -7.870   5.599  0.00  0.00    -0.010 C 
ATOM     10  C   UNL     1       1.573  -9.864   4.328  0.00  0.00    -0.010 C 
ATOM     11  C   UNL     1       3.263  -5.789   5.676  0.00  0.00    -0.010 C 
ATOM     12  C   UNL     1       5.205  -6.808   4.528  0.00  0.00    -0.010 C 
ATOM     13  H   UNL     1       3.722  -8.725   4.189  0.00  0.00    -0.084 HD
ATOM     14  H   UNL     1       3.336  -8.346   5.721  0.00  0.00    -0.084 HD
ENDBRANCH   1   3
BRANCH   1  15
ATOM     15  C   UNL     1       1.076  -4.370   1.628  0.00  0.00    +0.135 C 
ATOM     16  S   UNL     1       1.265  -3.328   2.973  0.00  0.00    -0.019 S 
BRANCH  15  17
ATOM     17  N   UNL     1       0.705  -3.868   0.434  0.00  0.00    -0.296 N 
ATOM     18  H   UNL     1       0.521  -4.466  -0.308  0.00  0.00    +0.154 HD
BRANCH  17  23
ATOM     19  C   UNL     1       0.221   1.741  -0.260  0.00  0.00    +0.044 C 
ATOM     20  C   UNL     1       0.350   0.251  -0.075  0.00  0.00    -0.050 A 
ATOM     21  C   UNL     1       1.262  -0.462  -0.832  0.00  0.00    +0.008 A 
ATOM     22  C   UNL     1       1.383  -1.827  -0.665  0.00  0.00    -0.029 A 
ATOM     23  C   UNL     1       0.586  -2.485   0.263  0.00  0.00    +0.038 A 
ATOM     24  C   UNL     1      -0.329  -1.766   1.021  0.00  0.00    -0.029 A 
ATOM     25  C   UNL     1      -0.441  -0.400   0.854  0.00  0.00    +0.008 A 
ATOM     26  C   UNL     1      -1.196  -2.476   2.030  0.00  0.00    +0.045 C 
ATOM     27  C   UNL     1       2.377  -2.603  -1.491  0.00  0.00    +0.045 C 
ENDBRANCH  17  23
ENDBRANCH  15  17
ENDBRANCH   1  15
TORSDOF 4
