REMARK  Name = ZINC37361226
REMARK  10 active torsions:
REMARK  status: ('A' for Active; 'I' for Inactive)
REMARK    1  A    between atoms: C_1  and  C_2
REMARK    2  A    between atoms: C_2  and  C_3
REMARK    3  A    between atoms: C_2  and  C_4
REMARK    4  A    between atoms: C_7  and  N_10
REMARK    5  A    between atoms: C_11  and  N_35
REMARK    6  A    between atoms: C_13  and  C_27
REMARK    7  A    between atoms: N_19  and  C_20
REMARK    8  A    between atoms: C_20  and  C_21
REMARK    9  A    between atoms: C_31  and  O_33
REMARK   10  A    between atoms: O_33  and  C_34
REMARK                            x       y       z     vdW  Elec       q    Type
REMARK                         _______ _______ _______ _____ _____    ______ ____
ROOT
ATOM      1  N   UNL     1      -5.498  -1.969  -0.439  0.00  0.00    -0.239 N 
ATOM      2  C   UNL     1      -5.752  -3.283  -0.280  0.00  0.00    +0.129 A 
ATOM      3  C   UNL     1      -7.009  -3.397   0.302  0.00  0.00    +0.084 A 
ATOM      4  C   UNL     1      -7.838  -4.463   0.718  0.00  0.00    +0.089 A 
ATOM      5  N   UNL     1      -9.018  -4.170   1.250  0.00  0.00    -0.214 NA
ATOM      6  C   UNL     1      -9.434  -2.917   1.401  0.00  0.00    +0.218 A 
ATOM      7  N   UNL     1      -8.727  -1.865   1.042  0.00  0.00    -0.195 NA
ATOM      8  C   UNL     1      -7.509  -2.023   0.487  0.00  0.00    +0.162 A 
ATOM      9  N   UNL     1      -6.575  -1.214   0.038  0.00  0.00    -0.274 N 
ATOM     10  N   UNL     1     -10.679  -2.705   1.967  0.00  0.00    -0.311 N 
ATOM     11  H   UNL     1     -11.222  -3.461   2.241  0.00  0.00    +0.149 HD
ATOM     12  H   UNL     1      -6.626  -0.245   0.034  0.00  0.00    +0.189 HD
ENDROOT
BRANCH   1  16
ATOM     13  C   UNL     1      -2.012  -0.390  -2.090  0.00  0.00    -0.045 A 
ATOM     14  C   UNL     1      -2.535   0.154  -0.930  0.00  0.00    +0.006 A 
ATOM     15  C   UNL     1      -3.690  -0.367  -0.381  0.00  0.00    +0.028 A 
ATOM     16  C   UNL     1      -4.327  -1.438  -0.994  0.00  0.00    +0.065 A 
ATOM     17  C   UNL     1      -3.800  -1.982  -2.158  0.00  0.00    +0.028 A 
ATOM     18  C   UNL     1      -2.647  -1.453  -2.705  0.00  0.00    +0.006 A 
BRANCH  13  20
ATOM     19  C   UNL     1      -0.972   1.655  -3.029  0.00  0.00    +0.012 C 
ATOM     20  C   UNL     1      -0.752   0.180  -2.686  0.00  0.00    +0.013 C 
ATOM     21  C   UNL     1       0.392   0.057  -1.677  0.00  0.00    +0.012 C 
ENDBRANCH  13  20
ENDBRANCH   1  16
BRANCH   4  22
ATOM     22  C   UNL     1      -7.403  -5.869   0.562  0.00  0.00    +0.005 A 
ATOM     23  C   UNL     1      -6.110  -6.246   0.928  0.00  0.00    +0.010 A 
ATOM     24  C   UNL     1      -5.707  -7.558   0.782  0.00  0.00    +0.004 A 
ATOM     25  C   UNL     1      -6.581  -8.502   0.274  0.00  0.00    +0.045 A 
ATOM     26  C   UNL     1      -7.868  -8.135  -0.093  0.00  0.00    +0.121 A 
ATOM     27  C   UNL     1      -8.284  -6.823   0.055  0.00  0.00    +0.055 A 
BRANCH  26  28
ATOM     28  O   UNL     1      -8.723  -9.067  -0.593  0.00  0.00    -0.495 OA
ATOM     29  C   UNL     1      -8.229 -10.402  -0.713  0.00  0.00    +0.277 C 
ENDBRANCH  26  28
ENDBRANCH   4  22
BRANCH   2  30
ATOM     30  N   UNL     1      -4.916  -4.325  -0.631  0.00  0.00    -0.343 N 
ATOM     31  H   UNL     1      -3.969  -4.163  -0.767  0.00  0.00    +0.144 HD
ATOM     32  H   UNL     1      -5.275  -5.220  -0.741  0.00  0.00    +0.144 HD
ENDBRANCH   2  30
BRANCH  10  33
ATOM     33  C   UNL     1     -11.177  -1.340   2.152  0.00  0.00    +0.136 C 
BRANCH  33  34
ATOM     34  C   UNL     1     -12.566  -1.386   2.792  0.00  0.00    +0.135 C 
ATOM     35  C   UNL     1     -13.126   0.049   2.964  0.00  0.00    +0.035 C 
ATOM     36  C   UNL     1     -14.653  -0.232   2.981  0.00  0.00    +0.031 C 
ATOM     37  C   UNL     1     -14.779  -1.421   2.005  0.00  0.00    +0.160 C 
ATOM     38  O   UNL     1     -13.494  -2.051   1.921  0.00  0.00    -0.375 OA
ENDBRANCH  33  34
ENDBRANCH  10  33
TORSDOF 7
