REMARK  Name = ZINC15072524
REMARK  9 active torsions:
REMARK  status: ('A' for Active; 'I' for Inactive)
REMARK    1  A    between atoms: C_1  and  O_2
REMARK    2  A    between atoms: O_2  and  C_3
REMARK    3  A    between atoms: C_3  and  C_5
REMARK    4  A    between atoms: C_5  and  C_6
REMARK    5  A    between atoms: C_6  and  C_7
REMARK    6  A    between atoms: N_10  and  C_31
REMARK    7  A    between atoms: C_13  and  N_15
REMARK    8  A    between atoms: N_18  and  C_21
REMARK    9  A    between atoms: C_25  and  C_27
REMARK                            x       y       z     vdW  Elec       q    Type
REMARK                         _______ _______ _______ _____ _____    ______ ____
ROOT
ATOM      1  C   UNL     1      -1.144   4.019   2.632  0.00  0.00    -0.010 C 
ATOM      2  C   UNL     1      -0.530   3.621   1.288  0.00  0.00    -0.073 C 
ATOM      3  N   UNL     1      -0.502   2.157   1.175  0.00  0.00    +0.382 N 
ATOM      4  C   UNL     1      -1.859   1.597   1.215  0.00  0.00    -0.077 C 
ATOM      5  C   UNL     1      -2.513   1.934   2.556  0.00  0.00    +0.000 C 
ATOM      6  C   UNL     1      -2.564   3.455   2.725  0.00  0.00    +0.056 C 
ATOM      7  H   UNL     1       0.048   1.764   2.043  0.00  0.00    -0.081 HD
ENDROOT
BRANCH   3   8
ATOM      8  C   UNL     1       0.206   1.736  -0.041  0.00  0.00    -0.060 C 
ATOM      9  C   UNL     1       1.671   2.222  -0.018  0.00  0.00    +0.020 C 
ATOM     10  C   UNL     1       2.454   1.087   0.607  0.00  0.00    -0.046 A 
ATOM     11  C   UNL     1       3.723   1.072   1.163  0.00  0.00    +0.004 A 
ATOM     12  C   UNL     1       4.241  -0.099   1.680  0.00  0.00    +0.000 A 
ATOM     13  C   UNL     1       3.491  -1.260   1.645  0.00  0.00    +0.000 A 
ATOM     14  C   UNL     1       2.226  -1.247   1.092  0.00  0.00    +0.004 A 
ATOM     15  C   UNL     1       1.705  -0.073   0.572  0.00  0.00    -0.046 A 
ATOM     16  C   UNL     1       0.366   0.202  -0.079  0.00  0.00    +0.020 C 
ENDBRANCH   3   8
BRANCH   6  17
ATOM     17  N   UNL     1      -3.138   3.784   4.037  0.00  0.00    -0.296 NA
ATOM     18  C   UNL     1      -4.430   3.110   4.231  0.00  0.00    +0.103 C 
ATOM     19  C   UNL     1      -4.955   3.414   5.636  0.00  0.00    +0.120 C 
ATOM     20  N   UNL     1      -5.093   4.868   5.801  0.00  0.00    -0.327 N 
ATOM     21  C   UNL     1      -3.801   5.542   5.607  0.00  0.00    +0.120 C 
ATOM     22  C   UNL     1      -3.276   5.238   4.202  0.00  0.00    +0.103 C 
BRANCH  20  23
ATOM     23  C   UNL     1      -5.638   5.181   7.048  0.00  0.00    +0.030 A 
ATOM     24  C   UNL     1      -4.956   6.026   7.914  0.00  0.00    +0.023 A 
ATOM     25  C   UNL     1      -5.500   6.337   9.145  0.00  0.00    +0.002 A 
ATOM     26  C   UNL     1      -6.719   5.800   9.519  0.00  0.00    +0.012 A 
ATOM     27  C   UNL     1      -7.398   4.954   8.662  0.00  0.00    +0.057 A 
ATOM     28  C   UNL     1      -6.861   4.643   7.428  0.00  0.00    +0.035 A 
BRANCH  27  29
ATOM     29  C   UNL     1      -8.725   4.371   9.074  0.00  0.00    +0.417 C 
ATOM     30  F   UNL     1      -8.515   3.154   9.733  0.00  0.00    -0.166 F 
ATOM     31  F   UNL     1      -9.377   5.260   9.935  0.00  0.00    -0.166 F 
ATOM     32  F   UNL     1      -9.513   4.157   7.939  0.00  0.00    -0.166 F 
ENDBRANCH  27  29
ENDBRANCH  20  23
ENDBRANCH   6  17
BRANCH   1  33
ATOM     33  C   UNL     1      -0.293   3.452   3.771  0.00  0.00    +0.014 C 
BRANCH  33  34
ATOM     34  C   UNL     1       1.082   4.123   3.763  0.00  0.00    +0.121 C 
BRANCH  34  35
ATOM     35  C   UNL     1       1.919   3.564   4.884  0.00  0.00    +0.307 C 
ATOM     36  O   UNL     1       1.464   2.717   5.614  0.00  0.00    -0.251 OA
BRANCH  35  38
ATOM     37  C   UNL     1       3.921   3.425   6.170  0.00  0.00    +0.280 C 
ATOM     38  O   UNL     1       3.172   4.008   5.071  0.00  0.00    -0.468 OA
ENDBRANCH  35  38
ENDBRANCH  34  35
ENDBRANCH  33  34
ENDBRANCH   1  33
TORSDOF 8
