REMARK  Name = ZINC06195740
REMARK  10 active torsions:
REMARK  status: ('A' for Active; 'I' for Inactive)
REMARK    1  A    between atoms: C_1  and  C_2
REMARK    2  A    between atoms: C_2  and  O_3
REMARK    3  A    between atoms: O_3  and  C_4
REMARK    4  A    between atoms: C_6  and  C_12
REMARK    5  A    between atoms: C_9  and  O_10
REMARK    6  A    between atoms: C_18  and  C_31
REMARK    7  A    between atoms: C_19  and  C_20
REMARK    8  A    between atoms: N_22  and  C_23
REMARK    9  A    between atoms: C_28  and  O_29
REMARK   10  A    between atoms: O_29  and  C_30
REMARK                            x       y       z     vdW  Elec       q    Type
REMARK                         _______ _______ _______ _____ _____    ______ ____
ROOT
ATOM      1  C   UNL     1       0.625  -4.948  -0.019  0.00  0.00    +0.072 C 
ATOM      2  C   UNL     1       0.530  -5.855  -1.261  0.00  0.00    +0.111 C 
ATOM      3  C   UNL     1       0.408  -7.343  -0.982  0.00  0.00    +0.030 C 
ATOM      4  N   UNL     1       0.528  -7.785   0.219  0.00  0.00    -0.260 NA
ATOM      5  C   UNL     1       0.713  -7.029   1.307  0.00  0.00    +0.047 C 
ATOM      6  C   UNL     1       0.727  -5.684   1.306  0.00  0.00    +0.044 C 
ATOM      7  C   UNL     1       0.887  -7.733   2.628  0.00  0.00    +0.066 C 
ATOM      8  C   UNL     1       0.091  -8.258  -2.139  0.00  0.00    +0.052 C 
ATOM      9  C   UNL     1      -1.227  -7.799  -2.774  0.00  0.00    +0.013 C 
ATOM     10  C   UNL     1      -1.115  -6.334  -3.204  0.00  0.00    +0.075 C 
ATOM     11  C   UNL     1      -0.713  -5.469  -2.026  0.00  0.00    +0.143 C 
ATOM     12  O   UNL     1      -1.377  -4.516  -1.694  0.00  0.00    -0.297 OA
ENDROOT
BRANCH   1  15
ATOM     13  C   UNL     1      -2.907  -3.746   0.575  0.00  0.00    +0.163 A 
ATOM     14  C   UNL     1      -1.782  -4.555   0.538  0.00  0.00    +0.053 A 
ATOM     15  C   UNL     1      -0.597  -4.067   0.020  0.00  0.00    -0.034 A 
ATOM     16  C   UNL     1      -0.530  -2.773  -0.462  0.00  0.00    +0.023 A 
ATOM     17  C   UNL     1      -1.649  -1.961  -0.428  0.00  0.00    +0.063 A 
ATOM     18  C   UNL     1      -2.842  -2.446   0.084  0.00  0.00    +0.173 A 
ATOM     19 BR   UNL     1      -1.552  -0.191  -1.087  0.00  0.00    -0.046 Br
BRANCH  18  20
ATOM     20  O   UNL     1      -3.945  -1.651   0.114  0.00  0.00    -0.503 OA
ATOM     21  H   UNL     1      -4.033  -1.130   0.923  0.00  0.00    +0.292 HD
ENDBRANCH  18  20
BRANCH  13  22
ATOM     22  O   UNL     1      -4.074  -4.225   1.085  0.00  0.00    -0.489 OA
BRANCH  22  24
ATOM     23  C   UNL     1      -5.456  -5.926   2.100  0.00  0.00    +0.048 C 
ATOM     24  C   UNL     1      -4.066  -5.569   1.570  0.00  0.00    +0.226 C 
ENDBRANCH  22  24
ENDBRANCH  13  22
ENDBRANCH   1  15
BRANCH   6  25
ATOM     25  C   UNL     1       0.886  -4.946   2.558  0.00  0.00    +0.247 C 
ATOM     26  O   UNL     1       0.967  -5.548   3.613  0.00  0.00    -0.270 OA
ATOM     27  N   UNL     1       0.944  -3.600   2.544  0.00  0.00    -0.279 N 
ATOM     28  H   UNL     1       0.816  -3.118   1.712  0.00  0.00    +0.155 HD
BRANCH  27  29
ATOM     29  C   UNL     1       1.189  -2.897   3.730  0.00  0.00    +0.076 A 
ATOM     30  C   UNL     1       0.846  -3.456   4.953  0.00  0.00    +0.027 A 
ATOM     31  C   UNL     1       1.088  -2.760   6.122  0.00  0.00    +0.002 A 
ATOM     32  C   UNL     1       1.672  -1.508   6.077  0.00  0.00    +0.004 A 
ATOM     33  C   UNL     1       2.017  -0.944   4.862  0.00  0.00    +0.047 A 
ATOM     34  C   UNL     1       1.783  -1.638   3.686  0.00  0.00    +0.141 A 
BRANCH  34  35
ATOM     35  O   UNL     1       2.126  -1.087   2.491  0.00  0.00    -0.493 OA
ATOM     36  C   UNL     1       2.731   0.207   2.522  0.00  0.00    +0.277 C 
ENDBRANCH  34  35
ENDBRANCH  27  29
ENDBRANCH   6  25
TORSDOF 7
