REMARK  Name = ZINC63375252
REMARK  9 active torsions:
REMARK  status: ('A' for Active; 'I' for Inactive)
REMARK    1  A    between atoms: C_1  and  C_2
REMARK    2  A    between atoms: C_2  and  O_3
REMARK    3  A    between atoms: O_3  and  C_4
REMARK    4  A    between atoms: C_4  and  C_6
REMARK    5  A    between atoms: C_9  and  N_12
REMARK    6  A    between atoms: C_28  and  C_33
REMARK    7  A    between atoms: C_36  and  C_39
REMARK    8  A    between atoms: C_39  and  C_40
REMARK    9  A    between atoms: C_39  and  C_41
REMARK                            x       y       z     vdW  Elec       q    Type
REMARK                         _______ _______ _______ _____ _____    ______ ____
ROOT
ATOM      1  N   UNL     1       3.452  -4.047   5.813  0.00  0.00    -0.193 N 
ATOM      2  C   UNL     1       3.536  -5.357   6.123  0.00  0.00    +0.248 C 
ATOM      3  O   UNL     1       3.033  -6.284   5.527  0.00  0.00    -0.273 OA
ATOM      4  C   UNL     1       4.390  -5.428   7.370  0.00  0.00    +0.169 C 
ATOM      5  C   UNL     1       3.603  -6.098   8.510  0.00  0.00    +0.065 C 
ATOM      6  C   UNL     1       4.227  -5.617   9.798  0.00  0.00    -0.034 C 
ATOM      7  C   UNL     1       4.716  -6.297  10.830  0.00  0.00    -0.001 A 
ATOM      8  C   UNL     1       4.736  -7.737  11.131  0.00  0.00    +0.010 A 
ATOM      9  C   UNL     1       5.348  -8.099  12.290  0.00  0.00    +0.001 A 
ATOM     10  C   UNL     1       5.933  -7.182  13.170  0.00  0.00    +0.002 A 
ATOM     11  C   UNL     1       5.952  -5.839  12.977  0.00  0.00    +0.026 A 
ATOM     12  C   UNL     1       5.333  -5.337  11.795  0.00  0.00    +0.043 A 
ATOM     13  N   UNL     1       5.192  -4.116  11.374  0.00  0.00    -0.375 N 
ATOM     14  C   UNL     1       4.424  -4.143  10.128  0.00  0.00    +0.131 C 
ATOM     15  C   UNL     1       5.215  -3.526   8.964  0.00  0.00    +0.135 C 
ATOM     16  N   UNL     1       4.611  -4.008   7.710  0.00  0.00    -0.264 N 
ATOM     17  C   UNL     1       4.099  -3.284   6.706  0.00  0.00    +0.317 C 
ATOM     18  O   UNL     1       4.205  -2.077   6.617  0.00  0.00    -0.252 OA
ATOM     19  H   UNL     1       5.536  -3.321  11.811  0.00  0.00    +0.160 HD
ENDROOT
BRANCH   1  23
ATOM     20  C   UNL     1       1.446  -2.554   2.478  0.00  0.00    +0.059 A 
ATOM     21  C   UNL     1       1.983  -1.676   3.423  0.00  0.00    +0.017 A 
ATOM     22  C   UNL     1       2.645  -2.173   4.524  0.00  0.00    +0.025 A 
ATOM     23  C   UNL     1       2.780  -3.546   4.695  0.00  0.00    +0.045 A 
ATOM     24  C   UNL     1       2.247  -4.423   3.756  0.00  0.00    +0.025 A 
ATOM     25  C   UNL     1       1.578  -3.934   2.656  0.00  0.00    +0.017 A 
BRANCH  20  26
ATOM     26  C   UNL     1       0.736  -2.026   1.298  0.00  0.00    +0.339 C 
ATOM     27  O   UNL     1       0.265  -2.791   0.479  0.00  0.00    -0.245 OA
BRANCH  26  28
ATOM     28  O   UNL     1       0.609  -0.695   1.127  0.00  0.00    -0.461 OA
BRANCH  28  30
ATOM     29  C   UNL     1      -0.133   1.275  -0.059  0.00  0.00    +0.048 C 
ATOM     30  C   UNL     1      -0.091  -0.254  -0.038  0.00  0.00    +0.229 C 
ENDBRANCH  28  30
ENDBRANCH  26  28
ENDBRANCH  20  26
ENDBRANCH   1  23
BRANCH  15  31
ATOM     31  C   UNL     1       6.653  -3.971   9.027  0.00  0.00    -0.025 A 
ATOM     32  C   UNL     1       6.977  -5.298   8.813  0.00  0.00    +0.006 A 
ATOM     33  C   UNL     1       8.296  -5.705   8.870  0.00  0.00    +0.004 A 
ATOM     34  C   UNL     1       9.292  -4.786   9.142  0.00  0.00    -0.045 A 
ATOM     35  C   UNL     1       8.969  -3.459   9.355  0.00  0.00    +0.004 A 
ATOM     36  C   UNL     1       7.650  -3.051   9.293  0.00  0.00    +0.006 A 
BRANCH  34  37
ATOM     37  C   UNL     1      10.731  -5.231   9.205  0.00  0.00    +0.013 C 
ATOM     38  C   UNL     1      11.544  -4.479   8.150  0.00  0.00    +0.012 C 
ATOM     39  C   UNL     1      11.296  -4.931  10.595  0.00  0.00    +0.012 C 
ENDBRANCH  34  37
ENDBRANCH  15  31
TORSDOF 6
