REMARK  Name = ZINC09615436
REMARK  8 active torsions:
REMARK  status: ('A' for Active; 'I' for Inactive)
REMARK    1  A    between atoms: C_1  and  C_2
REMARK    2  A    between atoms: C_5  and  N_9
REMARK    3  A    between atoms: C_6  and  C_8
REMARK    4  A    between atoms: N_9  and  C_10
REMARK    5  A    between atoms: C_11  and  C_27
REMARK    6  A    between atoms: C_14  and  C_17
REMARK    7  A    between atoms: N_19  and  C_20
REMARK    8  A    between atoms: N_29  and  C_30
REMARK                            x       y       z     vdW  Elec       q    Type
REMARK                         _______ _______ _______ _____ _____    ______ ____
ROOT
ATOM      1  C   UNL     1      -0.242  -4.779  -1.240  0.00  0.00    +0.081 C 
ATOM      2  C   UNL     1      -0.325  -6.163  -1.388  0.00  0.00    +0.086 C 
ATOM      3  C   UNL     1      -0.367  -6.733  -2.711  0.00  0.00    +0.069 C 
ATOM      4  N   UNL     1      -0.443  -8.013  -2.924  0.00  0.00    -0.302 NA
ATOM      5  C   UNL     1      -0.314  -5.716  -3.834  0.00  0.00    +0.187 C 
ATOM      6  S   UNL     1      -0.222  -4.137  -2.901  0.00  0.00    -0.090 S 
ATOM      7  H   UNL     1      -0.401  -8.632  -2.178  0.00  0.00    +0.186 HD
ENDROOT
BRANCH   5   8
ATOM      8  C   UNL     1      -1.565  -5.771  -4.672  0.00  0.00    +0.236 C 
ATOM      9  O   UNL     1      -2.633  -6.014  -4.152  0.00  0.00    -0.274 OA
ATOM     10  N   UNL     1      -1.497  -5.550  -6.000  0.00  0.00    -0.284 N 
ATOM     11  H   UNL     1      -0.634  -5.442  -6.430  0.00  0.00    +0.155 HD
BRANCH  10  12
ATOM     12  C   UNL     1      -2.671  -5.478  -6.758  0.00  0.00    +0.033 A 
ATOM     13  C   UNL     1      -2.689  -5.958  -8.061  0.00  0.00    +0.024 A 
ATOM     14  C   UNL     1      -3.849  -5.885  -8.807  0.00  0.00    +0.017 A 
ATOM     15  C   UNL     1      -4.993  -5.335  -8.257  0.00  0.00    +0.018 A 
ATOM     16  C   UNL     1      -4.978  -4.856  -6.959  0.00  0.00    +0.017 A 
ATOM     17  C   UNL     1      -3.822  -4.931  -6.207  0.00  0.00    +0.024 A 
ATOM     18 BR   UNL     1      -6.580  -5.237  -9.281  0.00  0.00    -0.050 Br
ENDBRANCH  10  12
ENDBRANCH   5   8
BRANCH   2  19
ATOM     19  C   UNL     1      -0.368  -7.029  -0.212  0.00  0.00    +0.248 C 
ATOM     20  O   UNL     1       0.654  -7.543   0.204  0.00  0.00    -0.270 OA
ATOM     21  N   UNL     1      -1.540  -7.257   0.414  0.00  0.00    -0.308 N 
ATOM     22  H   UNL     1      -2.365  -6.908   0.041  0.00  0.00    +0.149 HD
BRANCH  21  23
ATOM     23  C   UNL     1      -1.568  -8.034   1.655  0.00  0.00    +0.073 C 
ATOM     24  C   UNL     1      -2.447  -7.513   2.795  0.00  0.00    +0.024 C 
ATOM     25  C   UNL     1      -2.870  -8.755   2.008  0.00  0.00    +0.024 C 
ENDBRANCH  21  23
ENDBRANCH   2  19
BRANCH   1  26
ATOM     26  N   UNL     1      -0.194  -4.069  -0.073  0.00  0.00    -0.308 N 
ATOM     27  H   UNL     1      -0.168  -4.535   0.778  0.00  0.00    +0.153 HD
BRANCH  26  32
ATOM     28  C   UNL     1      -0.146   1.601  -0.204  0.00  0.00    +0.044 C 
ATOM     29  C   UNL     1      -0.159   0.095  -0.169  0.00  0.00    -0.050 A 
ATOM     30  C   UNL     1       0.504  -0.624  -1.147  0.00  0.00    +0.005 A 
ATOM     31  C   UNL     1       0.495  -2.004  -1.118  0.00  0.00    +0.024 A 
ATOM     32  C   UNL     1      -0.182  -2.671  -0.105  0.00  0.00    +0.035 A 
ATOM     33  C   UNL     1      -0.847  -1.947   0.876  0.00  0.00    -0.029 A 
ATOM     34  C   UNL     1      -0.828  -0.566   0.845  0.00  0.00    +0.008 A 
ATOM     35  C   UNL     1      -1.582  -2.667   1.977  0.00  0.00    +0.045 C 
ENDBRANCH  26  32
ENDBRANCH   1  26
TORSDOF 6
