REMARK  Name = ZINC40757444
REMARK  6 active torsions:
REMARK  status: ('A' for Active; 'I' for Inactive)
REMARK    1  A    between atoms: C_1  and  C_2
REMARK    2  A    between atoms: C_7  and  N_8
REMARK    3  A    between atoms: C_10  and  N_23
REMARK    4  A    between atoms: C_11  and  N_15
REMARK    5  A    between atoms: N_15  and  N_16
REMARK    6  A    between atoms: N_16  and  C_17
REMARK                            x       y       z     vdW  Elec       q    Type
REMARK                         _______ _______ _______ _____ _____    ______ ____
ROOT
ATOM      1  N   UNL     1       0.025  -0.016   2.416  0.00  0.00    -0.299 N 
ATOM      2  C   UNL     1      -0.059  -0.717   3.614  0.00  0.00    +0.126 A 
ATOM      3  C   UNL     1      -0.169  -0.037   4.828  0.00  0.00    +0.105 A 
ATOM      4  C   UNL     1      -0.250  -0.790   6.000  0.00  0.00    +0.161 A 
ATOM      5  N   UNL     1      -0.220  -2.118   5.917  0.00  0.00    -0.219 NA
ATOM      6  C   UNL     1      -0.116  -2.721   4.750  0.00  0.00    +0.200 A 
ATOM      7  N   UNL     1      -0.042  -2.048   3.620  0.00  0.00    -0.333 N 
ATOM      8  H   UNL     1       0.084   0.952   2.424  0.00  0.00    +0.154 HD
ATOM      9  H   UNL     1       0.030  -2.530   2.781  0.00  0.00    +0.168 HD
ENDROOT
BRANCH   1  16
ATOM     10  C   UNL     1      -2.443  -1.074   1.476  0.00  0.00    +0.045 C 
ATOM     11  C   UNL     1      -1.159  -1.239   0.704  0.00  0.00    -0.029 A 
ATOM     12  C   UNL     1      -1.158  -1.916  -0.500  0.00  0.00    +0.005 A 
ATOM     13  C   UNL     1       0.020  -2.067  -1.208  0.00  0.00    +0.000 A 
ATOM     14  C   UNL     1       1.200  -1.542  -0.714  0.00  0.00    +0.002 A 
ATOM     15  C   UNL     1       1.206  -0.865   0.489  0.00  0.00    +0.023 A 
ATOM     16  C   UNL     1       0.023  -0.706   1.201  0.00  0.00    +0.035 A 
ENDBRANCH   1  16
BRANCH   3  17
ATOM     17  N   UNL     1      -0.197   1.367   4.868  0.00  0.00    -0.353 N 
ATOM     18  H   UNL     1      -0.139   1.877   4.045  0.00  0.00    +0.143 HD
ATOM     19  H   UNL     1      -0.273   1.826   5.719  0.00  0.00    +0.143 HD
ENDBRANCH   3  17
BRANCH   4  20
ATOM     20  N   UNL     1      -0.360  -0.162   7.236  0.00  0.00    -0.249 N 
ATOM     21  H   UNL     1      -0.381   0.806   7.287  0.00  0.00    +0.172 HD
BRANCH  20  22
ATOM     22  N   UNL     1      -0.441  -0.928   8.406  0.00  0.00    -0.265 N 
ATOM     23  H   UNL     1      -0.420  -1.897   8.354  0.00  0.00    +0.170 HD
BRANCH  22  24
ATOM     24  C   UNL     1      -0.552  -0.298   9.647  0.00  0.00    +0.044 A 
ATOM     25  C   UNL     1      -0.588   1.089   9.723  0.00  0.00    +0.024 A 
ATOM     26  C   UNL     1      -0.698   1.709  10.952  0.00  0.00    +0.002 A 
ATOM     27  C   UNL     1      -0.771   0.951  12.106  0.00  0.00    +0.000 A 
ATOM     28  C   UNL     1      -0.735  -0.429  12.034  0.00  0.00    +0.002 A 
ATOM     29  C   UNL     1      -0.632  -1.056  10.808  0.00  0.00    +0.024 A 
ENDBRANCH  22  24
ENDBRANCH  20  22
ENDBRANCH   4  20
TORSDOF 5
