REMARK  Name = ZINC04146870
REMARK  7 active torsions:
REMARK  status: ('A' for Active; 'I' for Inactive)
REMARK    1  A    between atoms: C_1  and  O_2
REMARK    2  A    between atoms: O_2  and  C_3
REMARK    3  A    between atoms: C_5  and  C_10
REMARK    4  A    between atoms: C_8  and  O_9
REMARK    5  A    between atoms: C_14  and  C_24
REMARK    6  A    between atoms: C_19  and  N_23
REMARK    7  A    between atoms: C_20  and  C_21
REMARK                            x       y       z     vdW  Elec       q    Type
REMARK                         _______ _______ _______ _____ _____    ______ ____
ROOT
ATOM      1  C   UNL     1      -4.923  -0.152   0.155  0.00  0.00    +0.082 C 
ATOM      2  C   UNL     1      -5.755  -0.225   1.441  0.00  0.00    +0.140 C 
ATOM      3  C   UNL     1      -5.261   0.778   2.458  0.00  0.00    +0.084 C 
ATOM      4  N   UNL     1      -6.241   1.621   2.641  0.00  0.00    -0.150 NA
ATOM      5  N   UNL     1      -7.343   1.335   1.836  0.00  0.00    -0.115 NA
ATOM      6  C   UNL     1      -7.139   0.303   1.073  0.00  0.00    +0.227 C 
ATOM      7  O   UNL     1      -7.856  -0.251   0.071  0.00  0.00    -0.425 OA
ATOM      8  C   UNL     1      -7.116  -0.632  -1.001  0.00  0.00    +0.200 C 
ATOM      9  C   UNL     1      -5.766  -0.610  -1.005  0.00  0.00    +0.095 C 
ENDROOT
BRANCH   3  10
ATOM     10  C   UNL     1      -3.942   0.799   3.111  0.00  0.00    -0.001 A 
ATOM     11  C   UNL     1      -3.426   1.998   3.614  0.00  0.00    +0.011 A 
ATOM     12  C   UNL     1      -2.190   2.010   4.225  0.00  0.00    +0.020 A 
ATOM     13  C   UNL     1      -1.460   0.838   4.341  0.00  0.00    +0.041 A 
ATOM     14  C   UNL     1      -1.965  -0.353   3.846  0.00  0.00    +0.020 A 
ATOM     15  C   UNL     1      -3.202  -0.381   3.238  0.00  0.00    +0.011 A 
ATOM     16 CL   UNL     1       0.096   0.863   5.112  0.00  0.00    -0.084 Cl
ENDBRANCH   3  10
BRANCH   1  19
ATOM     17  C   UNL     1      -1.335  -1.326   0.303  0.00  0.00    +0.162 A 
ATOM     18  C   UNL     1      -2.446  -0.507   0.185  0.00  0.00    +0.053 A 
ATOM     19  C   UNL     1      -3.716  -1.045   0.284  0.00  0.00    -0.034 A 
ATOM     20  C   UNL     1      -3.881  -2.400   0.503  0.00  0.00    +0.008 A 
ATOM     21  C   UNL     1      -2.776  -3.223   0.623  0.00  0.00    +0.049 A 
ATOM     22  C   UNL     1      -1.501  -2.691   0.518  0.00  0.00    +0.158 A 
BRANCH  17  24
ATOM     23  C   UNL     1       0.008   0.610  -0.015  0.00  0.00    +0.277 C 
ATOM     24  O   UNL     1      -0.086  -0.798   0.205  0.00  0.00    -0.491 OA
ENDBRANCH  17  24
BRANCH  22  25
ATOM     25  O   UNL     1      -0.414  -3.500   0.629  0.00  0.00    -0.503 OA
ATOM     26  H   UNL     1      -0.088  -3.599   1.535  0.00  0.00    +0.292 HD
ENDBRANCH  22  25
ENDBRANCH   1  19
BRANCH   8  27
ATOM     27  N   UNL     1      -7.768  -1.058  -2.132  0.00  0.00    -0.328 N 
ATOM     28  H   UNL     1      -8.738  -1.081  -2.153  0.00  0.00    +0.145 HD
ATOM     29  H   UNL     1      -7.259  -1.335  -2.910  0.00  0.00    +0.145 HD
ENDBRANCH   8  27
BRANCH   9  30
ATOM     30  C   UNL     1      -5.091  -1.053  -2.188  0.00  0.00    +0.100 C 
ATOM     31  N   UNL     1      -4.556  -1.404  -3.126  0.00  0.00    -0.191 NA
ENDBRANCH   9  30
TORSDOF 6
