REMARK  Name = ZINC38759904
REMARK  10 active torsions:
REMARK  status: ('A' for Active; 'I' for Inactive)
REMARK    1  A    between atoms: C_1  and  O_2
REMARK    2  A    between atoms: O_2  and  C_3
REMARK    3  A    between atoms: C_3  and  C_5
REMARK    4  A    between atoms: C_8  and  O_11
REMARK    5  A    between atoms: O_11  and  C_12
REMARK    6  A    between atoms: C_16  and  C_18
REMARK    7  A    between atoms: C_21  and  O_25
REMARK    8  A    between atoms: C_23  and  O_24
REMARK    9  A    between atoms: O_25  and  C_26
REMARK   10  A    between atoms: C_26  and  C_27
REMARK                            x       y       z     vdW  Elec       q    Type
REMARK                         _______ _______ _______ _____ _____    ______ ____
ROOT
ATOM      1  C   UNL     1      -2.661  -6.730  -0.057  0.00  0.00    +0.153 C 
ATOM      2  C   UNL     1      -3.826  -6.055  -0.128  0.00  0.00    +0.176 C 
ATOM      3  N   UNL     1      -4.863  -6.900  -0.147  0.00  0.00    -0.182 NA
ATOM      4  N   UNL     1      -4.561  -8.094  -0.098  0.00  0.00    -0.294 N 
ATOM      5  C   UNL     1      -3.092  -8.187  -0.038  0.00  0.00    +0.199 C 
ATOM      6  H   UNL     1      -5.181  -8.840  -0.102  0.00  0.00    +0.184 HD
ENDROOT
BRANCH   5   7
ATOM      7  C   UNL     1      -2.654  -8.857   1.238  0.00  0.00    +0.025 A 
ATOM      8  C   UNL     1      -3.558  -9.039   2.268  0.00  0.00    +0.013 A 
ATOM      9  C   UNL     1      -3.159  -9.653   3.439  0.00  0.00    +0.046 A 
ATOM     10  C   UNL     1      -1.849 -10.088   3.586  0.00  0.00    +0.124 A 
ATOM     11  C   UNL     1      -0.941  -9.906   2.554  0.00  0.00    +0.091 A 
ATOM     12  C   UNL     1      -1.345  -9.295   1.377  0.00  0.00    +0.126 A 
BRANCH  12  13
ATOM     13  O   UNL     1      -0.458  -9.120   0.362  0.00  0.00    -0.506 OA
ATOM     14  H   UNL     1       0.026  -8.284   0.403  0.00  0.00    +0.292 HD
ENDBRANCH  12  13
BRANCH  10  15
ATOM     15  O   UNL     1      -1.457 -10.691   4.739  0.00  0.00    -0.487 OA
BRANCH  15  16
ATOM     16  C   UNL     1      -2.446 -10.845   5.759  0.00  0.00    +0.264 C 
BRANCH  16  17
ATOM     17  C   UNL     1      -1.833 -11.529   6.953  0.00  0.00    -0.010 A 
ATOM     18  C   UNL     1      -1.850 -12.908   7.044  0.00  0.00    +0.008 A 
ATOM     19  C   UNL     1      -1.287 -13.536   8.139  0.00  0.00    +0.015 A 
ATOM     20  C   UNL     1      -0.708 -12.784   9.145  0.00  0.00    +0.018 A 
ATOM     21  C   UNL     1      -0.691 -11.404   9.054  0.00  0.00    +0.015 A 
ATOM     22  C   UNL     1      -1.249 -10.777   7.956  0.00  0.00    +0.008 A 
ATOM     23 BR   UNL     1       0.062 -13.642  10.644  0.00  0.00    -0.050 Br
ENDBRANCH  16  17
ENDBRANCH  15  16
ENDBRANCH  10  15
ENDBRANCH   5   7
BRANCH   1  24
ATOM     24  O   UNL     1      -1.407  -6.230  -0.018  0.00  0.00    -0.456 OA
BRANCH  24  28
ATOM     25  C   UNL     1       1.057  -6.922  -3.257  0.00  0.00    +0.059 A 
ATOM     26  C   UNL     1       1.559  -6.289  -2.116  0.00  0.00    +0.018 A 
ATOM     27  C   UNL     1       0.734  -6.060  -1.038  0.00  0.00    +0.047 A 
ATOM     28  C   UNL     1      -0.597  -6.458  -1.083  0.00  0.00    +0.128 A 
ATOM     29  C   UNL     1      -1.101  -7.088  -2.215  0.00  0.00    +0.047 A 
ATOM     30  C   UNL     1      -0.284  -7.315  -3.300  0.00  0.00    +0.018 A 
BRANCH  25  31
ATOM     31  C   UNL     1       1.937  -7.170  -4.414  0.00  0.00    +0.339 C 
ATOM     32  O   UNL     1       1.497  -7.715  -5.406  0.00  0.00    -0.245 OA
BRANCH  31  34
ATOM     33  C   UNL     1       4.024  -7.061  -5.527  0.00  0.00    +0.280 C 
ATOM     34  O   UNL     1       3.229  -6.790  -4.370  0.00  0.00    -0.464 OA
ENDBRANCH  31  34
ENDBRANCH  25  31
ENDBRANCH  24  28
ENDBRANCH   1  24
TORSDOF 9
