REMARK  Name = ZINC35807851
REMARK  8 active torsions:
REMARK  status: ('A' for Active; 'I' for Inactive)
REMARK    1  A    between atoms: C_6  and  C_7
REMARK    2  A    between atoms: C_7  and  N_8
REMARK    3  A    between atoms: N_8  and  C_9
REMARK    4  A    between atoms: N_8  and  C_19
REMARK    5  A    between atoms: C_9  and  C_10
REMARK    6  A    between atoms: C_19  and  C_20
REMARK    7  A    between atoms: C_22  and  C_25
REMARK    8  A    between atoms: N_27  and  C_28
REMARK                            x       y       z     vdW  Elec       q    Type
REMARK                         _______ _______ _______ _____ _____    ______ ____
ROOT
ATOM      1  N   UNL     1      -2.774  -1.172  -1.946  0.00  0.00    +0.389 N 
ATOM      2  H   UNL     1      -2.853  -0.290  -2.431  0.00  0.00    -0.080 HD
ENDROOT
BRANCH   1   3
ATOM      3  C   UNL     1      -2.909  -0.951  -0.500  0.00  0.00    -0.042 C 
BRANCH   3   9
ATOM      4  C   UNL     1      -2.083   1.387  -0.153  0.00  0.00    +0.003 A 
ATOM      5  C   UNL     1      -1.120   2.284   0.267  0.00  0.00    +0.020 A 
ATOM      6  C   UNL     1       0.070   1.821   0.800  0.00  0.00    +0.041 A 
ATOM      7  C   UNL     1       0.295   0.461   0.912  0.00  0.00    +0.020 A 
ATOM      8  C   UNL     1      -0.669  -0.435   0.490  0.00  0.00    +0.003 A 
ATOM      9  C   UNL     1      -1.858   0.027  -0.042  0.00  0.00    -0.064 A 
ATOM     10 CL   UNL     1       1.281   2.948   1.328  0.00  0.00    -0.084 Cl
ENDBRANCH   3   9
ENDBRANCH   1   3
BRANCH   1  11
ATOM     11  C   UNL     1      -3.836  -2.079  -2.404  0.00  0.00    -0.042 C 
BRANCH  11  12
ATOM     12  C   UNL     1      -5.176  -1.413  -2.226  0.00  0.00    -0.060 A 
ATOM     13  C   UNL     1      -5.869  -1.564  -1.040  0.00  0.00    +0.005 A 
ATOM     14  C   UNL     1      -7.099  -0.955  -0.871  0.00  0.00    +0.050 A 
ATOM     15  C   UNL     1      -7.640  -0.192  -1.893  0.00  0.00    +0.166 A 
ATOM     16  C   UNL     1      -6.941  -0.040  -3.088  0.00  0.00    +0.166 A 
ATOM     17  C   UNL     1      -5.707  -0.648  -3.248  0.00  0.00    +0.051 A 
ATOM     18  O   UNL     1      -7.677   0.749  -3.926  0.00  0.00    -0.453 OA
ATOM     19  C   UNL     1      -9.012   0.741  -3.387  0.00  0.00    +0.466 C 
ATOM     20  O   UNL     1      -8.812   0.501  -1.982  0.00  0.00    -0.453 OA
ENDBRANCH  11  12
ENDBRANCH   1  11
BRANCH   1  21
ATOM     21  C   UNL     1      -1.463  -1.771  -2.230  0.00  0.00    -0.014 C 
BRANCH  21  22
ATOM     22  C   UNL     1      -1.298  -1.939  -3.718  0.00  0.00    +0.063 A 
ATOM     23  N   UNL     1      -0.893  -1.055  -4.588  0.00  0.00    -0.241 NA
ATOM     24  C   UNL     1      -0.819  -1.416  -5.873  0.00  0.00    +0.133 A 
ATOM     25  C   UNL     1      -1.183  -2.705  -6.158  0.00  0.00    +0.079 A 
ATOM     26  S   UNL     1      -1.587  -3.310  -4.644  0.00  0.00    -0.082 S 
BRANCH  24  27
ATOM     27  C   UNL     1      -0.372  -0.483  -6.921  0.00  0.00    +0.267 C 
ATOM     28  O   UNL     1      -0.407  -0.819  -8.090  0.00  0.00    -0.268 OA
ATOM     29  N   UNL     1       0.075   0.743  -6.585  0.00  0.00    -0.280 N 
ATOM     30  H   UNL     1       0.168   0.987  -5.651  0.00  0.00    +0.155 HD
BRANCH  29  31
ATOM     31  C   UNL     1       0.407   1.665  -7.585  0.00  0.00    +0.034 A 
ATOM     32  C   UNL     1      -0.308   1.688  -8.774  0.00  0.00    +0.026 A 
ATOM     33  C   UNL     1       0.020   2.599  -9.759  0.00  0.00    +0.040 A 
ATOM     34  C   UNL     1       1.062   3.489  -9.560  0.00  0.00    +0.124 A 
ATOM     35  C   UNL     1       1.776   3.468  -8.374  0.00  0.00    +0.040 A 
ATOM     36  C   UNL     1       1.448   2.562  -7.385  0.00  0.00    +0.026 A 
ATOM     37  F   UNL     1       1.382   4.379 -10.525  0.00  0.00    -0.205 F 
ENDBRANCH  29  31
ENDBRANCH  24  27
ENDBRANCH  21  22
ENDBRANCH   1  21
TORSDOF 8
