REMARK  Name = ZINC67589428
REMARK  13 active torsions:
REMARK  status: ('A' for Active; 'I' for Inactive)
REMARK    1  A    between atoms: C_1  and  C_2
REMARK    2  A    between atoms: C_6  and  C_28
REMARK    3  A    between atoms: C_7  and  O_8
REMARK    4  A    between atoms: O_8  and  C_9
REMARK    5  A    between atoms: C_9  and  C_10
REMARK    6  A    between atoms: C_10  and  C_12
REMARK    7  A    between atoms: C_10  and  O_27
REMARK    8  A    between atoms: C_12  and  N_13
REMARK    9  A    between atoms: N_16  and  C_17
REMARK   10  A    between atoms: C_19  and  C_25
REMARK   11  A    between atoms: C_19  and  C_26
REMARK   12  A    between atoms: C_21  and  C_23
REMARK   13  A    between atoms: C_21  and  C_24
REMARK                            x       y       z     vdW  Elec       q    Type
REMARK                         _______ _______ _______ _____ _____    ______ ____
ROOT
ATOM      1  N   UNL     1      -2.865   2.040   6.345  0.00  0.00    -0.297 N 
ATOM      2  C   UNL     1      -3.853   2.330   7.215  0.00  0.00    +0.300 C 
ATOM      3  O   UNL     1      -4.997   2.001   6.967  0.00  0.00    -0.253 OA
ATOM      4  N   UNL     1      -3.573   2.985   8.358  0.00  0.00    -0.297 N 
ATOM      5  H   UNL     1      -1.953   2.302   6.542  0.00  0.00    +0.150 HD
ATOM      6  H   UNL     1      -2.660   3.248   8.556  0.00  0.00    +0.151 HD
ENDROOT
BRANCH   4   7
ATOM      7  C   UNL     1      -4.649   3.301   9.306  0.00  0.00    +0.072 C 
ATOM      8  C   UNL     1      -4.854   2.114  10.249  0.00  0.00    +0.009 C 
ATOM      9  C   UNL     1      -5.963   2.432  11.250  0.00  0.00    -0.072 C 
ATOM     10  N   UNL     1      -5.716   3.675  11.965  0.00  0.00    +0.386 N 
ATOM     11  C   UNL     1      -5.310   4.834  11.185  0.00  0.00    -0.072 C 
ATOM     12  C   UNL     1      -4.243   4.513  10.143  0.00  0.00    +0.009 C 
ATOM     13  C   UNL     1      -6.507   5.513  10.514  0.00  0.00    -0.010 C 
ATOM     14  C   UNL     1      -4.699   5.862  12.166  0.00  0.00    -0.010 C 
ATOM     15  C   UNL     1      -5.982   1.290  12.292  0.00  0.00    -0.010 C 
ATOM     16  C   UNL     1      -7.322   2.430  10.551  0.00  0.00    -0.010 C 
ATOM     17  H   UNL     1      -6.562   3.919  12.487  0.00  0.00    -0.084 HD
ATOM     18  H   UNL     1      -5.002   3.500  12.676  0.00  0.00    -0.084 HD
ENDBRANCH   4   7
BRANCH   1  19
ATOM     19  C   UNL     1      -3.170   1.328   5.101  0.00  0.00    +0.140 C 
BRANCH  19  20
ATOM     20  C   UNL     1      -1.882   1.126   4.300  0.00  0.00    +0.169 C 
BRANCH  20  21
ATOM     21  O   UNL     1      -1.308   2.398   3.993  0.00  0.00    -0.387 OA
ATOM     22  H   UNL     1      -1.883   2.972   3.469  0.00  0.00    +0.210 HD
ENDBRANCH  20  21
BRANCH  20  23
ATOM     23  C   UNL     1      -2.200   0.382   3.002  0.00  0.00    +0.261 C 
BRANCH  23  24
ATOM     24  O   UNL     1      -0.984   0.091   2.309  0.00  0.00    -0.489 OA
BRANCH  24  31
ATOM     25  C   UNL     1      -1.253   1.644  -0.035  0.00  0.00    +0.047 C 
ATOM     26  C   UNL     1      -1.225   0.138  -0.057  0.00  0.00    -0.009 A 
ATOM     27  C   UNL     1      -1.327  -0.538  -1.258  0.00  0.00    +0.007 A 
ATOM     28  C   UNL     1      -1.301  -1.921  -1.278  0.00  0.00    +0.001 A 
ATOM     29  C   UNL     1      -1.173  -2.630  -0.098  0.00  0.00    +0.007 A 
ATOM     30  C   UNL     1      -1.071  -1.959   1.105  0.00  0.00    -0.009 A 
ATOM     31  C   UNL     1      -1.091  -0.572   1.128  0.00  0.00    +0.126 A 
ATOM     32  C   UNL     1      -0.932  -2.732   2.390  0.00  0.00    +0.047 C 
ENDBRANCH  24  31
ENDBRANCH  23  24
ENDBRANCH  20  23
ENDBRANCH  19  20
ENDBRANCH   1  19
TORSDOF 7
