REMARK  Name = ZINC44727927
REMARK  6 active torsions:
REMARK  status: ('A' for Active; 'I' for Inactive)
REMARK    1  A    between atoms: C_1  and  C_2
REMARK    2  A    between atoms: C_4  and  C_7
REMARK    3  A    between atoms: C_7  and  N_8
REMARK    4  A    between atoms: N_8  and  C_9
REMARK    5  A    between atoms: C_18  and  C_19
REMARK    6  A    between atoms: C_19  and  N_21
REMARK                            x       y       z     vdW  Elec       q    Type
REMARK                         _______ _______ _______ _____ _____    ______ ____
ROOT
ATOM      1  C   UNL     1      -2.724  -4.746  -1.726  0.00  0.00    +0.048 A 
ATOM      2  C   UNL     1      -2.686  -5.427  -2.966  0.00  0.00    +0.020 A 
ATOM      3  C   UNL     1      -1.967  -4.914  -4.054  0.00  0.00    +0.012 A 
ATOM      4  C   UNL     1      -1.950  -5.597  -5.234  0.00  0.00    +0.001 A 
ATOM      5  C   UNL     1      -2.639  -6.799  -5.370  0.00  0.00    +0.002 A 
ATOM      6  C   UNL     1      -3.348  -7.324  -4.332  0.00  0.00    +0.026 A 
ATOM      7  C   UNL     1      -3.387  -6.649  -3.101  0.00  0.00    +0.048 A 
ATOM      8  N   UNL     1      -4.077  -7.149  -2.066  0.00  0.00    -0.360 N 
ATOM      9  C   UNL     1      -4.130  -6.542  -0.909  0.00  0.00    +0.095 A 
ATOM     10  C   UNL     1      -3.461  -5.327  -0.683  0.00  0.00    +0.040 A 
ATOM     11  H   UNL     1      -4.551  -7.988  -2.179  0.00  0.00    +0.165 HD
ENDROOT
BRANCH   1  12
ATOM     12  N   UNL     1      -2.057  -3.554  -1.547  0.00  0.00    -0.337 N 
ATOM     13  H   UNL     1      -1.312  -3.503  -0.927  0.00  0.00    +0.146 HD
BRANCH  12  14
ATOM     14  C   UNL     1      -2.471  -2.362  -2.292  0.00  0.00    +0.160 C 
BRANCH  14  18
ATOM     15  C   UNL     1      -1.313   1.838   0.347  0.00  0.00    +0.089 C 
ATOM     16  C   UNL     1      -2.054   0.647  -0.203  0.00  0.00    +0.135 A 
ATOM     17  C   UNL     1      -1.578  -0.235  -1.103  0.00  0.00    +0.072 A 
ATOM     18  C   UNL     1      -2.579  -1.192  -1.349  0.00  0.00    +0.101 A 
ATOM     19  N   UNL     1      -3.616  -0.889  -0.621  0.00  0.00    -0.081 NA
ATOM     20  O   UNL     1      -3.302   0.275   0.121  0.00  0.00    -0.360 OA
ENDBRANCH  14  18
ENDBRANCH  12  14
ENDBRANCH   1  12
BRANCH  10  21
ATOM     21  C   UNL     1      -3.535  -4.671   0.631  0.00  0.00    +0.080 C 
ATOM     22  S   UNL     1      -2.589  -3.280   0.948  0.00  0.00    -0.035 S 
BRANCH  21  23
ATOM     23  N   UNL     1      -4.349  -5.165   1.586  0.00  0.00    -0.352 N 
ATOM     24  H   UNL     1      -4.885  -5.952   1.406  0.00  0.00    +0.143 HD
ATOM     25  H   UNL     1      -4.398  -4.732   2.452  0.00  0.00    +0.143 HD
ENDBRANCH  21  23
ENDBRANCH  10  21
TORSDOF 5
