REMARK  Name = ZINC40322847
REMARK  8 active torsions:
REMARK  status: ('A' for Active; 'I' for Inactive)
REMARK    1  A    between atoms: C_1  and  C_2
REMARK    2  A    between atoms: C_5  and  S_8
REMARK    3  A    between atoms: S_8  and  C_11
REMARK    4  A    between atoms: C_14  and  C_16
REMARK    5  A    between atoms: N_18  and  C_19
REMARK    6  A    between atoms: C_19  and  C_20
REMARK    7  A    between atoms: C_20  and  C_22
REMARK    8  A    between atoms: C_20  and  N_29
REMARK                            x       y       z     vdW  Elec       q    Type
REMARK                         _______ _______ _______ _____ _____    ______ ____
ROOT
ATOM      1  C   UNL     1       5.863  -7.518  -2.013  0.00  0.00    +0.279 C 
ATOM      2  O   UNL     1       6.112  -6.571  -1.290  0.00  0.00    -0.267 OA
ATOM      3  N   UNL     1       5.606  -7.318  -3.321  0.00  0.00    -0.310 N 
ATOM      4  H   UNL     1       5.408  -8.073  -3.897  0.00  0.00    +0.149 HD
ENDROOT
BRANCH   1   8
ATOM      5  C   UNL     1       5.649 -11.057  -1.319  0.00  0.00    +0.246 A 
ATOM      6  C   UNL     1       5.957 -10.613  -0.080  0.00  0.00    +0.070 A 
ATOM      7  C   UNL     1       6.082  -9.217  -0.160  0.00  0.00    +0.056 A 
ATOM      8  C   UNL     1       5.842  -8.876  -1.460  0.00  0.00    +0.192 A 
ATOM      9  O   UNL     1       5.586 -10.008  -2.149  0.00  0.00    -0.433 OA
BRANCH   5  10
ATOM     10  S   UNL     1       5.383 -12.739  -1.769  0.00  0.00    +0.058 S 
ATOM     11  O   UNL     1       6.066 -13.530  -0.806  0.00  0.00    -0.161 OA
ATOM     12  O   UNL     1       5.651 -12.834  -3.161  0.00  0.00    -0.161 OA
BRANCH  10  17
ATOM     13  C   UNL     1      -0.502 -13.869  -1.064  0.00  0.00    +0.044 C 
ATOM     14  C   UNL     1       0.968 -13.587  -1.240  0.00  0.00    -0.050 A 
ATOM     15  C   UNL     1       1.442 -13.122  -2.453  0.00  0.00    +0.005 A 
ATOM     16  C   UNL     1       2.791 -12.863  -2.614  0.00  0.00    +0.028 A 
ATOM     17  C   UNL     1       3.665 -13.068  -1.563  0.00  0.00    +0.097 A 
ATOM     18  C   UNL     1       3.190 -13.532  -0.350  0.00  0.00    +0.028 A 
ATOM     19  C   UNL     1       1.841 -13.787  -0.188  0.00  0.00    +0.005 A 
ENDBRANCH  10  17
ENDBRANCH   5  10
ENDBRANCH   1   8
BRANCH   3  20
ATOM     20  C   UNL     1       5.627  -5.961  -3.873  0.00  0.00    +0.094 C 
BRANCH  20  21
ATOM     21  C   UNL     1       5.427  -6.024  -5.388  0.00  0.00    -0.019 C 
BRANCH  21  22
ATOM     22  N   UNL     1       4.202  -6.776  -5.690  0.00  0.00    +0.385 N 
ATOM     23  C   UNL     1       4.001  -6.786  -7.152  0.00  0.00    -0.078 C 
ATOM     24  C   UNL     1       3.166  -7.991  -7.506  0.00  0.00    -0.019 C 
ATOM     25  C   UNL     1       1.674  -7.628  -7.624  0.00  0.00    -0.002 C 
ATOM     26  C   UNL     1       1.234  -6.647  -6.519  0.00  0.00    -0.002 C 
ATOM     27  C   UNL     1       1.828  -6.991  -5.176  0.00  0.00    -0.019 C 
ATOM     28  C   UNL     1       3.140  -6.201  -4.989  0.00  0.00    -0.078 C 
ATOM     29  H   UNL     1       4.321  -7.726  -5.374  0.00  0.00    -0.081 HD
ENDBRANCH  21  22
BRANCH  21  30
ATOM     30  C   UNL     1       6.608  -6.712  -6.023  0.00  0.00    -0.041 A 
ATOM     31  C   UNL     1       6.517  -8.041  -6.392  0.00  0.00    +0.003 A 
ATOM     32  C   UNL     1       7.600  -8.673  -6.974  0.00  0.00    +0.000 A 
ATOM     33  C   UNL     1       8.775  -7.976  -7.188  0.00  0.00    +0.001 A 
ATOM     34  C   UNL     1       8.867  -6.647  -6.819  0.00  0.00    +0.020 A 
ATOM     35  C   UNL     1       7.781  -6.013  -6.242  0.00  0.00    +0.043 A 
ATOM     36 CL   UNL     1       7.894  -4.342  -5.784  0.00  0.00    -0.083 Cl
ENDBRANCH  21  30
ENDBRANCH  20  21
ENDBRANCH   3  20
TORSDOF 7
