REMARK  Name = ZINC39699849
REMARK  4 active torsions:
REMARK  status: ('A' for Active; 'I' for Inactive)
REMARK    1  A    between atoms: C_1  and  O_2
REMARK    2  A    between atoms: O_2  and  C_3
REMARK    3  A    between atoms: C_4  and  C_11
REMARK    4  A    between atoms: N_12  and  N_13
REMARK                            x       y       z     vdW  Elec       q    Type
REMARK                         _______ _______ _______ _____ _____    ______ ____
ROOT
ATOM      1  N   UNL     1       2.903   0.362  -2.385  0.00  0.00    -0.206 N 
ATOM      2  C   UNL     1       2.276   0.985  -3.445  0.00  0.00    +0.227 C 
ATOM      3  N   UNL     1       0.996   1.250  -3.337  0.00  0.00    -0.220 NA
ATOM      4  C   UNL     1       0.323   1.838  -4.493  0.00  0.00    +0.253 C 
ATOM      5  C   UNL     1       1.383   2.623  -5.251  0.00  0.00    +0.115 C 
ATOM      6  C   UNL     1       0.834   3.848  -5.484  0.00  0.00    +0.025 A 
ATOM      7  C   UNL     1       1.282   4.966  -6.230  0.00  0.00    +0.012 A 
ATOM      8  C   UNL     1       0.484   6.066  -6.248  0.00  0.00    +0.001 A 
ATOM      9  C   UNL     1      -0.742   6.160  -5.582  0.00  0.00    +0.002 A 
ATOM     10  C   UNL     1      -1.273   5.149  -4.844  0.00  0.00    +0.026 A 
ATOM     11  C   UNL     1      -0.480   3.911  -4.772  0.00  0.00    +0.046 A 
ATOM     12  N   UNL     1      -0.732   2.788  -4.171  0.00  0.00    -0.358 N 
ATOM     13  N   UNL     1       2.610   2.128  -5.439  0.00  0.00    -0.171 NA
ATOM     14  N   UNL     1       3.019   1.292  -4.536  0.00  0.00    -0.247 N 
ATOM     15  H   UNL     1       3.849   0.156  -2.435  0.00  0.00    +0.177 HD
ATOM     16  H   UNL     1       3.885   0.870  -4.648  0.00  0.00    +0.192 HD
ATOM     17  H   UNL     1      -1.497   2.612  -3.602  0.00  0.00    +0.162 HD
ENDROOT
BRANCH   1  19
ATOM     18  C   UNL     1       2.762  -0.560  -0.241  0.00  0.00    +0.142 C 
ATOM     19  N   UNL     1       2.172   0.026  -1.238  0.00  0.00    -0.187 NA
BRANCH  18  21
ATOM     20  C   UNL     1       0.626  -0.618   1.041  0.00  0.00    +0.143 A 
ATOM     21  C   UNL     1       1.994  -0.913   0.966  0.00  0.00    +0.038 A 
ATOM     22  C   UNL     1       2.624  -1.544   2.040  0.00  0.00    +0.028 A 
ATOM     23  C   UNL     1       1.899  -1.873   3.167  0.00  0.00    +0.020 A 
ATOM     24  C   UNL     1       0.547  -1.580   3.237  0.00  0.00    +0.034 A 
ATOM     25  C   UNL     1      -0.087  -0.950   2.182  0.00  0.00    +0.061 A 
ATOM     26 BR   UNL     1      -1.931  -0.547   2.294  0.00  0.00    -0.046 Br
ATOM     27 BR   UNL     1       2.754  -2.728   4.622  0.00  0.00    -0.050 Br
BRANCH  20  29
ATOM     28  C   UNL     1      -0.017   1.425   0.010  0.00  0.00    +0.277 C 
ATOM     29  O   UNL     1       0.002  -0.004   0.002  0.00  0.00    -0.493 OA
ENDBRANCH  20  29
ENDBRANCH  18  21
ENDBRANCH   1  19
TORSDOF 3
