REMARK  Name = ZINC20883891
REMARK  12 active torsions:
REMARK  status: ('A' for Active; 'I' for Inactive)
REMARK    1  A    between atoms: C_1  and  C_2
REMARK    2  A    between atoms: C_2  and  C_3
REMARK    3  A    between atoms: C_2  and  O_4
REMARK    4  A    between atoms: O_4  and  C_5
REMARK    5  A    between atoms: C_8  and  C_11
REMARK    6  A    between atoms: C_16  and  C_26
REMARK    7  A    between atoms: C_28  and  O_36
REMARK    8  A    between atoms: C_29  and  O_34
REMARK    9  A    between atoms: C_31  and  O_32
REMARK   10  A    between atoms: O_32  and  C_33
REMARK   11  A    between atoms: O_34  and  C_35
REMARK   12  A    between atoms: O_36  and  C_37
REMARK                            x       y       z     vdW  Elec       q    Type
REMARK                         _______ _______ _______ _____ _____    ______ ____
ROOT
ATOM      1  C   UNL     1       2.643   9.044   3.427  0.00  0.00    +0.032 C 
ATOM      2  C   UNL     1       1.699   8.418   4.452  0.00  0.00    +0.059 C 
ATOM      3  C   UNL     1       0.399   8.013   3.777  0.00  0.00    +0.017 C 
ATOM      4  C   UNL     1       0.399   7.589   2.502  0.00  0.00    +0.037 C 
ATOM      5  C   UNL     1      -0.808   7.121   1.724  0.00  0.00    +0.140 C 
ATOM      6  N   UNL     1      -2.077   7.398   2.364  0.00  0.00    -0.331 N 
ATOM      7  C   UNL     1      -2.418   6.802   3.577  0.00  0.00    +0.049 A 
ATOM      8  C   UNL     1      -3.439   5.869   3.662  0.00  0.00    +0.025 A 
ATOM      9  C   UNL     1      -3.673   5.225   4.864  0.00  0.00    +0.002 A 
ATOM     10  C   UNL     1      -2.897   5.509   5.973  0.00  0.00    +0.002 A 
ATOM     11  C   UNL     1      -1.890   6.456   5.897  0.00  0.00    +0.025 A 
ATOM     12  C   UNL     1      -1.666   7.113   4.700  0.00  0.00    +0.052 A 
ATOM     13  N   UNL     1      -0.701   8.105   4.566  0.00  0.00    -0.316 N 
ATOM     14  C   UNL     1       1.604   7.556   1.762  0.00  0.00    +0.163 C 
ATOM     15  O   UNL     1       1.575   7.157   0.614  0.00  0.00    -0.292 OA
ATOM     16  C   UNL     1       2.915   7.997   2.341  0.00  0.00    +0.088 C 
ATOM     17  H   UNL     1      -2.791   8.089   1.893  0.00  0.00    +0.147 HD
ATOM     18  H   UNL     1      -0.878   9.015   5.158  0.00  0.00    +0.152 HD
ENDROOT
BRANCH   1  22
ATOM     19  C   UNL     1       6.311  10.149   5.321  0.00  0.00    +0.121 A 
ATOM     20  C   UNL     1       5.531  11.115   4.701  0.00  0.00    +0.046 A 
ATOM     21  C   UNL     1       4.345  10.755   4.090  0.00  0.00    +0.007 A 
ATOM     22  C   UNL     1       3.937   9.434   4.095  0.00  0.00    -0.043 A 
ATOM     23  C   UNL     1       4.710   8.471   4.717  0.00  0.00    +0.007 A 
ATOM     24  C   UNL     1       5.898   8.825   5.325  0.00  0.00    +0.046 A 
BRANCH  19  25
ATOM     25  O   UNL     1       7.477  10.501   5.924  0.00  0.00    -0.489 OA
BRANCH  25  27
ATOM     26  C   UNL     1       8.827  12.213   6.966  0.00  0.00    +0.051 C 
ATOM     27  C   UNL     1       7.875  11.870   5.819  0.00  0.00    +0.167 C 
ATOM     28  C   UNL     1       8.585  12.094   4.482  0.00  0.00    +0.051 C 
ENDBRANCH  25  27
ENDBRANCH  19  25
ENDBRANCH   1  22
BRANCH   5  29
ATOM     29  C   UNL     1      -0.694   5.633   1.514  0.00  0.00    +0.023 A 
ATOM     30  C   UNL     1       0.178   4.891   2.290  0.00  0.00    +0.058 A 
ATOM     31  C   UNL     1       0.281   3.523   2.103  0.00  0.00    +0.162 A 
ATOM     32  C   UNL     1      -0.485   2.896   1.124  0.00  0.00    +0.165 A 
ATOM     33  C   UNL     1      -1.357   3.640   0.347  0.00  0.00    +0.095 A 
ATOM     34  C   UNL     1      -1.462   5.009   0.543  0.00  0.00    +0.129 A 
BRANCH  34  35
ATOM     35  O   UNL     1      -2.318   5.741  -0.219  0.00  0.00    -0.495 OA
ATOM     36  C   UNL     1      -3.078   5.034  -1.202  0.00  0.00    +0.277 C 
ENDBRANCH  34  35
BRANCH  32  37
ATOM     37  O   UNL     1      -0.381   1.553   0.935  0.00  0.00    -0.491 OA
ATOM     38  C   UNL     1      -1.201   0.976  -0.083  0.00  0.00    +0.277 C 
ENDBRANCH  32  37
BRANCH  31  39
ATOM     39  O   UNL     1       1.135   2.793   2.870  0.00  0.00    -0.491 OA
ATOM     40  C   UNL     1       1.810   3.482   3.924  0.00  0.00    +0.277 C 
ENDBRANCH  31  39
ENDBRANCH   5  29
TORSDOF 7
