REMARK  Name = ZINC24338004
REMARK  12 active torsions:
REMARK  status: ('A' for Active; 'I' for Inactive)
REMARK    1  A    between atoms: C_1  and  C_2
REMARK    2  A    between atoms: C_2  and  C_4
REMARK    3  A    between atoms: C_2  and  N_18
REMARK    4  A    between atoms: N_6  and  C_7
REMARK    5  A    between atoms: C_8  and  C_15
REMARK    6  A    between atoms: N_21  and  C_24
REMARK    7  A    between atoms: C_24  and  C_25
REMARK    8  A    between atoms: N_27  and  C_28
REMARK    9  A    between atoms: C_28  and  C_29
REMARK   10  A    between atoms: C_29  and  C_30
REMARK   11  A    between atoms: C_30  and  O_31
REMARK   12  A    between atoms: O_31  and  C_32
REMARK                            x       y       z     vdW  Elec       q    Type
REMARK                         _______ _______ _______ _____ _____    ______ ____
ROOT
ATOM      1  C   UNL     1       3.206   5.888  -1.245  0.00  0.00    +0.034 C 
ATOM      2  C   UNL     1       2.342   5.773   0.013  0.00  0.00    +0.140 C 
ENDROOT
BRANCH   2   3
ATOM      3  N   UNL     1       1.354   6.859   0.029  0.00  0.00    -0.295 NA
ATOM      4  C   UNL     1       0.498   6.812  -1.165  0.00  0.00    +0.066 C 
ATOM      5  C   UNL     1      -0.565   7.908  -1.072  0.00  0.00    -0.063 C 
ATOM      6  N   UNL     1       0.093   9.216  -0.951  0.00  0.00    +0.387 N 
ATOM      7  C   UNL     1       0.948   9.264   0.243  0.00  0.00    -0.063 C 
ATOM      8  C   UNL     1       2.012   8.168   0.150  0.00  0.00    +0.066 C 
ATOM      9  H   UNL     1       0.734   9.357  -1.834  0.00  0.00    -0.081 HD
BRANCH   6  10
ATOM     10  C   UNL     1      -0.895  10.303  -0.934  0.00  0.00    +0.019 C 
BRANCH  10  11
ATOM     11  C   UNL     1      -1.585  10.375  -2.272  0.00  0.00    +0.196 C 
ATOM     12  O   UNL     1      -1.284   9.597  -3.153  0.00  0.00    -0.278 OA
ATOM     13  N   UNL     1      -2.538  11.303  -2.490  0.00  0.00    -0.317 N 
ATOM     14  H   UNL     1      -2.812  12.009  -1.692  0.00  0.00    +0.149 HD
BRANCH  13  15
ATOM     15  C   UNL     1      -3.209  11.373  -3.791  0.00  0.00    +0.106 C 
BRANCH  15  16
ATOM     16  C   UNL     1      -4.238  12.505  -3.774  0.00  0.00    +0.047 C 
BRANCH  16  17
ATOM     17  C   UNL     1      -4.939  12.578  -5.132  0.00  0.00    +0.161 C 
BRANCH  17  18
ATOM     18  O   UNL     1      -5.900  13.635  -5.116  0.00  0.00    -0.383 OA
ATOM     19  C   UNL     1      -6.614  13.789  -6.344  0.00  0.00    +0.193 C 
ENDBRANCH  17  18
ENDBRANCH  16  17
ENDBRANCH  15  16
ENDBRANCH  13  15
ENDBRANCH  10  11
ENDBRANCH   6  10
ENDBRANCH   2   3
BRANCH   2  20
ATOM     20  C   UNL     1       1.629   4.445   0.012  0.00  0.00    +0.235 C 
ATOM     21  O   UNL     1       0.416   4.408   0.024  0.00  0.00    -0.274 OA
ATOM     22  N   UNL     1       2.338   3.299  -0.002  0.00  0.00    -0.278 N 
ATOM     23  H   UNL     1       3.437   3.333  -0.013  0.00  0.00    +0.155 HD
BRANCH  22  24
ATOM     24  C   UNL     1       1.681   2.078  -0.003  0.00  0.00    +0.084 A 
ATOM     25  C   UNL     1       2.229   0.806  -0.015  0.00  0.00    +0.068 A 
ATOM     26  C   UNL     1       1.307  -0.329  -0.013  0.00  0.00    -0.023 A 
ATOM     27  C   UNL     1       0.002  -0.004   0.002  0.00  0.00    -0.004 A 
ATOM     28  S   UNL     1      -0.022   1.772   0.012  0.00  0.00    -0.077 S 
ATOM     29  C   UNL     1      -0.882  -1.222   0.007  0.00  0.00    +0.043 C 
ATOM     30  C   UNL     1       0.051  -2.378   0.429  0.00  0.00    +0.010 C 
ATOM     31  C   UNL     1       1.427  -1.853  -0.025  0.00  0.00    +0.037 C 
BRANCH  25  32
ATOM     32  C   UNL     1       3.682   0.606  -0.029  0.00  0.00    +0.244 C 
ATOM     33  O   UNL     1       4.275   0.528  -1.089  0.00  0.00    -0.270 OA
ATOM     34  N   UNL     1       4.360   0.506   1.131  0.00  0.00    -0.325 N 
ATOM     35  H   UNL     1       5.450   0.355   1.120  0.00  0.00    +0.145 HD
ATOM     36  H   UNL     1       3.824   0.576   2.089  0.00  0.00    +0.145 HD
ENDBRANCH  25  32
ENDBRANCH  22  24
ENDBRANCH   2  20
TORSDOF 10
