REMARK  Name = ZINC43091898
REMARK  9 active torsions:
REMARK  status: ('A' for Active; 'I' for Inactive)
REMARK    1  A    between atoms: C_1  and  C_2
REMARK    2  A    between atoms: C_2  and  C_3
REMARK    3  A    between atoms: C_3  and  C_5
REMARK    4  A    between atoms: C_3  and  N_23
REMARK    5  A    between atoms: C_5  and  C_7
REMARK    6  A    between atoms: C_5  and  N_14
REMARK    7  A    between atoms: N_17  and  C_20
REMARK    8  A    between atoms: C_20  and  C_21
REMARK    9  A    between atoms: C_21  and  O_22
REMARK                            x       y       z     vdW  Elec       q    Type
REMARK                         _______ _______ _______ _____ _____    ______ ____
ROOT
ATOM      1  C   UNL     1      -1.207  -2.387   0.425  0.00  0.00    +0.074 C 
ENDROOT
BRANCH   1   2
ATOM      2  C   UNL     1      -2.534  -3.092   0.304  0.00  0.00    -0.018 A 
ATOM      3  C   UNL     1      -3.100  -3.287  -0.942  0.00  0.00    +0.006 A 
ATOM      4  C   UNL     1      -4.317  -3.934  -1.054  0.00  0.00    +0.000 A 
ATOM      5  C   UNL     1      -4.967  -4.386   0.080  0.00  0.00    +0.001 A 
ATOM      6  C   UNL     1      -4.401  -4.191   1.325  0.00  0.00    +0.015 A 
ATOM      7  C   UNL     1      -3.181  -3.548   1.437  0.00  0.00    +0.022 A 
ATOM      8 BR   UNL     1      -2.403  -3.286   3.141  0.00  0.00    -0.050 Br
ENDBRANCH   1   2
BRANCH   1   9
ATOM      9  N   UNL     1      -0.362  -2.731  -0.726  0.00  0.00    -0.295 NA
ATOM     10  C   UNL     1       0.918  -2.011  -0.673  0.00  0.00    +0.100 C 
ATOM     11  C   UNL     1       1.734  -2.334  -1.927  0.00  0.00    +0.100 C 
ATOM     12  N   UNL     1       1.952  -3.786  -2.005  0.00  0.00    -0.298 NA
ATOM     13  C   UNL     1       0.672  -4.506  -2.058  0.00  0.00    +0.100 C 
ATOM     14  C   UNL     1      -0.144  -4.182  -0.804  0.00  0.00    +0.100 C 
BRANCH  12  15
ATOM     15  C   UNL     1       2.797  -4.130  -3.157  0.00  0.00    +0.112 C 
BRANCH  15  16
ATOM     16  C   UNL     1       4.255  -3.791  -2.839  0.00  0.00    +0.171 C 
BRANCH  16  17
ATOM     17  O   UNL     1       4.708  -4.606  -1.756  0.00  0.00    -0.394 OA
ATOM     18  H   UNL     1       5.626  -4.445  -1.500  0.00  0.00    +0.209 HD
ENDBRANCH  16  17
ENDBRANCH  15  16
ENDBRANCH  12  15
ENDBRANCH   1   9
BRANCH   1  19
ATOM     19  C   UNL     1      -1.435  -0.874   0.457  0.00  0.00    -0.053 C 
BRANCH  19  20
ATOM     20  N   UNL     1      -2.183  -0.466  -0.739  0.00  0.00    +0.381 N 
ATOM     21  H   UNL     1      -2.242   0.541  -0.772  0.00  0.00    -0.090 HD
ATOM     22  H   UNL     1      -1.708  -0.802  -1.564  0.00  0.00    -0.090 HD
ATOM     23  H   UNL     1      -3.112  -0.857  -0.704  0.00  0.00    -0.090 HD
ENDBRANCH  19  20
BRANCH  19  25
ATOM     24  C   UNL     1      -2.361   1.017   1.802  0.00  0.00    +0.002 C 
ATOM     25  C   UNL     1      -2.233  -0.504   1.709  0.00  0.00    -0.018 C 
ENDBRANCH  19  25
ENDBRANCH   1  19
TORSDOF 8
