REMARK  Name = ZINC20809686
REMARK  10 active torsions:
REMARK  status: ('A' for Active; 'I' for Inactive)
REMARK    1  A    between atoms: C_1  and  C_2
REMARK    2  A    between atoms: C_2  and  C_4
REMARK    3  A    between atoms: C_2  and  N_17
REMARK    4  A    between atoms: N_6  and  C_7
REMARK    5  A    between atoms: N_20  and  S_23
REMARK    6  A    between atoms: S_23  and  C_26
REMARK    7  A    between atoms: C_29  and  O_34
REMARK    8  A    between atoms: C_30  and  O_32
REMARK    9  A    between atoms: O_32  and  C_33
REMARK   10  A    between atoms: O_34  and  C_35
REMARK                            x       y       z     vdW  Elec       q    Type
REMARK                         _______ _______ _______ _____ _____    ______ ____
ROOT
ATOM      1  N   UNL     1      -2.843   7.745  -2.140  0.00  0.00    +0.389 N 
ATOM      2  C   UNL     1      -2.172   7.304  -3.370  0.00  0.00    -0.060 C 
ATOM      3  C   UNL     1      -3.037   7.674  -4.580  0.00  0.00    +0.091 C 
ATOM      4  N   UNL     1      -3.337   9.113  -4.517  0.00  0.00    -0.180 NA
ATOM      5  C   UNL     1      -3.884   9.655  -3.264  0.00  0.00    +0.091 C 
ATOM      6  C   UNL     1      -2.986   9.207  -2.106  0.00  0.00    -0.060 C 
ATOM      7  H   UNL     1      -3.853   7.310  -2.134  0.00  0.00    -0.081 HD
ENDROOT
BRANCH   4   8
ATOM      8  S   UNL     1      -3.066  10.096  -5.822  0.00  0.00    +0.061 S 
ATOM      9  O   UNL     1      -3.093   9.261  -6.971  0.00  0.00    -0.153 OA
ATOM     10  O   UNL     1      -3.929  11.215  -5.673  0.00  0.00    -0.153 OA
BRANCH   8  11
ATOM     11  C   UNL     1      -1.420  10.707  -5.681  0.00  0.00    +0.109 A 
ATOM     12  C   UNL     1      -1.178  11.889  -5.007  0.00  0.00    +0.032 A 
ATOM     13  C   UNL     1       0.113  12.370  -4.889  0.00  0.00    +0.051 A 
ATOM     14  C   UNL     1       1.167  11.672  -5.457  0.00  0.00    +0.162 A 
ATOM     15  C   UNL     1       0.923  10.485  -6.141  0.00  0.00    +0.163 A 
ATOM     16  C   UNL     1      -0.373  10.006  -6.250  0.00  0.00    +0.078 A 
BRANCH  15  17
ATOM     17  O   UNL     1       1.954   9.796  -6.700  0.00  0.00    -0.491 OA
ATOM     18  C   UNL     1       1.629   8.586  -7.386  0.00  0.00    +0.277 C 
ENDBRANCH  15  17
BRANCH  14  19
ATOM     19  O   UNL     1       2.436  12.146  -5.346  0.00  0.00    -0.491 OA
ATOM     20  C   UNL     1       2.612  13.370  -4.630  0.00  0.00    +0.277 C 
ENDBRANCH  14  19
ENDBRANCH   8  11
ENDBRANCH   4   8
BRANCH   1  22
ATOM     21  C   UNL     1      -0.697   7.788  -0.960  0.00  0.00    -0.004 C 
ATOM     22  C   UNL     1      -2.132   7.259  -0.950  0.00  0.00    +0.016 C 
BRANCH  22  23
ATOM     23  C   UNL     1      -2.112   5.752  -0.958  0.00  0.00    +0.200 C 
ATOM     24  O   UNL     1      -2.637   5.143  -1.866  0.00  0.00    -0.278 OA
ATOM     25  N   UNL     1      -1.510   5.081   0.044  0.00  0.00    -0.311 N 
ATOM     26  H   UNL     1      -1.033   5.633   0.867  0.00  0.00    +0.149 HD
BRANCH  25  27
ATOM     27  C   UNL     1      -1.490   3.616   0.036  0.00  0.00    +0.035 C 
ATOM     28  C   UNL     1      -0.773   3.123  -1.223  0.00  0.00    +0.029 C 
ATOM     29  C   UNL     1      -0.753   1.593  -1.232  0.00  0.00    -0.008 C 
ATOM     30  C   UNL     1      -0.013   1.086   0.008  0.00  0.00    +0.007 C 
ATOM     31  C   UNL     1      -0.729   1.579   1.267  0.00  0.00    -0.008 C 
ATOM     32  C   UNL     1      -0.750   3.109   1.275  0.00  0.00    +0.029 C 
ATOM     33  C   UNL     1      -2.164   1.050   1.278  0.00  0.00    +0.007 C 
ATOM     34  C   UNL     1      -2.904   1.556   0.038  0.00  0.00    -0.008 C 
ATOM     35  C   UNL     1      -2.188   1.063  -1.221  0.00  0.00    +0.007 C 
ATOM     36  C   UNL     1      -2.925   3.086   0.047  0.00  0.00    +0.029 C 
ENDBRANCH  25  27
ENDBRANCH  22  23
ENDBRANCH   1  22
TORSDOF 7
