REMARK  Name = ZINC39689732
REMARK  10 active torsions:
REMARK  status: ('A' for Active; 'I' for Inactive)
REMARK    1  A    between atoms: C_1  and  C_2
REMARK    2  A    between atoms: C_2  and  C_3
REMARK    3  A    between atoms: C_3  and  C_4
REMARK    4  A    between atoms: C_4  and  C_5
REMARK    5  A    between atoms: C_5  and  C_6
REMARK    6  A    between atoms: C_6  and  C_7
REMARK    7  A    between atoms: C_11  and  C_20
REMARK    8  A    between atoms: N_22  and  C_23
REMARK    9  A    between atoms: C_23  and  C_24
REMARK   10  A    between atoms: N_28  and  C_30
REMARK                            x       y       z     vdW  Elec       q    Type
REMARK                         _______ _______ _______ _____ _____    ______ ____
ROOT
ATOM      1  C   UNL     1       2.304  -4.596   3.840  0.00  0.00    +0.216 C 
ATOM      2  O   UNL     1       2.818  -3.829   4.626  0.00  0.00    -0.276 OA
ATOM      3  N   UNL     1       2.459  -5.926   3.996  0.00  0.00    -0.300 N 
ATOM      4  C   UNL     1       1.917  -7.010   3.142  0.00  0.00    +0.121 C 
ATOM      5  C   UNL     1       3.053  -8.055   3.071  0.00  0.00    +0.100 C 
ATOM      6  C   UNL     1       3.896  -7.804   4.333  0.00  0.00    -0.004 C 
ATOM      7  C   UNL     1       3.214  -6.634   5.056  0.00  0.00    +0.115 C 
ATOM      8  C   UNL     1       5.322  -7.420   3.949  0.00  0.00    -0.010 C 
ATOM      9  C   UNL     1       6.155  -7.232   5.220  0.00  0.00    -0.082 C 
ATOM     10  N   UNL     1       6.155  -8.479   5.995  0.00  0.00    +0.379 N 
ATOM     11  C   UNL     1       4.791  -8.792   6.440  0.00  0.00    -0.082 C 
ATOM     12  C   UNL     1       3.900  -9.045   5.221  0.00  0.00    -0.010 C 
ATOM     13  H   UNL     1       6.501  -9.232   5.420  0.00  0.00    -0.086 HD
ATOM     14  H   UNL     1       6.753  -8.372   6.801  0.00  0.00    -0.086 HD
ENDROOT
BRANCH   5  15
ATOM     15  C   UNL     1       2.484  -9.450   3.086  0.00  0.00    +0.218 C 
ATOM     16  O   UNL     1       1.448  -9.676   3.673  0.00  0.00    -0.275 OA
ATOM     17  N   UNL     1       3.127 -10.446   2.445  0.00  0.00    -0.315 N 
ATOM     18  H   UNL     1       3.956 -10.265   1.975  0.00  0.00    +0.149 HD
BRANCH  17  19
ATOM     19  C   UNL     1       2.574 -11.803   2.459  0.00  0.00    +0.105 C 
BRANCH  19  20
ATOM     20  C   UNL     1       3.491 -12.736   1.665  0.00  0.00    -0.012 C 
ATOM     21  C   UNL     1       4.834 -12.941   2.402  0.00  0.00    -0.016 C 
ATOM     22  C   UNL     1       5.175 -14.431   2.209  0.00  0.00    -0.079 C 
ATOM     23  N   UNL     1       4.098 -15.018   1.382  0.00  0.00    +0.378 N 
ATOM     24  C   UNL     1       2.900 -14.166   1.607  0.00  0.00    -0.074 C 
ATOM     25  C   UNL     1       3.827 -16.398   1.809  0.00  0.00    -0.096 C 
ATOM     26  H   UNL     1       4.358 -14.999   0.407  0.00  0.00    -0.082 HD
ENDBRANCH  19  20
ENDBRANCH  17  19
ENDBRANCH   5  15
BRANCH   1  27
ATOM     27  C   UNL     1       1.492  -4.062   2.688  0.00  0.00    +0.096 C 
BRANCH  27  28
ATOM     28  C   UNL     1       1.474  -2.533   2.742  0.00  0.00    +0.009 C 
BRANCH  28  29
ATOM     29  C   UNL     1       0.649  -1.991   1.572  0.00  0.00    +0.000 C 
BRANCH  29  30
ATOM     30  C   UNL     1       0.632  -0.462   1.626  0.00  0.00    -0.000 C 
BRANCH  30  32
ATOM     31  C   UNL     1      -0.210   1.609   0.511  0.00  0.00    +0.004 C 
ATOM     32  C   UNL     1      -0.193   0.080   0.457  0.00  0.00    -0.003 C 
ENDBRANCH  30  32
ENDBRANCH  29  30
ENDBRANCH  28  29
ENDBRANCH  27  28
ENDBRANCH   1  27
TORSDOF 8
