REMARK  Name = ZINC64046757
REMARK  8 active torsions:
REMARK  status: ('A' for Active; 'I' for Inactive)
REMARK    1  A    between atoms: C_1  and  C_2
REMARK    2  A    between atoms: C_2  and  C_3
REMARK    3  A    between atoms: C_2  and  C_4
REMARK    4  A    between atoms: C_4  and  C_6
REMARK    5  A    between atoms: C_4  and  N_21
REMARK    6  A    between atoms: N_8  and  N_9
REMARK    7  A    between atoms: C_10  and  C_12
REMARK    8  A    between atoms: C_22  and  C_24
REMARK                            x       y       z     vdW  Elec       q    Type
REMARK                         _______ _______ _______ _____ _____    ______ ____
ROOT
ATOM      1  C   UNL     1      -2.074  -0.231  -1.335  0.00  0.00    +0.250 C 
ATOM      2  O   UNL     1      -2.511  -1.081  -2.081  0.00  0.00    -0.272 OA
ATOM      3  N   UNL     1      -2.204   1.073  -1.649  0.00  0.00    -0.233 N 
ATOM      4  H   UNL     1      -1.924   1.754  -1.018  0.00  0.00    +0.173 HD
ENDROOT
BRANCH   3   5
ATOM      5  N   UNL     1      -2.744   1.445  -2.887  0.00  0.00    -0.231 N 
ATOM      6  C   UNL     1      -2.873   2.749  -3.201  0.00  0.00    +0.258 C 
ATOM      7  O   UNL     1      -2.522   3.604  -2.410  0.00  0.00    -0.269 OA
ATOM      8  H   UNL     1      -3.024   0.764  -3.518  0.00  0.00    +0.173 HD
BRANCH   6   9
ATOM      9  C   UNL     1      -3.438   3.139  -4.498  0.00  0.00    +0.044 C 
ATOM     10  C   UNL     1      -3.631   4.418  -4.971  0.00  0.00    +0.008 A 
ATOM     11  C   UNL     1      -3.374   5.698  -4.419  0.00  0.00    +0.010 A 
ATOM     12  C   UNL     1      -3.670   6.813  -5.121  0.00  0.00    +0.001 A 
ATOM     13  C   UNL     1      -4.235   6.768  -6.406  0.00  0.00    +0.002 A 
ATOM     14  C   UNL     1      -4.519   5.599  -7.021  0.00  0.00    +0.026 A 
ATOM     15  C   UNL     1      -4.227   4.335  -6.327  0.00  0.00    +0.043 A 
ATOM     16  N   UNL     1      -4.395   3.091  -6.677  0.00  0.00    -0.380 N 
ATOM     17  C   UNL     1      -3.923   2.219  -5.596  0.00  0.00    +0.154 C 
ATOM     18  H   UNL     1      -4.769   2.790  -7.520  0.00  0.00    +0.160 HD
ENDBRANCH   6   9
ENDBRANCH   3   5
BRANCH   1  19
ATOM     19  C   UNL     1      -1.387  -0.633  -0.055  0.00  0.00    +0.163 C 
BRANCH  19  20
ATOM     20  N   UNL     1      -1.705  -2.030   0.252  0.00  0.00    -0.300 N 
ATOM     21  C   UNL     1      -1.652  -2.469   1.525  0.00  0.00    +0.245 C 
ATOM     22  O   UNL     1      -1.341  -1.705   2.419  0.00  0.00    -0.270 OA
ATOM     23  H   UNL     1      -1.953  -2.639  -0.461  0.00  0.00    +0.150 HD
BRANCH  21  24
ATOM     24  C   UNL     1      -1.972  -3.877   1.835  0.00  0.00    +0.037 A 
ATOM     25  C   UNL     1      -2.325  -4.757   0.810  0.00  0.00    +0.016 A 
ATOM     26  C   UNL     1      -2.623  -6.070   1.104  0.00  0.00    +0.039 A 
ATOM     27  C   UNL     1      -2.574  -6.518   2.416  0.00  0.00    +0.123 A 
ATOM     28  C   UNL     1      -2.225  -5.648   3.438  0.00  0.00    +0.039 A 
ATOM     29  C   UNL     1      -1.919  -4.334   3.153  0.00  0.00    +0.016 A 
ATOM     30  F   UNL     1      -2.868  -7.805   2.699  0.00  0.00    -0.205 F 
ENDBRANCH  21  24
ENDBRANCH  19  20
BRANCH  19  32
ATOM     31  C   UNL     1       0.819  -0.804   1.106  0.00  0.00    +0.009 C 
ATOM     32  C   UNL     1       0.127  -0.478  -0.219  0.00  0.00    +0.012 C 
ATOM     33  C   UNL     1       0.623  -1.438  -1.303  0.00  0.00    +0.009 C 
ENDBRANCH  19  32
ENDBRANCH   1  19
TORSDOF 6
