REMARK  Name = ZINC36264696
REMARK  4 active torsions:
REMARK  status: ('A' for Active; 'I' for Inactive)
REMARK    1  A    between atoms: C_4  and  S_8
REMARK    2  A    between atoms: S_8  and  N_11
REMARK    3  A    between atoms: N_11  and  C_12
REMARK    4  A    between atoms: C_15  and  N_17
REMARK                            x       y       z     vdW  Elec       q    Type
REMARK                         _______ _______ _______ _____ _____    ______ ____
ROOT
ATOM      1  S   UNL     1       3.936  -0.833  -0.040  0.00  0.00    +0.059 S 
ATOM      2  O   UNL     1       3.676  -2.115  -0.595  0.00  0.00    -0.153 OA
ATOM      3  O   UNL     1       4.893   0.058  -0.595  0.00  0.00    -0.153 OA
ENDROOT
BRANCH   1   7
ATOM      4  C   UNL     1      -0.017   1.380   0.010  0.00  0.00    +0.076 A 
ATOM      5  C   UNL     1       1.173   2.087   0.002  0.00  0.00    +0.128 A 
ATOM      6  C   UNL     1       2.381   1.410  -0.013  0.00  0.00    +0.067 A 
ATOM      7  C   UNL     1       2.398   0.028  -0.021  0.00  0.00    +0.111 A 
ATOM      8  C   UNL     1       1.211  -0.679  -0.014  0.00  0.00    +0.067 A 
ATOM      9  C   UNL     1       0.002  -0.004   0.002  0.00  0.00    +0.128 A 
ATOM     10  F   UNL     1      -1.159  -0.696   0.009  0.00  0.00    -0.205 F 
ATOM     11  F   UNL     1       1.156   3.438   0.009  0.00  0.00    -0.205 F 
ENDBRANCH   1   7
BRANCH   1  12
ATOM     12  N   UNL     1       4.378  -1.081   1.536  0.00  0.00    -0.189 NA
ATOM     13  H   UNL     1       5.174  -0.654   1.890  0.00  0.00    +0.148 HD
BRANCH  12  14
ATOM     14  C   UNL     1       3.566  -1.944   2.398  0.00  0.00    +0.061 C 
ATOM     15  C   UNL     1       4.296  -2.767   3.462  0.00  0.00    +0.004 C 
ATOM     16  C   UNL     1       3.450  -1.560   3.874  0.00  0.00    -0.055 C 
BRANCH  16  17
ATOM     17  N   UNL     1       2.170  -1.827   4.545  0.00  0.00    +0.381 N 
ATOM     18  H   UNL     1       1.972  -2.815   4.511  0.00  0.00    -0.090 HD
ATOM     19  H   UNL     1       2.227  -1.529   5.508  0.00  0.00    -0.090 HD
ATOM     20  H   UNL     1       1.434  -1.319   4.079  0.00  0.00    -0.090 HD
ENDBRANCH  16  17
ENDBRANCH  12  14
ENDBRANCH   1  12
TORSDOF 4
