REMARK  Name = ZINC02120614
REMARK  9 active torsions:
REMARK  status: ('A' for Active; 'I' for Inactive)
REMARK    1  A    between atoms: C_1  and  O_2
REMARK    2  A    between atoms: O_2  and  C_3
REMARK    3  A    between atoms: C_6  and  C_20
REMARK    4  A    between atoms: C_8  and  C_9
REMARK    5  A    between atoms: C_9  and  S_10
REMARK    6  A    between atoms: S_10  and  C_11
REMARK    7  A    between atoms: C_33  and  C_35
REMARK    8  A    between atoms: C_35  and  O_37
REMARK    9  A    between atoms: O_37  and  C_38
REMARK                            x       y       z     vdW  Elec       q    Type
REMARK                         _______ _______ _______ _____ _____    ______ ____
ROOT
ATOM      1  C   UNL     1      -6.042  -0.068   1.877  0.00  0.00    +0.008 C 
ATOM      2  C   UNL     1      -6.103  -1.489   2.384  0.00  0.00    +0.010 A 
ATOM      3  C   UNL     1      -6.967  -2.409   1.899  0.00  0.00    -0.021 A 
ATOM      4  C   UNL     1      -6.731  -3.640   2.619  0.00  0.00    +0.003 A 
ATOM      5  C   UNL     1      -7.312  -4.910   2.550  0.00  0.00    +0.010 A 
ATOM      6  C   UNL     1      -6.825  -5.864   3.407  0.00  0.00    +0.001 A 
ATOM      7  C   UNL     1      -5.805  -5.596   4.305  0.00  0.00    +0.002 A 
ATOM      8  C   UNL     1      -5.211  -4.349   4.396  0.00  0.00    +0.026 A 
ATOM      9  C   UNL     1      -5.686  -3.359   3.538  0.00  0.00    +0.047 A 
ATOM     10  N   UNL     1      -5.333  -2.051   3.367  0.00  0.00    -0.359 N 
ATOM     11  H   UNL     1      -4.642  -1.589   3.867  0.00  0.00    +0.166 HD
ATOM     12  C   UNL     1      -7.963  -2.118   0.804  0.00  0.00    +0.033 C 
ATOM     13  C   UNL     1      -8.080  -0.594   0.662  0.00  0.00    +0.045 C 
ATOM     14  N   UNL     1      -6.730  -0.000   0.569  0.00  0.00    +0.396 N 
ATOM     15  H   UNL     1      -6.181  -0.517  -0.129  0.00  0.00    -0.083 HD
ATOM     16  H   UNL     1      -6.812   0.982   0.281  0.00  0.00    -0.083 HD
ENDROOT
BRANCH   1  20
ATOM     17  C   UNL     1      -1.963   1.107   1.382  0.00  0.00    +0.124 A 
ATOM     18  C   UNL     1      -2.579   0.313   0.424  0.00  0.00    +0.046 A 
ATOM     19  C   UNL     1      -3.897  -0.065   0.587  0.00  0.00    +0.006 A 
ATOM     20  C   UNL     1      -4.603   0.346   1.702  0.00  0.00    -0.055 A 
ATOM     21  C   UNL     1      -3.992   1.137   2.658  0.00  0.00    +0.010 A 
ATOM     22  C   UNL     1      -2.672   1.514   2.503  0.00  0.00    +0.005 A 
BRANCH  17  24
ATOM     23  C   UNL     1       0.004   1.020   0.049  0.00  0.00    +0.277 C 
ATOM     24  O   UNL     1      -0.666   1.480   1.225  0.00  0.00    -0.495 OA
ENDBRANCH  17  24
BRANCH  22  25
ATOM     25  C   UNL     1      -2.004   2.370   3.547  0.00  0.00    +0.115 C 
BRANCH  25  26
ATOM     26  S   UNL     1      -2.241   4.117   3.137  0.00  0.00    -0.094 S 
BRANCH  26  27
ATOM     27  C   UNL     1      -1.386   4.866   4.483  0.00  0.00    +0.136 A 
ATOM     28  N   UNL     1      -0.766   4.290   5.489  0.00  0.00    -0.233 NA
ATOM     29  C   UNL     1      -0.142   4.997   6.457  0.00  0.00    +0.079 A 
ATOM     30  C   UNL     1       0.559   4.506   7.582  0.00  0.00    +0.029 A 
ATOM     31  C   UNL     1       1.134   5.367   8.479  0.00  0.00    +0.002 A 
ATOM     32  C   UNL     1       1.051   6.743   8.320  0.00  0.00    +0.001 A 
ATOM     33  C   UNL     1       0.371   7.258   7.231  0.00  0.00    +0.017 A 
ATOM     34  C   UNL     1      -0.207   6.403   6.327  0.00  0.00    +0.040 A 
ATOM     35  S   UNL     1      -1.146   6.603   4.831  0.00  0.00    -0.061 S 
ENDBRANCH  26  27
ENDBRANCH  25  26
ENDBRANCH  22  25
ENDBRANCH   1  20
BRANCH  13  36
ATOM     36  C   UNL     1      -8.802  -0.032   1.860  0.00  0.00    +0.293 C 
ATOM     37  O   UNL     1      -9.684  -0.667   2.386  0.00  0.00    -0.253 OA
BRANCH  36  38
ATOM     38  O   UNL     1      -8.465   1.175   2.341  0.00  0.00    -0.469 OA
ATOM     39  C   UNL     1      -9.203   1.654   3.496  0.00  0.00    +0.280 C 
ENDBRANCH  36  38
ENDBRANCH  13  36
TORSDOF 7
