REMARK  Name = ZINC00510095
REMARK  6 active torsions:
REMARK  status: ('A' for Active; 'I' for Inactive)
REMARK    1  A    between atoms: C_1  and  C_2
REMARK    2  A    between atoms: C_2  and  C_3
REMARK    3  A    between atoms: C_2  and  C_4
REMARK    4  A    between atoms: C_12  and  N_18
REMARK    5  A    between atoms: N_16  and  N_17
REMARK    6  A    between atoms: N_18  and  N_19
REMARK                            x       y       z     vdW  Elec       q    Type
REMARK                         _______ _______ _______ _____ _____    ______ ____
ROOT
ATOM      1  C   UNL     1       2.217   0.048  -1.642  0.00  0.00    +0.126 C 
ATOM      2  C   UNL     1       1.261  -0.813  -0.811  0.00  0.00    +0.068 C 
ATOM      3  C   UNL     1      -0.070  -0.073  -0.699  0.00  0.00    -0.020 A 
ATOM      4  C   UNL     1      -0.116   1.254  -0.965  0.00  0.00    +0.021 A 
ATOM      5  S   UNL     1      -1.808   1.720  -0.717  0.00  0.00    -0.071 S 
ATOM      6  C   UNL     1      -2.454   0.141  -0.269  0.00  0.00    +0.116 A 
ATOM      7  C   UNL     1      -1.319  -0.708  -0.319  0.00  0.00    +0.052 A 
ATOM      8  C   UNL     1      -1.524  -2.080   0.006  0.00  0.00    +0.146 A 
ATOM      9  N   UNL     1      -2.770  -2.424   0.324  0.00  0.00    -0.197 NA
ATOM     10  C   UNL     1      -3.786  -1.576   0.351  0.00  0.00    +0.232 A 
ATOM     11  N   UNL     1      -3.660  -0.280   0.057  0.00  0.00    -0.206 NA
ATOM     12  N   UNL     1      -5.038  -2.055   0.699  0.00  0.00    -0.252 N 
ATOM     13  C   UNL     1       1.037   2.116  -1.372  0.00  0.00    +0.203 C 
ATOM     14  O   UNL     1       2.248   1.382  -1.129  0.00  0.00    -0.371 OA
ATOM     15  H   UNL     1      -5.155  -2.993   0.917  0.00  0.00    +0.169 HD
ENDROOT
BRANCH   1  17
ATOM     16  C   UNL     1       4.581   0.308  -2.408  0.00  0.00    +0.010 C 
ATOM     17  C   UNL     1       3.624  -0.551  -1.579  0.00  0.00    +0.012 C 
ATOM     18  C   UNL     1       4.099  -0.584  -0.124  0.00  0.00    +0.010 C 
ENDBRANCH   1  17
BRANCH  12  19
ATOM     19  N   UNL     1      -6.109  -1.207   0.736  0.00  0.00    -0.254 NA
ATOM     20  H   UNL     1      -6.230  -0.740  -0.149  0.00  0.00    +0.140 HD
ATOM     21  H   UNL     1      -6.949  -1.697   1.005  0.00  0.00    +0.140 HD
ENDBRANCH  12  19
BRANCH   8  22
ATOM     22  N   UNL     1      -0.491  -3.000  -0.009  0.00  0.00    -0.267 N 
ATOM     23  H   UNL     1       0.426  -2.697  -0.090  0.00  0.00    +0.167 HD
BRANCH  22  24
ATOM     24  N   UNL     1      -0.764  -4.335   0.089  0.00  0.00    -0.255 NA
ATOM     25  H   UNL     1       0.085  -4.880   0.064  0.00  0.00    +0.140 HD
ATOM     26  H   UNL     1      -1.298  -4.534   0.922  0.00  0.00    +0.140 HD
ENDBRANCH  22  24
ENDBRANCH   8  22
TORSDOF 4
