REMARK  Name = ZINC43794450
REMARK  12 active torsions:
REMARK  status: ('A' for Active; 'I' for Inactive)
REMARK    1  A    between atoms: C_1  and  C_2
REMARK    2  A    between atoms: C_2  and  O_4
REMARK    3  A    between atoms: O_4  and  C_5
REMARK    4  A    between atoms: C_5  and  C_6
REMARK    5  A    between atoms: C_8  and  O_39
REMARK    6  A    between atoms: C_10  and  O_38
REMARK    7  A    between atoms: C_12  and  O_37
REMARK    8  A    between atoms: C_14  and  O_17
REMARK    9  A    between atoms: O_17  and  C_18
REMARK   10  A    between atoms: C_20  and  O_36
REMARK   11  A    between atoms: C_26  and  C_29
REMARK   12  A    between atoms: C_32  and  O_35
REMARK                            x       y       z     vdW  Elec       q    Type
REMARK                         _______ _______ _______ _____ _____    ______ ____
ROOT
ATOM      1  C   UNL     1      -5.442  -1.023   0.260  0.00  0.00    +0.131 A 
ATOM      2  C   UNL     1      -4.886  -0.232   1.260  0.00  0.00    +0.092 A 
ATOM      3  C   UNL     1      -5.086   1.136   1.253  0.00  0.00    +0.135 A 
ATOM      4  C   UNL     1      -5.849   1.715   0.231  0.00  0.00    +0.106 A 
ATOM      5  C   UNL     1      -6.418   0.914  -0.776  0.00  0.00    +0.145 A 
ATOM      6  C   UNL     1      -6.199  -0.456  -0.754  0.00  0.00    +0.093 A 
ATOM      7  O   UNL     1      -7.166   1.473  -1.747  0.00  0.00    -0.462 OA
ATOM      8  C   UNL     1      -7.149   2.788  -1.978  0.00  0.00    +0.208 A 
ATOM      9  C   UNL     1      -6.644   3.683  -1.090  0.00  0.00    +0.064 A 
ATOM     10  C   UNL     1      -6.077   3.168   0.172  0.00  0.00    +0.204 A 
ATOM     11  O   UNL     1      -5.814   3.903   1.109  0.00  0.00    -0.286 OA
ENDROOT
BRANCH   9  12
ATOM     12  C   UNL     1      -6.661   5.137  -1.381  0.00  0.00    -0.011 A 
ATOM     13  C   UNL     1      -5.463   5.830  -1.550  0.00  0.00    +0.012 A 
ATOM     14  C   UNL     1      -5.483   7.182  -1.821  0.00  0.00    +0.046 A 
ATOM     15  C   UNL     1      -6.693   7.853  -1.925  0.00  0.00    +0.117 A 
ATOM     16  C   UNL     1      -7.888   7.167  -1.758  0.00  0.00    +0.046 A 
ATOM     17  C   UNL     1      -7.875   5.813  -1.492  0.00  0.00    +0.012 A 
BRANCH  15  18
ATOM     18  O   UNL     1      -6.709   9.186  -2.192  0.00  0.00    -0.507 OA
ATOM     19  H   UNL     1      -6.735   9.398  -3.135  0.00  0.00    +0.292 HD
ENDBRANCH  15  18
ENDBRANCH   9  12
BRANCH   3  20
ATOM     20  O   UNL     1      -4.548   1.911   2.228  0.00  0.00    -0.506 OA
ATOM     21  H   UNL     1      -3.662   2.240   2.025  0.00  0.00    +0.292 HD
ENDBRANCH   3  20
BRANCH   1  22
ATOM     22  O   UNL     1      -5.237  -2.365   0.273  0.00  0.00    -0.461 OA
BRANCH  22  27
ATOM     23  C   UNL     1      -2.463  -2.721   0.011  0.00  0.00    +0.191 C 
ATOM     24  C   UNL     1      -2.365  -4.243  -0.123  0.00  0.00    +0.178 C 
ATOM     25  C   UNL     1      -3.772  -4.845  -0.052  0.00  0.00    +0.180 C 
ATOM     26  C   UNL     1      -4.432  -4.418   1.263  0.00  0.00    +0.214 C 
ATOM     27  C   UNL     1      -4.449  -2.889   1.344  0.00  0.00    +0.339 C 
ATOM     28  O   UNL     1      -3.113  -2.393   1.240  0.00  0.00    -0.330 OA
BRANCH  26  29
ATOM     29  O   UNL     1      -5.771  -4.915   1.309  0.00  0.00    -0.383 OA
ATOM     30  H   UNL     1      -6.250  -4.682   2.116  0.00  0.00    +0.210 HD
ENDBRANCH  26  29
BRANCH  25  31
ATOM     31  O   UNL     1      -4.550  -4.374  -1.154  0.00  0.00    -0.386 OA
ATOM     32  H   UNL     1      -5.455  -4.716  -1.172  0.00  0.00    +0.210 HD
ENDBRANCH  25  31
BRANCH  24  33
ATOM     33  O   UNL     1      -1.766  -4.574  -1.377  0.00  0.00    -0.386 OA
ATOM     34  H   UNL     1      -1.673  -5.524  -1.530  0.00  0.00    +0.210 HD
ENDBRANCH  24  33
BRANCH  23  35
ATOM     35  C   UNL     1      -1.057  -2.117   0.001  0.00  0.00    +0.266 C 
BRANCH  35  36
ATOM     36  O   UNL     1      -1.151  -0.691   0.009  0.00  0.00    -0.462 OA
BRANCH  36  38
ATOM     37  C   UNL     1      -0.018   1.503   0.010  0.00  0.00    +0.136 C 
ATOM     38  C   UNL     1       0.002  -0.004   0.002  0.00  0.00    +0.304 C 
ATOM     39  O   UNL     1       1.056  -0.594  -0.011  0.00  0.00    -0.251 OA
ENDBRANCH  36  38
ENDBRANCH  35  36
ENDBRANCH  23  35
ENDBRANCH  22  27
ENDBRANCH   1  22
TORSDOF 11
