REMARK  Name = ZINC40906661
REMARK  7 active torsions:
REMARK  status: ('A' for Active; 'I' for Inactive)
REMARK    1  A    between atoms: C_3  and  C_6
REMARK    2  A    between atoms: C_6  and  C_7
REMARK    3  A    between atoms: C_7  and  N_8
REMARK    4  A    between atoms: C_9  and  C_11
REMARK    5  A    between atoms: N_14  and  C_17
REMARK    6  A    between atoms: C_20  and  C_24
REMARK    7  A    between atoms: C_26  and  C_29
REMARK                            x       y       z     vdW  Elec       q    Type
REMARK                         _______ _______ _______ _____ _____    ______ ____
ROOT
ATOM      1  C   UNL     1      10.296   6.273   3.690  0.00  0.00    +0.065 A 
ATOM      2  C   UNL     1       9.503   7.193   4.365  0.00  0.00    +0.027 A 
ATOM      3  C   UNL     1      10.065   8.341   4.882  0.00  0.00    +0.013 A 
ATOM      4  C   UNL     1      11.429   8.580   4.727  0.00  0.00    +0.025 A 
ATOM      5  C   UNL     1      12.225   7.657   4.050  0.00  0.00    +0.052 A 
ATOM      6  C   UNL     1      11.660   6.506   3.538  0.00  0.00    +0.145 A 
ATOM      7  F   UNL     1      12.431   5.609   2.885  0.00  0.00    -0.204 F 
ENDROOT
BRANCH   1  11
ATOM      8  C   UNL     1       7.697   3.238   2.554  0.00  0.00    +0.078 C 
ATOM      9  C   UNL     1       7.748   4.589   1.837  0.00  0.00    +0.031 C 
ATOM     10  C   UNL     1       9.196   5.087   1.798  0.00  0.00    +0.106 C 
ATOM     11  N   UNL     1       9.726   5.111   3.168  0.00  0.00    -0.328 N 
ATOM     12  C   UNL     1       9.644   3.888   3.978  0.00  0.00    +0.106 C 
ATOM     13  C   UNL     1       8.191   3.403   3.993  0.00  0.00    +0.031 C 
BRANCH   8  15
ATOM     14  N   UNL     1       5.633   2.506   1.403  0.00  0.00    -0.315 N 
ATOM     15  C   UNL     1       6.279   2.728   2.565  0.00  0.00    +0.216 C 
ATOM     16  O   UNL     1       5.718   2.518   3.620  0.00  0.00    -0.276 OA
ATOM     17  H   UNL     1       6.082   2.674   0.560  0.00  0.00    +0.149 HD
BRANCH  14  18
ATOM     18  C   UNL     1       4.255   2.011   1.414  0.00  0.00    +0.109 C 
BRANCH  18  19
ATOM     19  C   UNL     1       3.761   1.845  -0.024  0.00  0.00    +0.061 C 
BRANCH  19  22
ATOM     20  C   UNL     1      -0.016   1.351   0.009  0.00  0.00    +0.008 A 
ATOM     21  C   UNL     1       1.183   2.038   0.002  0.00  0.00    +0.011 A 
ATOM     22  C   UNL     1       2.343   1.336  -0.013  0.00  0.00    -0.009 A 
ATOM     23  S   UNL     1       1.754  -0.349  -0.017  0.00  0.00    -0.102 S 
ATOM     24  C   UNL     1       0.002  -0.004   0.002  0.00  0.00    +0.045 A 
ENDBRANCH  19  22
ENDBRANCH  18  19
ENDBRANCH  14  18
ENDBRANCH   8  15
ENDBRANCH   1  11
BRANCH   4  25
ATOM     25  C   UNL     1      12.034   9.815   5.283  0.00  0.00    +0.202 A 
ATOM     26  N   UNL     1      13.329  10.159   5.194  0.00  0.00    -0.187 NA
ATOM     27  C   UNL     1      13.527  11.312   5.791  0.00  0.00    +0.259 A 
ATOM     28  O   UNL     1      12.351  11.739   6.283  0.00  0.00    -0.332 OA
ATOM     29  N   UNL     1      11.391  10.753   5.936  0.00  0.00    -0.056 NA
BRANCH  27  30
ATOM     30  C   UNL     1      14.820  12.017   5.903  0.00  0.00    +0.043 A 
ATOM     31  C   UNL     1      15.972  11.462   5.340  0.00  0.00    +0.017 A 
ATOM     32  C   UNL     1      17.177  12.121   5.446  0.00  0.00    +0.050 A 
ATOM     33  C   UNL     1      17.252  13.337   6.111  0.00  0.00    +0.166 A 
ATOM     34  C   UNL     1      16.106  13.897   6.676  0.00  0.00    +0.167 A 
ATOM     35  C   UNL     1      14.894  13.243   6.568  0.00  0.00    +0.062 A 
ATOM     36  O   UNL     1      16.445  15.081   7.266  0.00  0.00    -0.453 OA
ATOM     37  C   UNL     1      17.877  15.041   7.412  0.00  0.00    +0.466 C 
ATOM     38  O   UNL     1      18.306  14.171   6.348  0.00  0.00    -0.453 OA
ENDBRANCH  27  30
ENDBRANCH   4  25
TORSDOF 7
