REMARK  Name = ZINC37425653
REMARK  12 active torsions:
REMARK  status: ('A' for Active; 'I' for Inactive)
REMARK    1  A    between atoms: C_1  and  C_2
REMARK    2  A    between atoms: C_7  and  N_8
REMARK    3  A    between atoms: C_11  and  C_13
REMARK    4  A    between atoms: C_13  and  C_14
REMARK    5  A    between atoms: C_13  and  C_15
REMARK    6  A    between atoms: C_13  and  C_16
REMARK    7  A    between atoms: C_17  and  C_31
REMARK    8  A    between atoms: N_23  and  C_24
REMARK    9  A    between atoms: C_24  and  C_25
REMARK   10  A    between atoms: N_27  and  C_28
REMARK   11  A    between atoms: C_28  and  C_29
REMARK   12  A    between atoms: C_28  and  C_30
REMARK                            x       y       z     vdW  Elec       q    Type
REMARK                         _______ _______ _______ _____ _____    ______ ____
ROOT
ATOM      1  N   UNL     1       0.182   1.674   1.349  0.00  0.00    -0.217 N 
ATOM      2  C   UNL     1       1.356   1.160   1.785  0.00  0.00    +0.136 A 
ATOM      3  C   UNL     1       1.498   1.484   3.091  0.00  0.00    +0.034 A 
ATOM      4  C   UNL     1       0.375   2.217   3.476  0.00  0.00    +0.075 A 
ATOM      5  N   UNL     1      -0.413   2.338   2.434  0.00  0.00    -0.169 NA
ATOM      6  C   UNL     1       2.679   1.106   3.948  0.00  0.00    +0.115 C 
ATOM      7  S   UNL     1       2.576  -0.680   4.327  0.00  0.00    -0.138 S 
ATOM      8  C   UNL     1       2.030  -1.373   2.731  0.00  0.00    +0.166 C 
ATOM      9  C   UNL     1       2.758  -0.722   1.593  0.00  0.00    +0.231 C 
ATOM     10  O   UNL     1       3.770  -1.228   1.156  0.00  0.00    -0.274 OA
ATOM     11  N   UNL     1       2.295   0.413   1.059  0.00  0.00    -0.246 N 
ENDROOT
BRANCH   1  18
ATOM     12  C   UNL     1      -0.708   4.050   0.059  0.00  0.00    +0.046 C 
ATOM     13  C   UNL     1      -0.786   2.703  -0.612  0.00  0.00    -0.025 A 
ATOM     14  C   UNL     1      -1.296   2.597  -1.891  0.00  0.00    +0.005 A 
ATOM     15  C   UNL     1      -1.368   1.361  -2.508  0.00  0.00    +0.000 A 
ATOM     16  C   UNL     1      -0.930   0.229  -1.846  0.00  0.00    +0.002 A 
ATOM     17  C   UNL     1      -0.420   0.329  -0.567  0.00  0.00    +0.028 A 
ATOM     18  C   UNL     1      -0.341   1.569   0.053  0.00  0.00    +0.070 A 
ENDBRANCH   1  18
BRANCH   6  19
ATOM     19  C   UNL     1       2.651   1.902   5.227  0.00  0.00    +0.005 A 
ATOM     20  C   UNL     1       2.101   1.353   6.370  0.00  0.00    +0.008 A 
ATOM     21  C   UNL     1       2.075   2.083   7.544  0.00  0.00    +0.000 A 
ATOM     22  C   UNL     1       2.600   3.361   7.576  0.00  0.00    +0.003 A 
ATOM     23  C   UNL     1       3.151   3.912   6.435  0.00  0.00    +0.038 A 
ATOM     24  C   UNL     1       3.182   3.180   5.260  0.00  0.00    +0.128 A 
ATOM     25  F   UNL     1       3.725   3.715   4.144  0.00  0.00    -0.205 F 
ENDBRANCH   6  19
BRANCH   4  26
ATOM     26  C   UNL     1       0.115   2.780   4.849  0.00  0.00    +0.007 C 
ATOM     27  C   UNL     1       1.173   3.836   5.177  0.00  0.00    +0.017 C 
ATOM     28  C   UNL     1      -1.274   3.421   4.884  0.00  0.00    +0.017 C 
ATOM     29  C   UNL     1       0.182   1.653   5.883  0.00  0.00    +0.017 C 
ENDBRANCH   4  26
BRANCH  11  30
ATOM     30  C   UNL     1       2.759   0.865  -0.255  0.00  0.00    +0.210 C 
BRANCH  30  31
ATOM     31  C   UNL     1       4.037   1.648  -0.095  0.00  0.00    +0.231 C 
ATOM     32  O   UNL     1       4.513   1.812   1.008  0.00  0.00    -0.274 OA
ATOM     33  N   UNL     1       4.650   2.166  -1.178  0.00  0.00    -0.312 N 
ATOM     34  H   UNL     1       4.268   2.035  -2.060  0.00  0.00    +0.149 HD
BRANCH  33  35
ATOM     35  C   UNL     1       5.892   2.927  -1.022  0.00  0.00    +0.067 C 
ATOM     36  C   UNL     1       7.080   1.964  -0.992  0.00  0.00    +0.027 C 
ATOM     37  C   UNL     1       6.048   3.894  -2.198  0.00  0.00    +0.027 C 
ENDBRANCH  33  35
ENDBRANCH  30  31
ENDBRANCH  11  30
TORSDOF 6
