REMARK  Name = ZINC40782423
REMARK  7 active torsions:
REMARK  status: ('A' for Active; 'I' for Inactive)
REMARK    1  A    between atoms: C_6  and  N_7
REMARK    2  A    between atoms: C_9  and  N_23
REMARK    3  A    between atoms: C_10  and  N_14
REMARK    4  A    between atoms: N_14  and  C_15
REMARK    5  A    between atoms: C_15  and  C_16
REMARK    6  A    between atoms: C_16  and  C_17
REMARK    7  A    between atoms: C_17  and  N_18
REMARK                            x       y       z     vdW  Elec       q    Type
REMARK                         _______ _______ _______ _____ _____    ______ ____
ROOT
ATOM      1  N   UNL     1      -1.198  -0.721   0.010  0.00  0.00    -0.298 N 
ATOM      2  C   UNL     1      -1.181  -2.107  -0.102  0.00  0.00    +0.149 A 
ATOM      3  C   UNL     1      -2.374  -2.824  -0.206  0.00  0.00    +0.105 A 
ATOM      4  C   UNL     1      -2.300  -4.214  -0.317  0.00  0.00    +0.145 A 
ATOM      5  N   UNL     1      -1.103  -4.797  -0.320  0.00  0.00    -0.219 NA
ATOM      6  C   UNL     1      -0.001  -4.083  -0.220  0.00  0.00    +0.225 A 
ATOM      7  N   UNL     1      -0.026  -2.769  -0.119  0.00  0.00    -0.219 NA
ATOM      8  H   UNL     1      -2.042  -0.252   0.099  0.00  0.00    +0.154 HD
ENDROOT
BRANCH   1  14
ATOM      9  C   UNL     1       1.075  -0.458  -0.760  0.00  0.00    +0.024 A 
ATOM     10  C   UNL     1       2.259   0.253  -0.772  0.00  0.00    +0.016 A 
ATOM     11  C   UNL     1       2.377   1.417  -0.033  0.00  0.00    +0.013 A 
ATOM     12  C   UNL     1       1.309   1.872   0.720  0.00  0.00    +0.016 A 
ATOM     13  C   UNL     1       0.123   1.165   0.736  0.00  0.00    +0.024 A 
ATOM     14  C   UNL     1       0.002  -0.004  -0.004  0.00  0.00    +0.032 A 
ATOM     15  I   UNL     1       4.175   2.491  -0.054  0.00  0.00    -0.044 I 
ENDBRANCH   1  14
BRANCH   3  16
ATOM     16  N   UNL     1      -3.614  -2.166  -0.198  0.00  0.00    -0.353 N 
ATOM     17  H   UNL     1      -3.651  -1.200  -0.120  0.00  0.00    +0.143 HD
ATOM     18  H   UNL     1      -4.435  -2.678  -0.271  0.00  0.00    +0.143 HD
ENDBRANCH   3  16
BRANCH   4  19
ATOM     19  N   UNL     1      -3.457  -4.976  -0.423  0.00  0.00    -0.327 N 
ATOM     20  H   UNL     1      -4.325  -4.543  -0.419  0.00  0.00    +0.148 HD
BRANCH  19  21
ATOM     21  C   UNL     1      -3.366  -6.434  -0.539  0.00  0.00    +0.105 C 
BRANCH  21  22
ATOM     22  C   UNL     1      -4.773  -7.026  -0.640  0.00  0.00    +0.040 C 
BRANCH  22  23
ATOM     23  C   UNL     1      -4.678  -8.548  -0.761  0.00  0.00    +0.124 C 
BRANCH  23  24
ATOM     24  N   UNL     1      -6.025  -9.116  -0.857  0.00  0.00    -0.338 N 
ATOM     25  C   UNL     1      -6.815  -9.514   0.187  0.00  0.00    +0.104 A 
ATOM     26  C   UNL     1      -7.965  -9.970  -0.346  0.00  0.00    +0.101 A 
ATOM     27  N   UNL     1      -7.879  -9.853  -1.680  0.00  0.00    -0.352 N 
ATOM     28  C   UNL     1      -6.722  -9.337  -1.993  0.00  0.00    +0.173 A 
ATOM     29  H   UNL     1      -8.570 -10.108  -2.311  0.00  0.00    +0.166 HD
ENDBRANCH  23  24
ENDBRANCH  22  23
ENDBRANCH  21  22
ENDBRANCH  19  21
ENDBRANCH   4  19
TORSDOF 7
