REMARK  Name = ZINC09109275
REMARK  8 active torsions:
REMARK  status: ('A' for Active; 'I' for Inactive)
REMARK    1  A    between atoms: C_1  and  C_2
REMARK    2  A    between atoms: C_2  and  C_4
REMARK    3  A    between atoms: C_2  and  N_12
REMARK    4  A    between atoms: C_4  and  C_5
REMARK    5  A    between atoms: C_5  and  C_6
REMARK    6  A    between atoms: C_15  and  C_21
REMARK    7  A    between atoms: C_16  and  O_20
REMARK    8  A    between atoms: C_18  and  O_19
REMARK                            x       y       z     vdW  Elec       q    Type
REMARK                         _______ _______ _______ _____ _____    ______ ____
ROOT
ATOM      1  N   UNL     1      -0.749   3.044   1.275  0.00  0.00    -0.260 N 
ATOM      2  C   UNL     1      -1.927   3.702   1.284  0.00  0.00    +0.262 A 
ATOM      3  O   UNL     1      -2.982   3.087   1.286  0.00  0.00    -0.267 OA
ATOM      4  C   UNL     1      -1.918   5.103   1.296  0.00  0.00    +0.070 A 
ATOM      5  C   UNL     1      -0.700   5.759   1.288  0.00  0.00    +0.224 A 
ATOM      6  N   UNL     1       0.435   5.052   1.274  0.00  0.00    -0.161 NA
ATOM      7  C   UNL     1       0.419   3.738   1.267  0.00  0.00    +0.302 A 
ENDROOT
BRANCH   4   8
ATOM      8  C   UNL     1      -3.210   5.879   1.312  0.00  0.00    +0.018 C 
ATOM      9  C   UNL     1      -3.947   5.611   2.602  0.00  0.00    +0.011 A 
ATOM     10  C   UNL     1      -5.282   5.375   2.650  0.00  0.00    -0.022 A 
ATOM     11  C   UNL     1      -5.625   5.157   4.038  0.00  0.00    +0.003 A 
ATOM     12  C   UNL     1      -6.832   4.875   4.686  0.00  0.00    +0.010 A 
ATOM     13  C   UNL     1      -6.784   4.726   6.050  0.00  0.00    +0.001 A 
ATOM     14  C   UNL     1      -5.602   4.845   6.763  0.00  0.00    +0.002 A 
ATOM     15  C   UNL     1      -4.394   5.124   6.148  0.00  0.00    +0.026 A 
ATOM     16  C   UNL     1      -4.412   5.281   4.764  0.00  0.00    +0.047 A 
ATOM     17  N   UNL     1      -3.423   5.554   3.862  0.00  0.00    -0.359 N 
ATOM     18  H   UNL     1      -2.488   5.690   4.082  0.00  0.00    +0.166 HD
ATOM     19  C   UNL     1      -6.170   5.365   1.432  0.00  0.00    +0.018 C 
ATOM     20  C   UNL     1      -5.405   6.032   0.281  0.00  0.00    -0.076 C 
ATOM     21  N   UNL     1      -4.054   5.443   0.178  0.00  0.00    +0.388 N 
ATOM     22  H   UNL     1      -4.130   4.419   0.188  0.00  0.00    -0.084 HD
ATOM     23  H   UNL     1      -3.620   5.745  -0.702  0.00  0.00    -0.084 HD
ENDBRANCH   4   8
BRANCH   1  25
ATOM     24  C   UNL     1      -0.013   1.086   0.008  0.00  0.00    +0.031 C 
ATOM     25  C   UNL     1      -0.729   1.579   1.267  0.00  0.00    +0.092 C 
BRANCH  25  26
ATOM     26  C   UNL     1       0.011   1.072   2.506  0.00  0.00    +0.030 C 
BRANCH  26  27
ATOM     27  C   UNL     1      -0.772   1.460   3.762  0.00  0.00    +0.037 C 
BRANCH  27  28
ATOM     28  C   UNL     1      -0.044   0.961   4.983  0.00  0.00    -0.047 A 
ATOM     29  C   UNL     1      -0.319  -0.297   5.486  0.00  0.00    +0.003 A 
ATOM     30  C   UNL     1       0.353  -0.757   6.603  0.00  0.00    +0.000 A 
ATOM     31  C   UNL     1       1.293   0.045   7.223  0.00  0.00    +0.000 A 
ATOM     32  C   UNL     1       1.565   1.305   6.723  0.00  0.00    +0.000 A 
ATOM     33  C   UNL     1       0.896   1.762   5.603  0.00  0.00    +0.003 A 
ENDBRANCH  27  28
ENDBRANCH  26  27
ENDBRANCH  25  26
ENDBRANCH   1  25
BRANCH   7  34
ATOM     34  O   UNL     1       1.587   3.064   1.253  0.00  0.00    -0.479 OA
ATOM     35  H   UNL     1       2.398   3.591   1.248  0.00  0.00    +0.295 HD
ENDBRANCH   7  34
BRANCH   5  36
ATOM     36  O   UNL     1      -0.658   7.112   1.295  0.00  0.00    -0.492 OA
ATOM     37  H   UNL     1       0.237   7.477   1.289  0.00  0.00    +0.294 HD
ENDBRANCH   5  36
TORSDOF 7
