REMARK  Name = ZINC41301736
REMARK  9 active torsions:
REMARK  status: ('A' for Active; 'I' for Inactive)
REMARK    1  A    between atoms: C_1  and  O_2
REMARK    2  A    between atoms: O_2  and  C_3
REMARK    3  A    between atoms: C_3  and  C_4
REMARK    4  A    between atoms: C_4  and  C_5
REMARK    5  A    between atoms: C_5  and  N_6
REMARK    6  A    between atoms: C_10  and  N_25
REMARK    7  A    between atoms: C_11  and  N_13
REMARK    8  A    between atoms: N_13  and  C_14
REMARK    9  A    between atoms: C_15  and  C_22
REMARK                            x       y       z     vdW  Elec       q    Type
REMARK                         _______ _______ _______ _____ _____    ______ ____
ROOT
ATOM      1  N   UNL     1       1.272  -4.165  -2.169  0.00  0.00    -0.313 N 
ATOM      2  C   UNL     1       1.843  -4.936  -3.166  0.00  0.00    +0.219 A 
ATOM      3  N   UNL     1       2.423  -4.335  -4.194  0.00  0.00    -0.197 NA
ATOM      4  C   UNL     1       2.983  -5.044  -5.171  0.00  0.00    +0.154 A 
ATOM      5  C   UNL     1       2.953  -6.434  -5.102  0.00  0.00    +0.205 A 
ATOM      6  C   UNL     1       2.334  -7.029  -4.007  0.00  0.00    +0.161 A 
ATOM      7  N   UNL     1       1.800  -6.255  -3.065  0.00  0.00    -0.197 NA
ATOM      8  N   UNL     1       3.588  -4.407  -6.243  0.00  0.00    -0.341 N 
ATOM      9  H   UNL     1       0.847  -4.592  -1.409  0.00  0.00    +0.149 HD
ATOM     10  H   UNL     1       3.606  -3.438  -6.285  0.00  0.00    +0.144 HD
ATOM     11  H   UNL     1       3.994  -4.930  -6.951  0.00  0.00    +0.144 HD
ENDROOT
BRANCH   5  12
ATOM     12  N   UNL     1       3.564  -7.259  -6.168  0.00  0.00    +0.063 N 
ATOM     13  O   UNL     1       4.724  -7.590  -6.086  0.00  0.00    -0.126 OA
ATOM     14  O   UNL     1       2.903  -7.602  -7.121  0.00  0.00    -0.126 OA
ENDBRANCH   5  12
BRANCH   6  15
ATOM     15  N   UNL     1       2.279  -8.412  -3.896  0.00  0.00    -0.291 N 
ATOM     16  H   UNL     1       2.674  -8.970  -4.584  0.00  0.00    +0.154 HD
BRANCH  15  17
ATOM     17  C   UNL     1       1.662  -8.994  -2.803  0.00  0.00    +0.084 A 
ATOM     18  C   UNL     1       1.518 -10.342  -2.525  0.00  0.00    +0.068 A 
ATOM     19  C   UNL     1       0.818 -10.700  -1.292  0.00  0.00    -0.023 A 
ATOM     20  C   UNL     1       0.395  -9.644  -0.575  0.00  0.00    -0.004 A 
ATOM     21  S   UNL     1       0.921  -8.229  -1.507  0.00  0.00    -0.077 S 
ATOM     22  C   UNL     1      -0.322 -10.068   0.679  0.00  0.00    +0.043 C 
ATOM     23  C   UNL     1      -0.671 -11.555   0.445  0.00  0.00    +0.010 C 
ATOM     24  C   UNL     1       0.419 -11.980  -0.560  0.00  0.00    +0.037 C 
BRANCH  18  25
ATOM     25  C   UNL     1       2.045 -11.368  -3.429  0.00  0.00    +0.244 C 
ATOM     26  O   UNL     1       3.180 -11.784  -3.281  0.00  0.00    -0.270 OA
ATOM     27  N   UNL     1       1.274 -11.851  -4.423  0.00  0.00    -0.325 N 
ATOM     28  H   UNL     1       0.370 -11.519  -4.540  0.00  0.00    +0.145 HD
ATOM     29  H   UNL     1       1.623 -12.530  -5.021  0.00  0.00    +0.145 HD
ENDBRANCH  18  25
ENDBRANCH  15  17
ENDBRANCH   6  15
BRANCH   1  30
ATOM     30  C   UNL     1       1.309  -2.703  -2.261  0.00  0.00    +0.106 C 
BRANCH  30  31
ATOM     31  C   UNL     1       0.613  -2.097  -1.041  0.00  0.00    +0.047 C 
BRANCH  31  32
ATOM     32  C   UNL     1       0.652  -0.570  -1.138  0.00  0.00    +0.161 C 
BRANCH  32  34
ATOM     33  C   UNL     1      -0.017   1.425   0.010  0.00  0.00    +0.193 C 
ATOM     34  O   UNL     1       0.002  -0.004   0.002  0.00  0.00    -0.383 OA
ENDBRANCH  32  34
ENDBRANCH  31  32
ENDBRANCH  30  31
ENDBRANCH   1  30
TORSDOF 8
