REMARK  Name = ZINC19323147
REMARK  14 active torsions:
REMARK  status: ('A' for Active; 'I' for Inactive)
REMARK    1  A    between atoms: C_1  and  C_2
REMARK    2  A    between atoms: C_2  and  C_3
REMARK    3  A    between atoms: C_2  and  C_4
REMARK    4  A    between atoms: C_8  and  C_26
REMARK    5  A    between atoms: C_14  and  C_15
REMARK    6  A    between atoms: C_15  and  C_17
REMARK    7  A    between atoms: C_15  and  O_25
REMARK    8  A    between atoms: C_17  and  C_19
REMARK    9  A    between atoms: C_17  and  O_24
REMARK   10  A    between atoms: C_19  and  C_21
REMARK   11  A    between atoms: C_19  and  O_23
REMARK   12  A    between atoms: C_21  and  O_22
REMARK   13  A    between atoms: C_26  and  C_27
REMARK   14  A    between atoms: C_26  and  C_28
REMARK                            x       y       z     vdW  Elec       q    Type
REMARK                         _______ _______ _______ _____ _____    ______ ____
ROOT
ATOM      1  C   UNL     1      -0.199   1.525  -0.113  0.00  0.00    +0.030 C 
ATOM      2  C   UNL     1      -0.750   2.086  -1.433  0.00  0.00    -0.060 C 
ATOM      3  N   UNL     1      -0.755   3.573  -1.340  0.00  0.00    +0.393 N 
ATOM      4  C   UNL     1      -1.639   4.073  -0.279  0.00  0.00    -0.060 C 
ATOM      5  C   UNL     1      -1.122   3.587   1.084  0.00  0.00    +0.030 C 
ATOM      6  C   UNL     1      -1.072   2.065   1.016  0.00  0.00    +0.145 C 
ATOM      7  O   UNL     1      -1.670   1.351   1.785  0.00  0.00    -0.296 OA
ATOM      8  C   UNL     1       0.329   4.068   1.247  0.00  0.00    +0.095 C 
ATOM      9  N   UNL     1       1.135   3.568   0.124  0.00  0.00    -0.311 NA
ATOM     10  C   UNL     1       1.208   2.102   0.106  0.00  0.00    +0.095 C 
ATOM     11  C   UNL     1       0.614   4.079  -1.153  0.00  0.00    +0.034 C 
ATOM     12  H   UNL     1      -1.155   3.968  -2.286  0.00  0.00    -0.079 HD
ENDROOT
BRANCH   1  14
ATOM     13  C   UNL     1      -1.599  -0.532  -0.342  0.00  0.00    +0.008 C 
ATOM     14  C   UNL     1      -0.180  -0.005  -0.121  0.00  0.00    -0.004 C 
ATOM     15  C   UNL     1       0.728  -0.497  -1.250  0.00  0.00    +0.008 C 
ENDBRANCH   1  14
BRANCH   5  16
ATOM     16  C   UNL     1      -2.021   4.067   2.225  0.00  0.00    -0.004 C 
ATOM     17  C   UNL     1      -1.467   3.560   3.559  0.00  0.00    +0.008 C 
ATOM     18  C   UNL     1      -2.060   5.596   2.237  0.00  0.00    +0.008 C 
ENDBRANCH   5  16
BRANCH  11  19
ATOM     19  C   UNL     1       0.596   5.609  -1.126  0.00  0.00    +0.146 C 
BRANCH  19  20
ATOM     20  O   UNL     1      -0.001   6.100  -2.328  0.00  0.00    -0.390 OA
ATOM     21  H   UNL     1      -0.101   7.184  -2.489  0.00  0.00    +0.210 HD
ENDBRANCH  19  20
BRANCH  19  22
ATOM     22  C   UNL     1       2.029   6.133  -1.016  0.00  0.00    +0.173 C 
BRANCH  22  23
ATOM     23  O   UNL     1       2.626   5.642   0.186  0.00  0.00    -0.387 OA
ATOM     24  H   UNL     1       3.661   5.915   0.438  0.00  0.00    +0.210 HD
ENDBRANCH  22  23
BRANCH  22  25
ATOM     25  C   UNL     1       2.011   7.663  -0.989  0.00  0.00    +0.171 C 
BRANCH  25  26
ATOM     26  O   UNL     1       1.415   8.154  -2.191  0.00  0.00    -0.387 OA
ATOM     27  H   UNL     1       1.314   9.238  -2.352  0.00  0.00    +0.210 HD
ENDBRANCH  25  26
BRANCH  25  28
ATOM     28  C   UNL     1       3.445   8.188  -0.879  0.00  0.00    +0.189 C 
BRANCH  28  29
ATOM     29  O   UNL     1       3.422   9.609  -0.736  0.00  0.00    -0.392 OA
ATOM     30  H   UNL     1       4.365  10.168  -0.642  0.00  0.00    +0.210 HD
ENDBRANCH  28  29
ENDBRANCH  25  28
ENDBRANCH  22  25
ENDBRANCH  19  22
ENDBRANCH  11  19
TORSDOF 10
