REMARK  Name = ZINC09380646
REMARK  14 active torsions:
REMARK  status: ('A' for Active; 'I' for Inactive)
REMARK    1  A    between atoms: C_1  and  C_2
REMARK    2  A    between atoms: C_2  and  N_61
REMARK    3  A    between atoms: C_3  and  C_4
REMARK    4  A    between atoms: C_3  and  N_61
REMARK    5  A    between atoms: C_5  and  C_6
REMARK    6  A    between atoms: C_5  and  N_61
REMARK    7  A    between atoms: C_6  and  N_7
REMARK    8  A    between atoms: C_8  and  C_26
REMARK    9  A    between atoms: C_10  and  C_15
REMARK   10  A    between atoms: C_11  and  O_14
REMARK   11  A    between atoms: C_15  and  C_17
REMARK   12  A    between atoms: C_20  and  O_24
REMARK   13  A    between atoms: C_22  and  C_23
REMARK   14  A    between atoms: O_24  and  C_25
REMARK                            x       y       z     vdW  Elec       q    Type
REMARK                         _______ _______ _______ _____ _____    ______ ____
ROOT
ATOM      1  N   UNL     1       3.442   5.570   0.890  0.00  0.00    -0.285 N 
ATOM      2  C   UNL     1       2.817   4.282   1.212  0.00  0.00    +0.146 C 
ATOM      3  C   UNL     1       3.928   3.259   1.198  0.00  0.00    +0.071 C 
ATOM      4  C   UNL     1       5.066   3.922   0.886  0.00  0.00    +0.188 C 
ATOM      5  C   UNL     1       4.756   5.355   0.697  0.00  0.00    +0.282 C 
ATOM      6  O   UNL     1       5.568   6.212   0.409  0.00  0.00    -0.267 OA
ENDROOT
BRANCH   2   7
ATOM      7  C   UNL     1       1.779   3.933   0.176  0.00  0.00    -0.004 A 
ATOM      8  C   UNL     1       2.103   3.971  -1.167  0.00  0.00    +0.008 A 
ATOM      9  C   UNL     1       1.151   3.652  -2.117  0.00  0.00    +0.020 A 
ATOM     10  C   UNL     1      -0.126   3.295  -1.725  0.00  0.00    +0.042 A 
ATOM     11  C   UNL     1      -0.451   3.257  -0.381  0.00  0.00    +0.040 A 
ATOM     12  C   UNL     1       0.503   3.571   0.570  0.00  0.00    +0.048 A 
ATOM     13 CL   UNL     1       0.098   3.517   2.258  0.00  0.00    -0.083 Cl
ATOM     14 CL   UNL     1      -1.321   2.893  -2.918  0.00  0.00    -0.083 Cl
ENDBRANCH   2   7
BRANCH   4  15
ATOM     15  O   UNL     1       6.292   3.363   0.767  0.00  0.00    -0.502 OA
ATOM     16  H   UNL     1       6.959   4.069   0.531  0.00  0.00    +0.292 HD
ENDBRANCH   4  15
BRANCH   3  17
ATOM     17  C   UNL     1       3.798   1.823   1.463  0.00  0.00    +0.195 C 
ATOM     18  O   UNL     1       4.753   1.085   1.301  0.00  0.00    -0.287 OA
BRANCH  17  19
ATOM     19  C   UNL     1       2.510   1.272   1.928  0.00  0.00    +0.025 A 
ATOM     20  C   UNL     1       1.687   0.570   1.042  0.00  0.00    +0.015 A 
ATOM     21  C   UNL     1       0.487   0.058   1.480  0.00  0.00    +0.046 A 
ATOM     22  C   UNL     1       0.092   0.238   2.801  0.00  0.00    +0.120 A 
ATOM     23  C   UNL     1       0.908   0.935   3.686  0.00  0.00    +0.049 A 
ATOM     24  C   UNL     1       2.110   1.450   3.256  0.00  0.00    -0.036 A 
ATOM     25  C   UNL     1       2.993   2.205   4.216  0.00  0.00    +0.044 C 
BRANCH  22  26
ATOM     26  O   UNL     1      -1.092  -0.269   3.229  0.00  0.00    -0.495 OA
ATOM     27  C   UNL     1      -1.880  -0.975   2.268  0.00  0.00    +0.277 C 
ENDBRANCH  22  26
ENDBRANCH  17  19
ENDBRANCH   3  17
BRANCH   1  28
ATOM     28  C   UNL     1       2.756   6.861   0.790  0.00  0.00    +0.090 C 
BRANCH  28  29
ATOM     29  C   UNL     1       2.405   7.140  -0.673  0.00  0.00    -0.060 C 
BRANCH  29  30
ATOM     30  N   UNL     1       1.856   8.508  -0.778  0.00  0.00    +0.380 N 
ATOM     31  H   UNL     1       2.503   9.163  -0.325  0.00  0.00    -0.082 HD
BRANCH  30  33
ATOM     32  C   UNL     1       3.097   9.144  -2.787  0.00  0.00    -0.017 C 
ATOM     33  C   UNL     1       1.708   8.885  -2.200  0.00  0.00    -0.082 C 
ENDBRANCH  30  33
BRANCH  30  34
ATOM     34  C   UNL     1       0.546   8.581  -0.098  0.00  0.00    -0.082 C 
ATOM     35  C   UNL     1       0.153  10.051   0.058  0.00  0.00    -0.017 C 
ENDBRANCH  30  34
ENDBRANCH  29  30
ENDBRANCH  28  29
ENDBRANCH   1  28
TORSDOF 10
