REMARK  Name = ZINC64683797
REMARK  10 active torsions:
REMARK  status: ('A' for Active; 'I' for Inactive)
REMARK    1  A    between atoms: C_1  and  C_2
REMARK    2  A    between atoms: C_2  and  N_3
REMARK    3  A    between atoms: C_4  and  C_30
REMARK    4  A    between atoms: C_8  and  S_10
REMARK    5  A    between atoms: S_10  and  C_11
REMARK    6  A    between atoms: C_11  and  C_12
REMARK    7  A    between atoms: N_14  and  CA_15
REMARK    8  A    between atoms: CA_15  and  CB_17
REMARK    9  A    between atoms: CA_15  and  C_27
REMARK   10  A    between atoms: CB_17  and  CG_18
REMARK                            x       y       z     vdW  Elec       q    Type
REMARK                         _______ _______ _______ _____ _____    ______ ____
ROOT
ATOM      1  C   UNK A   0       2.946   2.105  -4.271  0.00  0.00    +0.223 C 
ATOM      2  O   UNK A   0       2.334   3.138  -4.442  0.00  0.00    -0.275 OA
ATOM      3  N   TRP A   1       4.229   2.006  -4.674  0.00  0.00    -0.301 N 
ATOM      4  H   TRP A   1       4.718   1.180  -4.537  0.00  0.00    +0.150 HD
ENDROOT
BRANCH   1   5
ATOM      5  C   UNK A   0       2.272   0.930  -3.610  0.00  0.00    +0.164 C 
BRANCH   5   6
ATOM      6  S   UNK A   0       0.564   1.373  -3.188  0.00  0.00    -0.150 S 
BRANCH   6  11
ATOM      7  N   UNK A   0       0.690  -0.478  -1.207  0.00  0.00    +0.412 N 
ATOM      8  C   UNK A   0       0.787  -1.952  -1.190  0.00  0.00    +0.086 C 
ATOM      9  N   UNK A   0       0.054  -2.437  -2.381  0.00  0.00    -0.264 NA
ATOM     10  N   UNK A   0       0.070  -1.297  -3.311  0.00  0.00    -0.261 NA
ATOM     11  C   UNK A   0      -0.099  -0.127  -2.411  0.00  0.00    +0.078 C 
ATOM     12  H   UNK A   0      -0.891  -2.696  -2.143  0.00  0.00    +0.139 HD
ATOM     13  H   UNK A   0      -0.691  -1.358  -3.971  0.00  0.00    +0.140 HD
ATOM     14  H   UNK A   0       1.611  -0.070  -1.264  0.00  0.00    -0.075 HD
BRANCH   8  15
ATOM     15  C   UNK A   0       2.232  -2.375  -1.263  0.00  0.00    +0.106 A 
ATOM     16  C   UNK A   0       2.692  -3.508  -1.823  0.00  0.00    +0.044 A 
ATOM     17  C   UNK A   0       4.098  -3.499  -1.669  0.00  0.00    +0.041 A 
ATOM     18  C   UNK A   0       4.412  -2.361  -1.025  0.00  0.00    +0.195 A 
ATOM     19  O   UNK A   0       3.279  -1.681  -0.787  0.00  0.00    -0.468 OA
ENDBRANCH   8  15
BRANCH   7  21
ATOM     20  C   UNK A   0      -0.019   1.526   0.010  0.00  0.00    -0.017 C 
ATOM     21  C   UNK A   0       0.002  -0.004   0.002  0.00  0.00    -0.076 C 
ENDBRANCH   7  21
ENDBRANCH   6  11
ENDBRANCH   5   6
ENDBRANCH   1   5
BRANCH   3  22
ATOM     22  CA  TRP A   1       4.884   3.148  -5.317  0.00  0.00    +0.190 C 
BRANCH  22  23
ATOM     23  C   TRP A   1       4.572   3.141  -6.792  0.00  0.00    +0.376 C 
ATOM     24  O   TRP A   1       4.518   4.191  -7.408  0.00  0.00    -0.244 OA
ATOM     25  OXT TRP A   1       4.373   2.085  -7.367  0.00  0.00    -0.244 OA
ENDBRANCH  22  23
BRANCH  22  26
ATOM     26  CB  TRP A   1       6.397   3.047  -5.116  0.00  0.00    +0.067 C 
BRANCH  26  27
ATOM     27  CG  TRP A   1       6.718   3.178  -3.649  0.00  0.00    -0.039 C 
ATOM     28  CD2 TRP A   1       6.903   2.171  -2.764  0.00  0.00    -0.001 A 
ATOM     29  CE3 TRP A   1       6.860   0.710  -2.897  0.00  0.00    +0.010 A 
ATOM     30  CZ3 TRP A   1       7.091  -0.055  -1.806  0.00  0.00    +0.001 A 
ATOM     31  CH2 TRP A   1       7.369   0.511  -0.554  0.00  0.00    +0.002 A 
ATOM     32  CZ2 TRP A   1       7.425   1.845  -0.354  0.00  0.00    +0.026 A 
ATOM     33  CE2 TRP A   1       7.199   2.744  -1.432  0.00  0.00    +0.043 A 
ATOM     34  NE1 TRP A   1       7.198   4.054  -1.491  0.00  0.00    -0.380 N 
ATOM     35  CD1 TRP A   1       6.907   4.460  -2.870  0.00  0.00    +0.144 C 
ATOM     36  HE1 TRP A   1       7.366   4.654  -0.747  0.00  0.00    +0.160 HD
ENDBRANCH  26  27
ENDBRANCH  22  26
ENDBRANCH   3  22
TORSDOF 9
