REMARK  Name = ZINC09546295
REMARK  9 active torsions:
REMARK  status: ('A' for Active; 'I' for Inactive)
REMARK    1  A    between atoms: C_1  and  C_2
REMARK    2  A    between atoms: C_9  and  N_14
REMARK    3  A    between atoms: C_10  and  C_11
REMARK    4  A    between atoms: N_14  and  S_15
REMARK    5  A    between atoms: S_15  and  C_18
REMARK    6  A    between atoms: C_21  and  O_28
REMARK    7  A    between atoms: C_22  and  N_24
REMARK    8  A    between atoms: C_25  and  C_27
REMARK    9  A    between atoms: O_28  and  C_29
REMARK                            x       y       z     vdW  Elec       q    Type
REMARK                         _______ _______ _______ _____ _____    ______ ____
ROOT
ATOM      1  N   UNL     1      -2.292  -5.873   0.778  0.00  0.00    -0.209 N 
ATOM      2  H   UNL     1      -1.705  -6.572   1.109  0.00  0.00    +0.174 HD
ENDROOT
BRANCH   1  10
ATOM      3  C   UNL     1      -0.054   1.577  -0.009  0.00  0.00    +0.008 C 
ATOM      4  C   UNL     1      -0.023   0.047  -0.010  0.00  0.00    -0.009 C 
ATOM      5  C   UNL     1       0.720  -0.452   1.232  0.00  0.00    +0.008 C 
ATOM      6  C   UNL     1       0.972  -1.957   1.118  0.00  0.00    +0.037 C 
ATOM      7  C   UNL     1      -0.348  -2.653   0.810  0.00  0.00    -0.023 A 
ATOM      8  C   UNL     1      -1.401  -1.963   0.324  0.00  0.00    -0.004 A 
ATOM      9  S   UNL     1      -2.682  -3.169   0.127  0.00  0.00    -0.076 S 
ATOM     10  C   UNL     1      -1.832  -4.574   0.682  0.00  0.00    +0.098 A 
ATOM     11  C   UNL     1      -0.577  -4.076   1.007  0.00  0.00    +0.069 A 
ATOM     12  C   UNL     1      -1.458  -0.498   0.020  0.00  0.00    +0.046 C 
BRANCH  11  13
ATOM     13  C   UNL     1       0.477  -4.950   1.528  0.00  0.00    +0.244 C 
ATOM     14  O   UNL     1       0.585  -5.124   2.727  0.00  0.00    -0.270 OA
ATOM     15  N   UNL     1       1.325  -5.562   0.678  0.00  0.00    -0.325 N 
ATOM     16  H   UNL     1       1.239  -5.423  -0.278  0.00  0.00    +0.145 HD
ATOM     17  H   UNL     1       2.023  -6.141   1.023  0.00  0.00    +0.145 HD
ENDBRANCH  11  13
ENDBRANCH   1  10
BRANCH   1  18
ATOM     18  S   UNL     1      -3.843  -6.238   0.329  0.00  0.00    +0.073 S 
ATOM     19  O   UNL     1      -4.001  -7.638   0.516  0.00  0.00    -0.150 OA
ATOM     20  O   UNL     1      -4.684  -5.285   0.963  0.00  0.00    -0.150 OA
BRANCH  18  21
ATOM     21  C   UNL     1      -3.966  -5.945  -1.404  0.00  0.00    +0.110 A 
ATOM     22  C   UNL     1      -3.686  -6.962  -2.297  0.00  0.00    +0.032 A 
ATOM     23  C   UNL     1      -3.781  -6.738  -3.658  0.00  0.00    +0.049 A 
ATOM     24  C   UNL     1      -4.157  -5.491  -4.130  0.00  0.00    +0.141 A 
ATOM     25  C   UNL     1      -4.440  -4.466  -3.231  0.00  0.00    +0.077 A 
ATOM     26  C   UNL     1      -4.348  -4.700  -1.867  0.00  0.00    +0.055 A 
BRANCH  25  27
ATOM     27  N   UNL     1      -4.821  -3.202  -3.703  0.00  0.00    -0.283 N 
ATOM     28  C   UNL     1      -5.718  -2.469  -3.015  0.00  0.00    +0.214 C 
ATOM     29  O   UNL     1      -6.135  -2.865  -1.947  0.00  0.00    -0.276 OA
ATOM     30  C   UNL     1      -6.203  -1.155  -3.573  0.00  0.00    +0.109 C 
ATOM     31  H   UNL     1      -4.439  -2.856  -4.524  0.00  0.00    +0.155 HD
ENDBRANCH  25  27
BRANCH  24  32
ATOM     32  O   UNL     1      -4.251  -5.269  -5.469  0.00  0.00    -0.493 OA
ATOM     33  C   UNL     1      -3.947  -6.367  -6.331  0.00  0.00    +0.277 C 
ENDBRANCH  24  32
ENDBRANCH  18  21
ENDBRANCH   1  18
TORSDOF 6
