REMARK  Name = ZINC36547763
REMARK  15 active torsions:
REMARK  status: ('A' for Active; 'I' for Inactive)
REMARK    1  A    between atoms: C_1  and  C_2
REMARK    2  A    between atoms: C_2  and  C_3
REMARK    3  A    between atoms: C_2  and  C_4
REMARK    4  A    between atoms: C_2  and  C_5
REMARK    5  A    between atoms: C_5  and  C_6
REMARK    6  A    between atoms: C_6  and  C_7
REMARK    7  A    between atoms: C_6  and  C_8
REMARK    8  A    between atoms: C_6  and  N_9
REMARK    9  A    between atoms: C_10  and  C_12
REMARK   10  A    between atoms: C_12  and  C_14
REMARK   11  A    between atoms: C_12  and  N_24
REMARK   12  A    between atoms: C_16  and  N_21
REMARK   13  A    between atoms: N_24  and  C_25
REMARK   14  A    between atoms: C_32  and  C_34
REMARK   15  A    between atoms: C_34  and  O_35
REMARK                            x       y       z     vdW  Elec       q    Type
REMARK                         _______ _______ _______ _____ _____    ______ ____
ROOT
ATOM      1  C   UNL     1       5.237  -0.467  -4.297  0.00  0.00    +0.199 C 
ENDROOT
BRANCH   1   2
ATOM      2  C   UNL     1       4.564   0.477  -5.260  0.00  0.00    +0.003 A 
ATOM      3  C   UNL     1       3.808   1.530  -4.780  0.00  0.00    +0.040 A 
ATOM      4  C   UNL     1       3.191   2.397  -5.663  0.00  0.00    +0.127 A 
ATOM      5  C   UNL     1       3.330   2.211  -7.026  0.00  0.00    +0.034 A 
ATOM      6  C   UNL     1       4.086   1.159  -7.506  0.00  0.00    +0.022 A 
ATOM      7  C   UNL     1       4.709   0.294  -6.623  0.00  0.00    +0.047 A 
ATOM      8 CL   UNL     1       5.665  -1.023  -7.226  0.00  0.00    -0.083 Cl
BRANCH   4   9
ATOM      9  N   UNL     1       2.381   3.523  -5.149  0.00  0.00    +0.056 N 
ATOM     10  O   UNL     1       2.259   3.686  -3.957  0.00  0.00    -0.126 OA
ATOM     11  O   UNL     1       1.841   4.281  -5.921  0.00  0.00    -0.126 OA
ENDBRANCH   4   9
ENDBRANCH   1   2
BRANCH   1  13
ATOM     12  N   UNL     1       3.266  -1.096  -2.940  0.00  0.00    -0.308 N 
ATOM     13  C   UNL     1       4.470  -0.493  -3.000  0.00  0.00    +0.239 C 
ATOM     14  O   UNL     1       4.936   0.030  -2.010  0.00  0.00    -0.273 OA
ATOM     15  H   UNL     1       2.924  -1.573  -3.712  0.00  0.00    +0.149 HD
BRANCH  12  16
ATOM     16  C   UNL     1       2.474  -1.031  -1.709  0.00  0.00    +0.030 C 
ATOM     17  C   UNL     1       2.382   0.422  -1.239  0.00  0.00    +0.031 C 
ATOM     18  C   UNL     1       3.146  -1.876  -0.625  0.00  0.00    +0.031 C 
BRANCH  16  19
ATOM     19  C   UNL     1       1.068  -1.570  -1.978  0.00  0.00    +0.031 C 
BRANCH  19  21
ATOM     20  C   UNL     1       1.133  -1.851  -4.460  0.00  0.00    +0.010 C 
ATOM     21  C   UNL     1       0.557  -1.020  -3.312  0.00  0.00    -0.036 C 
ATOM     22  C   UNL     1       1.000   0.437  -3.465  0.00  0.00    +0.010 C 
ATOM     23  C   UNL     1      -0.970  -1.095  -3.343  0.00  0.00    +0.010 C 
ENDBRANCH  19  21
ENDBRANCH  16  19
ENDBRANCH  12  16
ENDBRANCH   1  13
BRANCH   1  24
ATOM     24  N   UNL     1       6.607  -0.015  -4.045  0.00  0.00    -0.252 N 
ATOM     25  C   UNL     1       7.643  -0.848  -4.268  0.00  0.00    +0.246 C 
ATOM     26  O   UNL     1       8.778  -0.472  -4.063  0.00  0.00    -0.273 OA
BRANCH  24  27
ATOM     27  C   UNL     1       6.841   1.282  -3.574  0.00  0.00    +0.056 A 
ATOM     28  C   UNL     1       6.886   1.529  -2.208  0.00  0.00    +0.025 A 
ATOM     29  C   UNL     1       7.116   2.810  -1.746  0.00  0.00    +0.002 A 
ATOM     30  C   UNL     1       7.302   3.847  -2.642  0.00  0.00    +0.002 A 
ATOM     31  C   UNL     1       7.257   3.606  -4.002  0.00  0.00    +0.022 A 
ATOM     32  C   UNL     1       7.033   2.325  -4.472  0.00  0.00    +0.062 A 
ATOM     33 CL   UNL     1       6.985   2.022  -6.180  0.00  0.00    -0.082 Cl
ENDBRANCH  24  27
BRANCH  25  34
ATOM     34  C   UNL     1       7.392  -2.246  -4.771  0.00  0.00    +0.252 C 
BRANCH  34  35
ATOM     35  O   UNL     1       8.625  -2.966  -4.811  0.00  0.00    -0.386 OA
ATOM     36  H   UNL     1       8.539  -3.877  -5.127  0.00  0.00    +0.210 HD
ENDBRANCH  34  35
ENDBRANCH  25  34
ENDBRANCH   1  24
TORSDOF 10
