REMARK  Name = ZINC64164060
REMARK  6 active torsions:
REMARK  status: ('A' for Active; 'I' for Inactive)
REMARK    1  A    between atoms: C_1  and  C_2
REMARK    2  A    between atoms: C_2  and  C_3
REMARK    3  A    between atoms: C_3  and  N_4
REMARK    4  A    between atoms: C_7  and  C_13
REMARK    5  A    between atoms: N_27  and  C_28
REMARK    6  A    between atoms: C_28  and  C_29
REMARK                            x       y       z     vdW  Elec       q    Type
REMARK                         _______ _______ _______ _____ _____    ______ ____
ROOT
ATOM      1  C   UNL     1      -1.387  -4.829  -2.472  0.00  0.00    -0.000 C 
ATOM      2  C   UNL     1      -2.694  -4.572  -3.223  0.00  0.00    +0.097 C 
ATOM      3  C   UNL     1      -2.545  -5.250  -4.580  0.00  0.00    -0.041 C 
ATOM      4  C   UNL     1      -3.592  -6.051  -4.718  0.00  0.00    -0.001 A 
ATOM      5  C   UNL     1      -4.047  -6.891  -5.837  0.00  0.00    +0.010 A 
ATOM      6  C   UNL     1      -5.181  -7.609  -5.626  0.00  0.00    +0.001 A 
ATOM      7  C   UNL     1      -5.901  -7.577  -4.427  0.00  0.00    +0.002 A 
ATOM      8  C   UNL     1      -5.559  -6.828  -3.349  0.00  0.00    +0.026 A 
ATOM      9  C   UNL     1      -4.387  -6.025  -3.451  0.00  0.00    +0.043 A 
ATOM     10  N   UNL     1      -3.849  -5.194  -2.579  0.00  0.00    -0.379 N 
ATOM     11  C   UNL     1      -1.324  -5.030  -5.441  0.00  0.00    +0.015 C 
ATOM     12  C   UNL     1      -0.109  -5.197  -4.510  0.00  0.00    -0.073 C 
ATOM     13  N   UNL     1      -0.270  -4.369  -3.312  0.00  0.00    +0.386 N 
ATOM     14  H   UNL     1      -4.154  -5.025  -1.674  0.00  0.00    +0.160 HD
ATOM     15  H   UNL     1      -0.442  -3.416  -3.593  0.00  0.00    -0.081 HD
ENDROOT
BRANCH   1  19
ATOM     16  N   UNL     1      -1.413  -1.998   0.005  0.00  0.00    -0.261 N 
ATOM     17  C   UNL     1      -1.410  -2.661  -1.169  0.00  0.00    +0.262 A 
ATOM     18  O   UNL     1      -1.423  -2.046  -2.221  0.00  0.00    -0.267 OA
ATOM     19  C   UNL     1      -1.390  -4.067  -1.171  0.00  0.00    +0.070 A 
ATOM     20  C   UNL     1      -1.375  -4.731   0.019  0.00  0.00    +0.259 A 
ATOM     21  N   UNL     1      -1.380  -4.018   1.190  0.00  0.00    -0.275 N 
ATOM     22  C   UNL     1      -1.393  -2.672   1.169  0.00  0.00    +0.332 A 
ATOM     23  O   UNL     1      -1.392  -2.057   2.218  0.00  0.00    -0.246 OA
ATOM     24  O   UNL     1      -1.357  -6.081   0.044  0.00  0.00    -0.267 OA
ATOM     25  H   UNL     1      -1.369  -4.486   2.040  0.00  0.00    +0.173 HD
BRANCH  16  26
ATOM     26  C   UNL     1      -1.433  -0.534   0.013  0.00  0.00    +0.130 C 
BRANCH  26  28
ATOM     27  C   UNL     1      -0.019   1.526   0.010  0.00  0.00    +0.005 C 
ATOM     28  C   UNL     1       0.002  -0.004   0.002  0.00  0.00    +0.018 C 
ENDBRANCH  26  28
ENDBRANCH  16  26
ENDBRANCH   1  19
BRANCH  13  29
ATOM     29  C   UNL     1       0.971  -4.418  -2.526  0.00  0.00    -0.081 C 
ATOM     30  C   UNL     1       2.118  -3.825  -3.348  0.00  0.00    -0.017 C 
ENDBRANCH  13  29
TORSDOF 4
