REMARK  Name = ZINC57850222
REMARK  11 active torsions:
REMARK  status: ('A' for Active; 'I' for Inactive)
REMARK    1  A    between atoms: C_1  and  C_2
REMARK    2  A    between atoms: C_2  and  C_3
REMARK    3  A    between atoms: C_3  and  C_4
REMARK    4  A    between atoms: C_3  and  C_6
REMARK    5  A    between atoms: C_3  and  N_23
REMARK    6  A    between atoms: C_4  and  C_5
REMARK    7  A    between atoms: C_6  and  N_7
REMARK    8  A    between atoms: C_13  and  C_16
REMARK    9  A    between atoms: C_16  and  C_17
REMARK   10  A    between atoms: C_16  and  C_18
REMARK   11  A    between atoms: C_16  and  C_19
REMARK                            x       y       z     vdW  Elec       q    Type
REMARK                         _______ _______ _______ _____ _____    ______ ____
ROOT
ATOM      1  N   UNL     1       2.897  -0.548  -0.146  0.00  0.00    -0.226 N 
ATOM      2  C   UNL     1       2.967   0.003   1.083  0.00  0.00    +0.246 C 
ATOM      3  O   UNL     1       2.447   1.033   1.456  0.00  0.00    -0.273 OA
ATOM      4  C   UNL     1       3.829  -0.934   1.897  0.00  0.00    +0.113 C 
ATOM      5  C   UNL     1       5.083  -0.216   2.383  0.00  0.00    +0.035 C 
ATOM      6  C   UNL     1       5.956  -1.190   3.179  0.00  0.00    +0.006 C 
ATOM      7  C   UNL     1       5.162  -1.728   4.370  0.00  0.00    -0.005 C 
ATOM      8  C   UNL     1       3.920  -2.466   3.866  0.00  0.00    +0.006 C 
ATOM      9  C   UNL     1       3.039  -1.497   3.073  0.00  0.00    +0.035 C 
ATOM     10  N   UNL     1       4.181  -2.004   0.955  0.00  0.00    -0.285 N 
ATOM     11  C   UNL     1       3.586  -1.694  -0.213  0.00  0.00    +0.309 C 
ATOM     12  O   UNL     1       3.668  -2.376  -1.216  0.00  0.00    -0.252 OA
ATOM     13  H   UNL     1       4.731  -2.782   1.138  0.00  0.00    +0.151 HD
ENDROOT
BRANCH   7  14
ATOM     14  C   UNL     1       6.037  -2.693   5.173  0.00  0.00    -0.035 C 
ATOM     15  C   UNL     1       7.279  -1.955   5.678  0.00  0.00    +0.011 C 
ATOM     16  C   UNL     1       5.243  -3.231   6.364  0.00  0.00    +0.011 C 
ATOM     17  C   UNL     1       6.466  -3.857   4.277  0.00  0.00    +0.011 C 
ENDBRANCH   7  14
BRANCH   1  18
ATOM     18  C   UNL     1       2.154   0.032  -1.268  0.00  0.00    +0.105 C 
BRANCH  18  19
ATOM     19  C   UNL     1       0.718  -0.497  -1.257  0.00  0.00    -0.055 C 
BRANCH  19  20
ATOM     20  N   UNL     1       0.738  -1.966  -1.265  0.00  0.00    +0.383 N 
ATOM     21  H   UNL     1      -0.208  -2.316  -1.258  0.00  0.00    -0.089 HD
ATOM     22  H   UNL     1       1.210  -2.292  -2.095  0.00  0.00    -0.089 HD
ATOM     23  H   UNL     1       1.226  -2.301  -0.447  0.00  0.00    -0.089 HD
ENDBRANCH  19  20
BRANCH  19  25
ATOM     24  C   UNL     1      -0.019   1.526   0.010  0.00  0.00    +0.002 C 
ATOM     25  C   UNL     1       0.002  -0.004   0.002  0.00  0.00    -0.015 C 
ENDBRANCH  19  25
BRANCH  19  26
ATOM     26  C   UNL     1      -0.022   0.009  -2.496  0.00  0.00    -0.015 C 
ATOM     27  C   UNL     1      -1.457  -0.520  -2.486  0.00  0.00    +0.002 C 
ENDBRANCH  19  26
ENDBRANCH  18  19
ENDBRANCH   1  18
TORSDOF 6
