REMARK  Name = ZINC20696014
REMARK  5 active torsions:
REMARK  status: ('A' for Active; 'I' for Inactive)
REMARK    1  A    between atoms: C_1  and  N_2
REMARK    2  A    between atoms: N_5  and  S_8
REMARK    3  A    between atoms: S_8  and  C_11
REMARK    4  A    between atoms: C_24  and  C_27
REMARK    5  A    between atoms: C_32  and  O_33
REMARK                            x       y       z     vdW  Elec       q    Type
REMARK                         _______ _______ _______ _____ _____    ______ ____
ROOT
ATOM      1  C   UNL     1      -1.220   1.749   0.017  0.00  0.00    +0.106 A 
ATOM      2  C   UNL     1      -0.013   1.076   0.008  0.00  0.00    +0.030 A 
ATOM      3  C   UNL     1       1.174   1.780   0.000  0.00  0.00    +0.025 A 
ATOM      4  C   UNL     1       1.165   3.170   0.002  0.00  0.00    +0.031 A 
ATOM      5  C   UNL     1      -0.061   3.845   0.009  0.00  0.00    -0.018 A 
ATOM      6  C   UNL     1      -1.240   3.132   0.024  0.00  0.00    +0.034 A 
ATOM      7  C   UNL     1      -0.027   5.323  -0.012  0.00  0.00    +0.049 C 
ATOM      8  C   UNL     1      -1.133   6.142   0.547  0.00  0.00    -0.023 C 
ATOM      9  C   UNL     1      -0.626   7.275   1.017  0.00  0.00    -0.030 C 
ATOM     10  C   UNL     1       0.893   7.284   0.834  0.00  0.00    +0.033 C 
ATOM     11  C   UNL     1       1.211   5.783   0.815  0.00  0.00    +0.029 C 
ATOM     12  C   UNL     1       2.421   5.341   0.012  0.00  0.00    +0.108 C 
ATOM     13  N   UNL     1       2.382   3.863   0.013  0.00  0.00    -0.336 N 
ATOM     14  H   UNL     1       3.319   3.287   0.024  0.00  0.00    +0.147 HD
ENDROOT
BRANCH  12  15
ATOM     15  C   UNL     1       3.687   5.829   0.668  0.00  0.00    +0.015 A 
ATOM     16  C   UNL     1       4.394   4.995   1.512  0.00  0.00    +0.024 A 
ATOM     17  C   UNL     1       5.557   5.442   2.114  0.00  0.00    +0.018 A 
ATOM     18  C   UNL     1       6.014   6.725   1.872  0.00  0.00    +0.019 A 
ATOM     19  C   UNL     1       5.310   7.562   1.029  0.00  0.00    +0.047 A 
ATOM     20  C   UNL     1       4.147   7.114   0.419  0.00  0.00    +0.122 A 
ATOM     21 BR   UNL     1       6.522   4.297   3.269  0.00  0.00    -0.050 Br
BRANCH  20  22
ATOM     22  O   UNL     1       3.456   7.934  -0.415  0.00  0.00    -0.506 OA
ATOM     23  H   UNL     1       3.821   8.953  -0.612  0.00  0.00    +0.292 HD
ENDBRANCH  20  22
ENDBRANCH  12  15
BRANCH   1  24
ATOM     24  S   UNL     1      -2.733   0.846   0.028  0.00  0.00    +0.061 S 
ATOM     25  O   UNL     1      -3.724   1.707  -0.515  0.00  0.00    -0.153 OA
ATOM     26  O   UNL     1      -2.447  -0.431  -0.526  0.00  0.00    -0.153 OA
BRANCH  24  31
ATOM     27  C   UNL     1      -2.452   0.984   5.734  0.00  0.00    -0.096 C 
ATOM     28  N   UNL     1      -2.969   0.683   4.392  0.00  0.00    +0.380 N 
ATOM     29  C   UNL     1      -3.274   1.917   3.656  0.00  0.00    -0.062 C 
ATOM     30  C   UNL     1      -3.976   1.562   2.340  0.00  0.00    +0.091 C 
ATOM     31  N   UNL     1      -3.142   0.594   1.612  0.00  0.00    -0.180 NA
ATOM     32  C   UNL     1      -2.686  -0.608   2.327  0.00  0.00    +0.091 C 
ATOM     33  C   UNL     1      -2.030  -0.166   3.645  0.00  0.00    -0.062 C 
ATOM     34  H   UNL     1      -3.908   0.121   4.508  0.00  0.00    -0.082 HD
ENDBRANCH  24  31
ENDBRANCH   1  24
TORSDOF 4
