REMARK  Name = ZINC00626542
REMARK  11 active torsions:
REMARK  status: ('A' for Active; 'I' for Inactive)
REMARK    1  A    between atoms: N_14  and  C_15
REMARK    2  A    between atoms: C_15  and  C_16
REMARK    3  A    between atoms: C_16  and  C_18
REMARK    4  A    between atoms: C_16  and  O_25
REMARK    5  A    between atoms: C_18  and  N_48
REMARK    6  A    between atoms: C_19  and  C_20
REMARK    7  A    between atoms: C_19  and  N_48
REMARK    8  A    between atoms: C_20  and  O_21
REMARK    9  A    between atoms: C_22  and  C_23
REMARK   10  A    between atoms: C_22  and  N_48
REMARK   11  A    between atoms: C_23  and  O_24
REMARK                            x       y       z     vdW  Elec       q    Type
REMARK                         _______ _______ _______ _____ _____    ______ ____
ROOT
ATOM      1  C   UNL     1       2.027   4.238  -0.929  0.00  0.00    +0.022 A 
ATOM      2  C   UNL     1       0.695   4.572  -0.813  0.00  0.00    +0.028 A 
ATOM      3  C   UNL     1      -0.285   3.602  -1.002  0.00  0.00    +0.050 A 
ATOM      4  C   UNL     1       0.098   2.290  -1.317  0.00  0.00    +0.009 A 
ATOM      5  C   UNL     1       1.448   1.964  -1.425  0.00  0.00    +0.030 A 
ATOM      6  C   UNL     1       2.405   2.939  -1.234  0.00  0.00    +0.042 A 
ATOM      7 CL   UNL     1       4.088   2.538  -1.376  0.00  0.00    -0.084 Cl
ATOM      8  C   UNL     1      -1.147   1.511  -1.449  0.00  0.00    +0.009 A 
ATOM      9  C   UNL     1      -1.416   0.176  -1.742  0.00  0.00    +0.030 A 
ATOM     10  C   UNL     1      -2.722  -0.263  -1.801  0.00  0.00    +0.042 A 
ATOM     11  C   UNL     1      -3.767   0.620  -1.570  0.00  0.00    +0.022 A 
ATOM     12  C   UNL     1      -3.514   1.943  -1.279  0.00  0.00    +0.028 A 
ATOM     13  C   UNL     1      -2.203   2.405  -1.215  0.00  0.00    +0.050 A 
ATOM     14  N   UNL     1      -1.667   3.653  -0.949  0.00  0.00    -0.337 N 
ATOM     15 CL   UNL     1      -3.060  -1.926  -2.166  0.00  0.00    -0.084 Cl
ENDROOT
BRANCH  14  16
ATOM     16  C   UNL     1      -2.450   4.855  -0.654  0.00  0.00    +0.151 C 
BRANCH  16  17
ATOM     17  C   UNL     1      -2.765   5.591  -1.958  0.00  0.00    +0.118 C 
BRANCH  17  18
ATOM     18  O   UNL     1      -3.613   4.778  -2.771  0.00  0.00    -0.392 OA
ATOM     19  H   UNL     1      -4.459   4.554  -2.358  0.00  0.00    +0.210 HD
ENDBRANCH  17  18
BRANCH  17  20
ATOM     20  C   UNL     1      -3.475   6.909  -1.640  0.00  0.00    -0.045 C 
BRANCH  20  21
ATOM     21  N   UNL     1      -3.612   7.685  -2.891  0.00  0.00    +0.384 N 
ATOM     22  H   UNL     1      -2.748   7.594  -3.437  0.00  0.00    -0.082 HD
BRANCH  21  23
ATOM     23  C   UNL     1      -4.741   7.163  -3.688  0.00  0.00    -0.050 C 
BRANCH  23  24
ATOM     24  C   UNL     1      -6.046   7.253  -2.895  0.00  0.00    +0.137 C 
BRANCH  24  25
ATOM     25  O   UNL     1      -6.444   8.621  -2.787  0.00  0.00    -0.397 OA
ATOM     26  H   UNL     1      -7.266   8.754  -2.294  0.00  0.00    +0.209 HD
ENDBRANCH  24  25
ENDBRANCH  23  24
ENDBRANCH  21  23
BRANCH  21  27
ATOM     27  C   UNL     1      -3.833   9.113  -2.577  0.00  0.00    -0.050 C 
BRANCH  27  28
ATOM     28  C   UNL     1      -3.632   9.933  -3.853  0.00  0.00    +0.137 C 
BRANCH  28  29
ATOM     29  O   UNL     1      -4.687   9.648  -4.774  0.00  0.00    -0.397 OA
ATOM     30  H   UNL     1      -4.583  10.076  -5.635  0.00  0.00    +0.209 HD
ENDBRANCH  28  29
ENDBRANCH  27  28
ENDBRANCH  21  27
ENDBRANCH  20  21
ENDBRANCH  17  20
ENDBRANCH  16  17
ENDBRANCH  14  16
TORSDOF 11
