REMARK  Name = ZINC35991953
REMARK  9 active torsions:
REMARK  status: ('A' for Active; 'I' for Inactive)
REMARK    1  A    between atoms: C_1  and  C_2
REMARK    2  A    between atoms: C_2  and  O_3
REMARK    3  A    between atoms: O_3  and  C_4
REMARK    4  A    between atoms: C_4  and  C_6
REMARK    5  A    between atoms: C_7  and  C_22
REMARK    6  A    between atoms: N_8  and  C_21
REMARK    7  A    between atoms: C_12  and  C_14
REMARK    8  A    between atoms: C_22  and  N_23
REMARK    9  A    between atoms: C_29  and  C_31
REMARK                            x       y       z     vdW  Elec       q    Type
REMARK                         _______ _______ _______ _____ _____    ______ ____
ROOT
ATOM      1  C   UNL     1       1.117  -3.214  -3.514  0.00  0.00    +0.080 C 
ATOM      2  C   UNL     1       1.228  -4.548  -3.337  0.00  0.00    +0.041 C 
ATOM      3  N   UNL     1       1.771  -5.346  -4.304  0.00  0.00    -0.260 N 
ATOM      4  C   UNL     1       2.227  -4.886  -5.476  0.00  0.00    +0.307 C 
ATOM      5  O   UNL     1       2.694  -5.673  -6.275  0.00  0.00    -0.252 OA
ATOM      6  N   UNL     1       2.184  -3.578  -5.799  0.00  0.00    -0.288 N 
ATOM      7  C   UNL     1       1.610  -2.634  -4.825  0.00  0.00    +0.146 C 
ATOM      8  C   UNL     1       1.861  -6.784  -4.044  0.00  0.00    +0.139 C 
ATOM      9  H   UNL     1       2.520  -3.266  -6.654  0.00  0.00    +0.151 HD
ENDROOT
BRANCH   7  10
ATOM     10  C   UNL     1       0.454  -1.925  -5.483  0.00  0.00    +0.013 A 
ATOM     11  C   UNL     1      -0.326  -2.589  -6.410  0.00  0.00    +0.008 A 
ATOM     12  C   UNL     1      -1.387  -1.940  -7.014  0.00  0.00    +0.001 A 
ATOM     13  C   UNL     1      -1.668  -0.625  -6.691  0.00  0.00    +0.003 A 
ATOM     14  C   UNL     1      -0.889   0.041  -5.763  0.00  0.00    +0.039 A 
ATOM     15  C   UNL     1       0.170  -0.611  -5.154  0.00  0.00    +0.129 A 
ATOM     16  F   UNL     1       0.929   0.038  -4.244  0.00  0.00    -0.205 F 
ENDBRANCH   7  10
BRANCH   1  17
ATOM     17  C   UNL     1       0.555  -2.388  -2.514  0.00  0.00    +0.339 C 
ATOM     18  O   UNL     1       1.280  -1.751  -1.772  0.00  0.00    -0.245 OA
BRANCH  17  19
ATOM     19  O   UNL     1      -0.786  -2.305  -2.382  0.00  0.00    -0.462 OA
BRANCH  19  21
ATOM     20  C   UNL     1      -2.814  -1.486  -1.355  0.00  0.00    +0.048 C 
ATOM     21  C   UNL     1      -1.284  -1.451  -1.351  0.00  0.00    +0.229 C 
ENDBRANCH  19  21
ENDBRANCH  17  19
ENDBRANCH   1  17
BRANCH   2  22
ATOM     22  C   UNL     1       0.746  -5.168  -2.050  0.00  0.00    +0.136 C 
BRANCH  22  23
ATOM     23  N   UNL     1      -0.396  -6.049  -2.329  0.00  0.00    -0.294 NA
ATOM     24  C   UNL     1      -1.551  -5.279  -2.809  0.00  0.00    +0.104 C 
ATOM     25  C   UNL     1      -2.653  -6.243  -3.259  0.00  0.00    +0.123 C 
ATOM     26  N   UNL     1      -2.940  -7.172  -2.155  0.00  0.00    -0.295 N 
ATOM     27  C   UNL     1      -1.813  -7.879  -1.529  0.00  0.00    +0.123 C 
ATOM     28  C   UNL     1      -0.743  -6.850  -1.148  0.00  0.00    +0.104 C 
ATOM     29  C   UNL     1      -4.203  -7.369  -1.728  0.00  0.00    +0.248 C 
ATOM     30  O   UNL     1      -4.432  -8.198  -0.869  0.00  0.00    -0.270 OA
BRANCH  29  31
ATOM     31  C   UNL     1      -5.310  -6.577  -2.303  0.00  0.00    +0.055 A 
ATOM     32  C   UNL     1      -5.491  -6.528  -3.687  0.00  0.00    +0.014 A 
ATOM     33  C   UNL     1      -6.526  -5.787  -4.218  0.00  0.00    +0.001 A 
ATOM     34  C   UNL     1      -7.385  -5.093  -3.383  0.00  0.00    +0.001 A 
ATOM     35  C   UNL     1      -7.213  -5.137  -2.012  0.00  0.00    +0.021 A 
ATOM     36  C   UNL     1      -6.184  -5.880  -1.466  0.00  0.00    +0.053 A 
ATOM     37 CL   UNL     1      -5.973  -5.940   0.256  0.00  0.00    -0.083 Cl
ENDBRANCH  29  31
ENDBRANCH  22  23
ENDBRANCH   2  22
TORSDOF 7
