REMARK  Name = ZINC32797263
REMARK  7 active torsions:
REMARK  status: ('A' for Active; 'I' for Inactive)
REMARK    1  A    between atoms: C_1  and  C_2
REMARK    2  A    between atoms: C_2  and  C_3
REMARK    3  A    between atoms: C_3  and  C_5
REMARK    4  A    between atoms: C_3  and  N_15
REMARK    5  A    between atoms: N_18  and  C_19
REMARK    6  A    between atoms: C_22  and  S_25
REMARK    7  A    between atoms: S_25  and  N_28
REMARK                            x       y       z     vdW  Elec       q    Type
REMARK                         _______ _______ _______ _____ _____    ______ ____
ROOT
ATOM      1  N   UNL     1      -0.963   3.506  -3.720  0.00  0.00    -0.296 N 
ATOM      2  C   UNL     1      -1.090   4.197  -4.870  0.00  0.00    +0.304 C 
ATOM      3  O   UNL     1      -1.337   3.613  -5.907  0.00  0.00    -0.253 OA
ATOM      4  N   UNL     1      -0.943   5.537  -4.870  0.00  0.00    -0.269 N 
ATOM      5  H   UNL     1      -0.739   4.035  -2.782  0.00  0.00    +0.151 HD
ATOM      6  H   UNL     1      -0.806   6.075  -3.921  0.00  0.00    +0.156 HD
ENDROOT
BRANCH   4   7
ATOM      7  C   UNL     1      -0.964   6.243  -6.078  0.00  0.00    +0.035 A 
ATOM      8  C   UNL     1      -0.454   5.663  -7.232  0.00  0.00    +0.025 A 
ATOM      9  C   UNL     1      -0.480   6.361  -8.424  0.00  0.00    +0.030 A 
ATOM     10  C   UNL     1      -1.004   7.640  -8.466  0.00  0.00    +0.105 A 
ATOM     11  C   UNL     1      -1.508   8.222  -7.318  0.00  0.00    +0.030 A 
ATOM     12  C   UNL     1      -1.490   7.528  -6.124  0.00  0.00    +0.025 A 
BRANCH  10  13
ATOM     13  S   UNL     1      -1.031   8.529  -9.987  0.00  0.00    +0.056 S 
ATOM     14  O   UNL     1      -1.000   7.559 -11.025  0.00  0.00    -0.153 OA
ATOM     15  O   UNL     1      -2.069   9.493  -9.876  0.00  0.00    -0.153 OA
BRANCH  13  16
ATOM     16  N   UNL     1       0.390   9.373 -10.086  0.00  0.00    -0.204 NA
ATOM     17  H   UNL     1       0.413   9.944 -11.026  0.00  0.00    +0.144 HD
ATOM     18  H   UNL     1       1.236   8.671 -10.063  0.00  0.00    +0.144 HD
ENDBRANCH  13  16
ENDBRANCH  10  13
ENDBRANCH   4   7
BRANCH   1  19
ATOM     19  C   UNL     1      -1.123   2.049  -3.720  0.00  0.00    +0.080 C 
BRANCH  19  20
ATOM     20  C   UNL     1      -0.357   1.452  -2.538  0.00  0.00    -0.010 C 
ATOM     21  C   UNL     1      -0.909   2.026  -1.231  0.00  0.00    +0.012 C 
ATOM     22  C   UNL     1      -0.143   1.429  -0.049  0.00  0.00    -0.010 C 
ATOM     23  C   UNL     1       1.341   1.779  -0.173  0.00  0.00    +0.007 C 
ATOM     24  C   UNL     1       1.893   1.205  -1.480  0.00  0.00    -0.010 C 
ATOM     25  C   UNL     1       1.127   1.802  -2.663  0.00  0.00    +0.012 C 
ATOM     26  C   UNL     1       1.725  -0.316  -1.480  0.00  0.00    +0.007 C 
ATOM     27  C   UNL     1       0.241  -0.666  -1.355  0.00  0.00    -0.010 C 
ATOM     28  C   UNL     1      -0.310  -0.092  -0.049  0.00  0.00    +0.007 C 
ATOM     29  C   UNL     1      -0.525  -0.069  -2.538  0.00  0.00    +0.012 C 
ENDBRANCH  19  20
BRANCH  19  31
ATOM     30  C   UNL     1      -3.353   2.189  -4.839  0.00  0.00    +0.006 C 
ATOM     31  C   UNL     1      -2.608   1.700  -3.595  0.00  0.00    +0.019 C 
ENDBRANCH  19  31
ENDBRANCH   1  19
TORSDOF 6
