REMARK  Name = ZINC09516272
REMARK  12 active torsions:
REMARK  status: ('A' for Active; 'I' for Inactive)
REMARK    1  A    between atoms: C_1  and  C_2
REMARK    2  A    between atoms: C_5  and  C_34
REMARK    3  A    between atoms: C_6  and  N_8
REMARK    4  A    between atoms: C_9  and  C_11
REMARK    5  A    between atoms: C_11  and  C_13
REMARK    6  A    between atoms: C_11  and  N_65
REMARK    7  A    between atoms: C_19  and  C_20
REMARK    8  A    between atoms: C_19  and  N_65
REMARK    9  A    between atoms: C_21  and  C_33
REMARK   10  A    between atoms: N_23  and  C_26
REMARK   11  A    between atoms: C_24  and  C_25
REMARK   12  A    between atoms: C_26  and  C_27
REMARK                            x       y       z     vdW  Elec       q    Type
REMARK                         _______ _______ _______ _____ _____    ______ ____
ROOT
ATOM      1  C   UNL     1      -4.315   7.919  -5.450  0.00  0.00    +0.048 C 
ENDROOT
BRANCH   1   2
ATOM      2  C   UNL     1      -3.386   9.054  -5.103  0.00  0.00    -0.053 A 
ATOM      3  C   UNL     1      -3.370   9.565  -3.819  0.00  0.00    +0.002 A 
ATOM      4  C   UNL     1      -2.515  10.603  -3.499  0.00  0.00    +0.000 A 
ATOM      5  C   UNL     1      -1.683  11.136  -4.465  0.00  0.00    +0.000 A 
ATOM      6  C   UNL     1      -1.702  10.628  -5.750  0.00  0.00    +0.000 A 
ATOM      7  C   UNL     1      -2.554   9.587  -6.069  0.00  0.00    +0.002 A 
ENDBRANCH   1   2
BRANCH   1   9
ATOM      8  N   UNL     1      -5.919   9.366  -6.655  0.00  0.00    -0.286 N 
ATOM      9  C   UNL     1      -5.702   8.458  -5.683  0.00  0.00    +0.207 C 
ATOM     10  O   UNL     1      -6.625   8.076  -4.994  0.00  0.00    -0.277 OA
ATOM     11  H   UNL     1      -5.171   9.731  -7.153  0.00  0.00    +0.155 HD
BRANCH   8  17
ATOM     12  C   UNL     1     -10.752   8.468  -6.625  0.00  0.00    +0.044 C 
ATOM     13  C   UNL     1      -9.584   9.365  -6.944  0.00  0.00    -0.049 A 
ATOM     14  C   UNL     1      -9.801  10.601  -7.526  0.00  0.00    +0.004 A 
ATOM     15  C   UNL     1      -8.732  11.427  -7.820  0.00  0.00    +0.005 A 
ATOM     16  C   UNL     1      -7.444  11.023  -7.527  0.00  0.00    -0.029 A 
ATOM     17  C   UNL     1      -7.223   9.780  -6.948  0.00  0.00    +0.037 A 
ATOM     18  C   UNL     1      -8.299   8.953  -6.654  0.00  0.00    +0.027 A 
ATOM     19  C   UNL     1      -6.280  11.927  -7.842  0.00  0.00    +0.045 C 
ENDBRANCH   8  17
ENDBRANCH   1   9
BRANCH   1  20
ATOM     20  N   UNL     1      -4.351   6.953  -4.336  0.00  0.00    +0.392 N 
ATOM     21  H   UNL     1      -5.240   6.441  -4.361  0.00  0.00    -0.084 HD
ATOM     22  H   UNL     1      -4.272   7.459  -3.446  0.00  0.00    -0.084 HD
BRANCH  20  23
ATOM     23  C   UNL     1      -3.235   5.996  -4.452  0.00  0.00    -0.042 C 
BRANCH  23  24
ATOM     24  C   UNL     1      -3.297   5.023  -3.302  0.00  0.00    -0.021 A 
ATOM     25  C   UNL     1      -3.985   3.805  -3.291  0.00  0.00    +0.062 A 
ATOM     26  N   UNL     1      -3.804   3.245  -2.122  0.00  0.00    -0.176 NA
ATOM     27  N   UNL     1      -2.995   4.090  -1.352  0.00  0.00    -0.264 N 
ATOM     28  C   UNL     1      -2.702   5.177  -2.096  0.00  0.00    +0.038 A 
ATOM     29  C   UNL     1      -1.860   6.349  -1.664  0.00  0.00    +0.065 C 
ATOM     30  C   UNL     1      -4.793   3.236  -4.428  0.00  0.00    +0.068 C 
BRANCH  27  31
ATOM     31  C   UNL     1      -2.550   3.841   0.021  0.00  0.00    +0.178 C 
BRANCH  31  32
ATOM     32  C   UNL     1      -1.240   3.097  -0.002  0.00  0.00    -0.026 A 
ATOM     33  C   UNL     1      -1.230   1.715  -0.016  0.00  0.00    +0.005 A 
ATOM     34  C   UNL     1      -0.027   1.033  -0.033  0.00  0.00    +0.000 A 
ATOM     35  C   UNL     1       1.165   1.733  -0.046  0.00  0.00    +0.000 A 
ATOM     36  C   UNL     1       1.154   3.116  -0.037  0.00  0.00    +0.000 A 
ATOM     37  C   UNL     1      -0.048   3.798  -0.015  0.00  0.00    +0.005 A 
ENDBRANCH  31  32
ENDBRANCH  27  31
ENDBRANCH  23  24
ENDBRANCH  20  23
ENDBRANCH   1  20
TORSDOF 8
