REMARK  Name = ZINC22793689
REMARK  9 active torsions:
REMARK  status: ('A' for Active; 'I' for Inactive)
REMARK    1  A    between atoms: C_1  and  C_2
REMARK    2  A    between atoms: C_4  and  C_17
REMARK    3  A    between atoms: C_5  and  C_16
REMARK    4  A    between atoms: N_6  and  C_7
REMARK    5  A    between atoms: C_17  and  C_19
REMARK    6  A    between atoms: C_19  and  N_20
REMARK    7  A    between atoms: N_23  and  C_26
REMARK    8  A    between atoms: C_26  and  C_27
REMARK    9  A    between atoms: N_29  and  C_30
REMARK                            x       y       z     vdW  Elec       q    Type
REMARK                         _______ _______ _______ _____ _____    ______ ____
ROOT
ATOM      1  C   UNL     1       6.642   4.593  -1.795  0.00  0.00    +0.164 C 
ENDROOT
BRANCH   1   2
ATOM      2  N   UNL     1       5.671   3.516  -1.559  0.00  0.00    -0.299 NA
ATOM      3  C   UNL     1       5.753   3.026  -0.176  0.00  0.00    +0.066 C 
ATOM      4  C   UNL     1       4.784   1.856   0.007  0.00  0.00    -0.063 C 
ATOM      5  N   UNL     1       3.419   2.299  -0.312  0.00  0.00    +0.387 N 
ATOM      6  C   UNL     1       3.337   2.788  -1.695  0.00  0.00    -0.063 C 
ATOM      7  C   UNL     1       4.306   3.959  -1.878  0.00  0.00    +0.066 C 
ATOM      8  H   UNL     1       3.167   3.133   0.359  0.00  0.00    -0.081 HD
BRANCH   5   9
ATOM      9  C   UNL     1       2.448   1.222  -0.076  0.00  0.00    +0.019 C 
BRANCH   9  10
ATOM     10  C   UNL     1       1.050   1.777  -0.174  0.00  0.00    +0.201 C 
ATOM     11  O   UNL     1       0.880   2.953  -0.417  0.00  0.00    -0.278 OA
ATOM     12  N   UNL     1      -0.011   0.966   0.007  0.00  0.00    -0.287 N 
ATOM     13  H   UNL     1       0.140  -0.115   0.144  0.00  0.00    +0.155 HD
BRANCH  12  14
ATOM     14  C   UNL     1      -1.306   1.499   0.022  0.00  0.00    +0.033 A 
ATOM     15  C   UNL     1      -1.528   2.770   0.536  0.00  0.00    +0.026 A 
ATOM     16  C   UNL     1      -2.805   3.296   0.545  0.00  0.00    +0.040 A 
ATOM     17  C   UNL     1      -3.865   2.553   0.052  0.00  0.00    +0.124 A 
ATOM     18  C   UNL     1      -3.646   1.284  -0.456  0.00  0.00    +0.040 A 
ATOM     19  C   UNL     1      -2.369   0.756  -0.472  0.00  0.00    +0.026 A 
ATOM     20  F   UNL     1      -5.114   3.068   0.066  0.00  0.00    -0.205 F 
ENDBRANCH  12  14
ENDBRANCH   9  10
ENDBRANCH   5   9
ENDBRANCH   1   2
BRANCH   1  21
ATOM     21  C   UNL     1       6.704   4.899  -3.269  0.00  0.00    +0.179 C 
ATOM     22  O   UNL     1       6.006   4.282  -4.047  0.00  0.00    -0.291 OA
BRANCH  21  26
ATOM     23  C   UNL     1      10.168   8.631  -3.466  0.00  0.00    +0.064 C 
ATOM     24  C   UNL     1       9.138   7.592  -3.831  0.00  0.00    +0.022 A 
ATOM     25  C   UNL     1       8.511   6.780  -2.965  0.00  0.00    +0.034 A 
ATOM     26  C   UNL     1       7.604   5.943  -3.763  0.00  0.00    +0.040 A 
ATOM     27  C   UNL     1       7.781   6.338  -5.076  0.00  0.00    +0.031 A 
ATOM     28  N   UNL     1       8.695   7.327  -5.097  0.00  0.00    -0.317 N 
ATOM     29  C   UNL     1       7.071   5.765  -6.275  0.00  0.00    +0.064 C 
BRANCH  28  30
ATOM     30  C   UNL     1       9.134   7.987  -6.254  0.00  0.00    +0.050 A 
ATOM     31  C   UNL     1       9.831   7.287  -7.230  0.00  0.00    +0.030 A 
ATOM     32  C   UNL     1      10.263   7.936  -8.370  0.00  0.00    +0.051 A 
ATOM     33  C   UNL     1      10.004   9.286  -8.543  0.00  0.00    +0.166 A 
ATOM     34  C   UNL     1       9.306   9.991  -7.565  0.00  0.00    +0.168 A 
ATOM     35  C   UNL     1       8.867   9.338  -6.425  0.00  0.00    +0.075 A 
ATOM     36  O   UNL     1       9.180  11.289  -7.969  0.00  0.00    -0.453 OA
ATOM     37  C   UNL     1      10.160  11.465  -9.009  0.00  0.00    +0.466 C 
ATOM     38  O   UNL     1      10.315  10.143  -9.560  0.00  0.00    -0.453 OA
ENDBRANCH  28  30
ENDBRANCH  21  26
ENDBRANCH   1  21
TORSDOF 7
