REMARK  Name = ZINC40999282
REMARK  4 active torsions:
REMARK  status: ('A' for Active; 'I' for Inactive)
REMARK    1  A    between atoms: C_1  and  N_2
REMARK    2  A    between atoms: N_2  and  C_3
REMARK    3  A    between atoms: N_2  and  C_10
REMARK    4  A    between atoms: C_8  and  N_9
REMARK                            x       y       z     vdW  Elec       q    Type
REMARK                         _______ _______ _______ _____ _____    ______ ____
ROOT
ATOM      1  C   UNL     1       0.023  -0.718   1.222  0.00  0.00    +0.087 A 
ATOM      2  C   UNL     1      -1.095  -1.149   1.945  0.00  0.00    +0.127 A 
ATOM      3  N   UNL     1      -0.679  -1.774   3.018  0.00  0.00    -0.304 N 
ATOM      4  H   UNL     1       1.293  -2.156   3.701  0.00  0.00    +0.188 HD
ATOM      5  N   UNL     1       0.721  -1.764   3.023  0.00  0.00    -0.286 N 
ATOM      6  C   UNL     1       1.137  -1.113   1.903  0.00  0.00    +0.131 A 
ATOM      7  H   UNL     1      -1.246  -2.175   3.696  0.00  0.00    +0.186 HD
ENDROOT
BRANCH   6   8
ATOM      8  N   UNL     1       2.462  -0.887   1.522  0.00  0.00    -0.342 N 
ATOM      9  H   UNL     1       2.656  -0.407   0.702  0.00  0.00    +0.144 HD
ATOM     10  H   UNL     1       3.189  -1.210   2.078  0.00  0.00    +0.144 HD
ENDBRANCH   6   8
BRANCH   1  12
ATOM     11  C   UNL     1      -0.018   1.461   0.010  0.00  0.00    +0.129 C 
ATOM     12  N   UNL     1       0.002  -0.004   0.002  0.00  0.00    -0.325 N 
BRANCH  12  13
ATOM     13  C   UNL     1      -0.000  -0.730  -1.271  0.00  0.00    +0.084 C 
ATOM     14  C   UNL     1       1.273  -0.376  -2.038  0.00  0.00    +0.034 C 
ATOM     15  C   UNL     1       1.031  -0.498  -3.568  0.00  0.00    +0.071 C 
ATOM     16  S   UNL     1      -0.675   0.200  -3.667  0.00  0.00    -0.159 S 
ATOM     17  C   UNL     1      -1.292  -0.381  -2.036  0.00  0.00    +0.091 C 
ENDBRANCH  12  13
ENDBRANCH   1  12
TORSDOF 3
