REMARK  Name = ZINC19535606
REMARK  11 active torsions:
REMARK  status: ('A' for Active; 'I' for Inactive)
REMARK    1  A    between atoms: C_1  and  C_2
REMARK    2  A    between atoms: C_4  and  C_24
REMARK    3  A    between atoms: C_5  and  N_9
REMARK    4  A    between atoms: C_6  and  C_8
REMARK    5  A    between atoms: C_10  and  C_12
REMARK    6  A    between atoms: C_12  and  N_13
REMARK    7  A    between atoms: N_13  and  C_14
REMARK    8  A    between atoms: C_16  and  C_22
REMARK    9  A    between atoms: C_16  and  C_23
REMARK   10  A    between atoms: C_18  and  C_20
REMARK   11  A    between atoms: C_18  and  C_21
REMARK                            x       y       z     vdW  Elec       q    Type
REMARK                         _______ _______ _______ _____ _____    ______ ____
ROOT
ATOM      1  C   UNL     1      -0.005  -6.563   0.900  0.00  0.00    +0.178 C 
ENDROOT
BRANCH   1   3
ATOM      2  N   UNL     1      -0.458  -4.356  -0.121  0.00  0.00    -0.284 N 
ATOM      3  C   UNL     1      -0.008  -5.057   0.939  0.00  0.00    +0.231 C 
ATOM      4  O   UNL     1       0.394  -4.475   1.924  0.00  0.00    -0.274 OA
ATOM      5  H   UNL     1      -0.855  -4.819  -0.875  0.00  0.00    +0.155 HD
BRANCH   2  10
ATOM      6  C   UNL     1      -0.033   1.301  -0.172  0.00  0.00    +0.044 C 
ATOM      7  C   UNL     1      -0.146  -0.202  -0.158  0.00  0.00    -0.050 A 
ATOM      8  C   UNL     1       0.423  -0.946  -1.176  0.00  0.00    +0.008 A 
ATOM      9  C   UNL     1       0.322  -2.323  -1.166  0.00  0.00    -0.029 A 
ATOM     10  C   UNL     1      -0.353  -2.961  -0.133  0.00  0.00    +0.039 A 
ATOM     11  C   UNL     1      -0.923  -2.211   0.887  0.00  0.00    -0.029 A 
ATOM     12  C   UNL     1      -0.813  -0.835   0.875  0.00  0.00    +0.008 A 
ATOM     13  C   UNL     1      -1.656  -2.900   2.010  0.00  0.00    +0.045 C 
ATOM     14  C   UNL     1       0.941  -3.133  -2.276  0.00  0.00    +0.045 C 
ENDBRANCH   2  10
ENDBRANCH   1   3
BRANCH   1  15
ATOM     15  N   UNL     1       0.528  -7.085   2.166  0.00  0.00    -0.306 NA
ATOM     16  H   UNL     1       1.447  -6.712   2.352  0.00  0.00    +0.123 HD
BRANCH  15  17
ATOM     17  C   UNL     1       0.546  -8.557   2.164  0.00  0.00    +0.052 C 
ATOM     18  C   UNL     1      -0.811  -9.076   2.642  0.00  0.00    +0.006 C 
ATOM     19  C   UNL     1      -0.805 -10.605   2.658  0.00  0.00    -0.072 C 
ATOM     20  N   UNL     1       0.303 -11.140   3.436  0.00  0.00    +0.386 N 
ATOM     21  C   UNL     1       1.623 -10.572   3.211  0.00  0.00    -0.072 C 
ATOM     22  C   UNL     1       1.617  -9.049   3.137  0.00  0.00    +0.006 C 
ATOM     23  C   UNL     1       2.284 -11.153   1.958  0.00  0.00    -0.010 C 
ATOM     24  C   UNL     1       2.510 -10.969   4.415  0.00  0.00    -0.010 C 
ATOM     25  C   UNL     1      -0.821 -11.148   1.230  0.00  0.00    -0.010 C 
ATOM     26  C   UNL     1      -2.116 -11.062   3.338  0.00  0.00    -0.010 C 
ATOM     27  H   UNL     1       0.075 -11.042   4.428  0.00  0.00    -0.084 HD
ATOM     28  H   UNL     1       0.353 -12.148   3.271  0.00  0.00    -0.084 HD
ENDBRANCH  15  17
ENDBRANCH   1  15
TORSDOF 4
