REMARK  Name = ZINC08296393
REMARK  6 active torsions:
REMARK  status: ('A' for Active; 'I' for Inactive)
REMARK    1  A    between atoms: C_1  and  O_2
REMARK    2  A    between atoms: O_2  and  C_3
REMARK    3  A    between atoms: C_8  and  N_9
REMARK    4  A    between atoms: C_23  and  C_28
REMARK    5  A    between atoms: C_33  and  C_34
REMARK    6  A    between atoms: C_34  and  N_72
REMARK                            x       y       z     vdW  Elec       q    Type
REMARK                         _______ _______ _______ _____ _____    ______ ____
ROOT
ATOM      1  N   UNL     1      -1.154  -0.700   3.639  0.00  0.00    -0.266 N 
ATOM      2  C   UNL     1      -0.057  -1.380   3.251  0.00  0.00    +0.307 C 
ATOM      3  O   UNL     1       0.998  -1.215   3.833  0.00  0.00    -0.252 OA
ATOM      4  N   UNL     1      -0.129  -2.243   2.218  0.00  0.00    -0.284 N 
ATOM      5  C   UNL     1      -1.415  -2.539   1.576  0.00  0.00    +0.114 C 
ATOM      6  C   UNL     1      -1.298  -2.387   0.066  0.00  0.00    +0.027 C 
ATOM      7  C   UNL     1      -0.091  -3.155  -0.472  0.00  0.00    +0.018 C 
ATOM      8  C   UNL     1       1.169  -2.609   0.203  0.00  0.00    +0.054 C 
ATOM      9  C   UNL     1       1.080  -2.910   1.709  0.00  0.00    +0.119 C 
ATOM     10  C   UNL     1       1.228  -1.107   0.037  0.00  0.00    +0.027 A 
ATOM     11  C   UNL     1       2.458  -0.526   0.083  0.00  0.00    +0.022 A 
ATOM     12  C   UNL     1       2.595   0.862   0.045  0.00  0.00    +0.015 A 
ATOM     13  C   UNL     1       1.450   1.641  -0.029  0.00  0.00    +0.047 A 
ATOM     14  C   UNL     1       0.194   0.997  -0.090  0.00  0.00    +0.259 A 
ATOM     15  O   UNL     1      -0.826   1.664  -0.124  0.00  0.00    -0.267 OA
ATOM     16  N   UNL     1       0.112  -0.357  -0.117  0.00  0.00    -0.311 N 
ATOM     17  C   UNL     1      -1.212  -0.931  -0.355  0.00  0.00    +0.130 C 
ATOM     18  H   UNL     1      -2.010  -0.881   3.220  0.00  0.00    +0.156 HD
ENDROOT
BRANCH   1  24
ATOM     19  C   UNL     1      -2.205   0.712   5.301  0.00  0.00    +0.141 A 
ATOM     20  C   UNL     1      -2.103   1.668   6.299  0.00  0.00    +0.047 A 
ATOM     21  C   UNL     1      -0.867   2.187   6.636  0.00  0.00    +0.004 A 
ATOM     22  C   UNL     1       0.271   1.751   5.983  0.00  0.00    +0.002 A 
ATOM     23  C   UNL     1       0.179   0.795   4.990  0.00  0.00    +0.027 A 
ATOM     24  C   UNL     1      -1.058   0.270   4.646  0.00  0.00    +0.077 A 
BRANCH  19  26
ATOM     25  C   UNL     1      -4.563   0.780   5.601  0.00  0.00    +0.277 C 
ATOM     26  O   UNL     1      -3.421   0.205   4.964  0.00  0.00    -0.493 OA
ENDBRANCH  19  26
ENDBRANCH   1  24
BRANCH  13  27
ATOM     27  C   UNL     1       1.541   3.119  -0.045  0.00  0.00    -0.011 A 
ATOM     28  C   UNL     1       1.297   3.824  -1.224  0.00  0.00    +0.009 A 
ATOM     29  C   UNL     1       1.384   5.200  -1.232  0.00  0.00    +0.001 A 
ATOM     30  C   UNL     1       1.713   5.883  -0.074  0.00  0.00    +0.000 A 
ATOM     31  C   UNL     1       1.956   5.190   1.098  0.00  0.00    +0.002 A 
ATOM     32  C   UNL     1       1.867   3.813   1.120  0.00  0.00    -0.056 A 
BRANCH  32  33
ATOM     33  C   UNL     1       2.127   3.060   2.399  0.00  0.00    -0.042 C 
BRANCH  33  39
ATOM     34  C   UNL     1       4.294   4.030   2.877  0.00  0.00    -0.050 C 
ATOM     35  C   UNL     1       5.044   4.968   3.828  0.00  0.00    +0.141 C 
ATOM     36  O   UNL     1       4.940   4.466   5.163  0.00  0.00    -0.383 OA
ATOM     37  C   UNL     1       3.593   4.335   5.626  0.00  0.00    +0.141 C 
ATOM     38  C   UNL     1       2.829   3.391   4.694  0.00  0.00    -0.050 C 
ATOM     39  N   UNL     1       2.887   3.933   3.319  0.00  0.00    +0.385 N 
ATOM     40  H   UNL     1       2.469   4.870   3.312  0.00  0.00    -0.081 HD
ENDBRANCH  33  39
ENDBRANCH  32  33
ENDBRANCH  13  27
TORSDOF 5
