REMARK  Name = ZINC04349372
REMARK  12 active torsions:
REMARK  status: ('A' for Active; 'I' for Inactive)
REMARK    1  A    between atoms: C_3  and  O_38
REMARK    2  A    between atoms: C_4  and  O_37
REMARK    3  A    between atoms: C_6  and  C_7
REMARK    4  A    between atoms: C_8  and  O_20
REMARK    5  A    between atoms: C_12  and  O_19
REMARK    6  A    between atoms: C_14  and  O_18
REMARK    7  A    between atoms: O_20  and  C_21
REMARK    8  A    between atoms: C_23  and  O_36
REMARK    9  A    between atoms: C_25  and  O_35
REMARK   10  A    between atoms: C_27  and  O_34
REMARK   11  A    between atoms: C_29  and  C_32
REMARK   12  A    between atoms: C_32  and  O_33
REMARK                            x       y       z     vdW  Elec       q    Type
REMARK                         _______ _______ _______ _____ _____    ______ ____
ROOT
ATOM      1  C   UNL     1      -0.070   5.603   0.052  0.00  0.00    +0.181 A 
ATOM      2  C   UNL     1       1.114   6.272   0.127  0.00  0.00    +0.214 A 
ATOM      3  C   UNL     1       1.117   7.691   0.113  0.00  0.00    +0.238 A 
ATOM      4  O   UNL     1       2.159   8.323   0.179  0.00  0.00    -0.283 OA
ATOM      5  C   UNL     1      -0.185   8.370   0.017  0.00  0.00    +0.109 A 
ATOM      6  C   UNL     1      -0.276   9.768  -0.004  0.00  0.00    +0.135 A 
ATOM      7  C   UNL     1      -1.518  10.368  -0.096  0.00  0.00    +0.091 A 
ATOM      8  C   UNL     1      -2.667   9.588  -0.167  0.00  0.00    +0.124 A 
ATOM      9  C   UNL     1      -2.585   8.204  -0.147  0.00  0.00    +0.092 A 
ATOM     10  C   UNL     1      -1.348   7.584  -0.056  0.00  0.00    +0.147 A 
ATOM     11  O   UNL     1      -1.252   6.238  -0.041  0.00  0.00    -0.451 OA
ENDROOT
BRANCH   1  17
ATOM     12  C   UNL     1      -0.789   3.411  -0.881  0.00  0.00    +0.015 A 
ATOM     13  C   UNL     1      -0.775   2.033  -0.865  0.00  0.00    +0.050 A 
ATOM     14  C   UNL     1      -0.033   1.355   0.092  0.00  0.00    +0.158 A 
ATOM     15  C   UNL     1       0.697   2.064   1.045  0.00  0.00    +0.159 A 
ATOM     16  C   UNL     1       0.691   3.445   1.032  0.00  0.00    +0.060 A 
ATOM     17  C   UNL     1      -0.056   4.129   0.067  0.00  0.00    +0.025 A 
BRANCH  15  18
ATOM     18  O   UNL     1       1.417   1.396   1.985  0.00  0.00    -0.503 OA
ATOM     19  H   UNL     1       2.327   1.203   1.719  0.00  0.00    +0.292 HD
ENDBRANCH  15  18
BRANCH  14  20
ATOM     20  O   UNL     1      -0.023  -0.004   0.104  0.00  0.00    -0.503 OA
ATOM     21  H   UNL     1       0.679  -0.397  -0.433  0.00  0.00    +0.292 HD
ENDBRANCH  14  20
ENDBRANCH   1  17
BRANCH   8  22
ATOM     22  O   UNL     1      -3.882  10.187  -0.256  0.00  0.00    -0.507 OA
ATOM     23  H   UNL     1      -4.174  10.352  -1.163  0.00  0.00    +0.292 HD
ENDBRANCH   8  22
BRANCH   6  24
ATOM     24  O   UNL     1       0.847  10.527   0.067  0.00  0.00    -0.506 OA
ATOM     25  H   UNL     1       1.233  10.738  -0.794  0.00  0.00    +0.292 HD
ENDBRANCH   6  24
BRANCH   2  26
ATOM     26  O   UNL     1       2.286   5.584   0.214  0.00  0.00    -0.453 OA
BRANCH  26  27
ATOM     27  C   UNL     1       2.998   5.360  -1.004  0.00  0.00    +0.340 C 
ATOM     28  C   UNL     1       4.338   4.688  -0.696  0.00  0.00    +0.214 C 
ATOM     29  C   UNL     1       5.069   4.396  -2.010  0.00  0.00    +0.180 C 
ATOM     30  C   UNL     1       4.174   3.526  -2.897  0.00  0.00    +0.177 C 
ATOM     31  C   UNL     1       2.840   4.243  -3.121  0.00  0.00    +0.179 C 
ATOM     32  O   UNL     1       2.227   4.512  -1.858  0.00  0.00    -0.331 OA
BRANCH  30  33
ATOM     33  O   UNL     1       4.815   3.308  -4.155  0.00  0.00    -0.386 OA
ATOM     34  H   UNL     1       5.670   2.861  -4.088  0.00  0.00    +0.210 HD
ENDBRANCH  30  33
BRANCH  29  35
ATOM     35  O   UNL     1       5.357   5.625  -2.680  0.00  0.00    -0.386 OA
ATOM     36  H   UNL     1       5.916   6.229  -2.171  0.00  0.00    +0.210 HD
ENDBRANCH  29  35
BRANCH  28  37
ATOM     37  O   UNL     1       5.135   5.558   0.111  0.00  0.00    -0.383 OA
ATOM     38  H   UNL     1       4.730   5.789   0.958  0.00  0.00    +0.210 HD
ENDBRANCH  28  37
BRANCH  31  39
ATOM     39  C   UNL     1       1.917   3.355  -3.957  0.00  0.00    +0.190 C 
BRANCH  39  40
ATOM     40  O   UNL     1       0.718   4.069  -4.264  0.00  0.00    -0.392 OA
ATOM     41  H   UNL     1       0.084   3.565  -4.794  0.00  0.00    +0.210 HD
ENDBRANCH  39  40
ENDBRANCH  31  39
ENDBRANCH  26  27
ENDBRANCH   2  26
TORSDOF 12
