REMARK  Name = ZINC36028095
REMARK  9 active torsions:
REMARK  status: ('A' for Active; 'I' for Inactive)
REMARK    1  A    between atoms: C_1  and  C_2
REMARK    2  A    between atoms: C_2  and  C_3
REMARK    3  A    between atoms: C_3  and  C_5
REMARK    4  A    between atoms: C_3  and  C_6
REMARK    5  A    between atoms: N_10  and  C_27
REMARK    6  A    between atoms: N_15  and  S_18
REMARK    7  A    between atoms: S_18  and  C_21
REMARK    8  A    between atoms: C_27  and  C_28
REMARK    9  A    between atoms: C_32  and  C_34
REMARK                            x       y       z     vdW  Elec       q    Type
REMARK                         _______ _______ _______ _____ _____    ______ ____
ROOT
ATOM      1  C   UNL     1       0.830  -3.673   1.776  0.00  0.00    +0.022 C 
ATOM      2  C   UNL     1      -0.650  -3.910   1.570  0.00  0.00    +0.201 C 
ATOM      3  O   UNL     1      -1.286  -3.606   0.583  0.00  0.00    -0.277 OA
ATOM      4  N   UNL     1      -1.144  -4.516   2.670  0.00  0.00    -0.309 N 
ATOM      5  C   UNL     1      -0.066  -4.721   3.641  0.00  0.00    +0.006 C 
ATOM      6  N   UNL     1       1.040  -3.825   3.236  0.00  0.00    +0.401 N 
ATOM      7  C   UNL     1       0.409  -6.172   3.605  0.00  0.00    +0.023 C 
ATOM      8  C   UNL     1      -0.753  -7.096   3.986  0.00  0.00    +0.109 C 
ATOM      9  N   UNL     1      -1.296  -6.662   5.280  0.00  0.00    -0.177 NA
ATOM     10  C   UNL     1      -1.711  -5.261   5.439  0.00  0.00    +0.109 C 
ATOM     11  C   UNL     1      -0.542  -4.353   5.045  0.00  0.00    +0.023 C 
ATOM     12  H   UNL     1       1.935  -4.253   3.425  0.00  0.00    -0.082 HD
ATOM     13  H   UNL     1       0.965  -2.933   3.702  0.00  0.00    -0.082 HD
ENDROOT
BRANCH   9  14
ATOM     14  S   UNL     1      -1.439  -7.731   6.536  0.00  0.00    +0.061 S 
ATOM     15  O   UNL     1      -2.371  -7.165   7.448  0.00  0.00    -0.153 OA
ATOM     16  O   UNL     1      -1.624  -9.016   5.957  0.00  0.00    -0.153 OA
BRANCH  14  17
ATOM     17  C   UNL     1       0.115  -7.771   7.365  0.00  0.00    +0.105 A 
ATOM     18  C   UNL     1       1.086  -8.673   6.971  0.00  0.00    +0.028 A 
ATOM     19  C   UNL     1       2.305  -8.704   7.621  0.00  0.00    +0.002 A 
ATOM     20  C   UNL     1       2.554  -7.834   8.666  0.00  0.00    +0.000 A 
ATOM     21  C   UNL     1       1.583  -6.932   9.060  0.00  0.00    +0.002 A 
ATOM     22  C   UNL     1       0.366  -6.898   8.407  0.00  0.00    +0.028 A 
ENDBRANCH  14  17
ENDBRANCH   9  14
BRANCH   1  23
ATOM     23  C   UNL     1       1.212  -2.261   1.327  0.00  0.00    -0.020 C 
ATOM     24  C   UNL     1       2.695  -2.019   1.612  0.00  0.00    +0.006 C 
BRANCH  23  26
ATOM     25  C   UNL     1       1.213  -0.669  -0.599  0.00  0.00    +0.004 C 
ATOM     26  C   UNL     1       0.950  -2.115  -0.173  0.00  0.00    -0.001 C 
ENDBRANCH  23  26
ENDBRANCH   1  23
BRANCH   4  27
ATOM     27  C   UNL     1      -2.542  -4.908   2.864  0.00  0.00    +0.141 C 
BRANCH  27  28
ATOM     28  C   UNL     1      -3.349  -3.704   3.279  0.00  0.00    -0.030 A 
ATOM     29  C   UNL     1      -3.133  -3.120   4.513  0.00  0.00    +0.005 A 
ATOM     30  C   UNL     1      -3.873  -2.016   4.894  0.00  0.00    +0.001 A 
ATOM     31  C   UNL     1      -4.828  -1.496   4.040  0.00  0.00    +0.012 A 
ATOM     32  C   UNL     1      -5.043  -2.080   2.806  0.00  0.00    +0.055 A 
ATOM     33  C   UNL     1      -4.300  -3.181   2.424  0.00  0.00    +0.017 A 
BRANCH  32  34
ATOM     34  C   UNL     1      -6.084  -1.513   1.875  0.00  0.00    +0.417 C 
ATOM     35  F   UNL     1      -7.053  -0.832   2.620  0.00  0.00    -0.166 F 
ATOM     36  F   UNL     1      -5.476  -0.628   0.979  0.00  0.00    -0.166 F 
ATOM     37  F   UNL     1      -6.690  -2.555   1.164  0.00  0.00    -0.166 F 
ENDBRANCH  32  34
ENDBRANCH  27  28
ENDBRANCH   4  27
TORSDOF 7
