REMARK  Name = ZINC62101523
REMARK  2 active torsions:
REMARK  status: ('A' for Active; 'I' for Inactive)
REMARK    1  A    between atoms: C_6  and  C_7
REMARK    2  A    between atoms: C_7  and  N_9
REMARK                            x       y       z     vdW  Elec       q    Type
REMARK                         _______ _______ _______ _____ _____    ______ ____
ROOT
ATOM      1  C   UNL     1       0.057   1.510   0.056  0.00  0.00    +0.019 A 
ATOM      2  C   UNL     1       1.327   2.074   0.034  0.00  0.00    -0.027 A 
ATOM      3  C   UNL     1       2.432   1.253  -0.024  0.00  0.00    +0.021 A 
ATOM      4  N   UNL     1       2.289  -0.067  -0.068  0.00  0.00    -0.346 N 
ATOM      5  C   UNL     1       1.108  -0.654  -0.051  0.00  0.00    +0.109 A 
ATOM      6  C   UNL     1      -0.065   0.119   0.014  0.00  0.00    +0.041 A 
ATOM      7  N   UNL     1       1.023  -2.034  -0.099  0.00  0.00    -0.314 N 
ATOM      8  C   UNL     1       1.107  -2.787   1.151  0.00  0.00    +0.116 C 
ATOM      9  C   UNL     1       2.358  -3.673   1.132  0.00  0.00    +0.114 C 
ATOM     10  C   UNL     1       2.058  -4.914   0.322  0.00  0.00    +0.215 C 
ATOM     11  O   UNL     1       1.938  -5.983   0.881  0.00  0.00    -0.276 OA
ATOM     12  N   UNL     1       1.925  -4.840  -1.006  0.00  0.00    -0.314 N 
ATOM     13  C   UNL     1       2.073  -3.556  -1.703  0.00  0.00    +0.123 C 
ATOM     14  C   UNL     1       0.846  -2.683  -1.396  0.00  0.00    +0.125 C 
ATOM     15  C   UNL     1       3.839   1.797  -0.032  0.00  0.00    +0.053 C 
ATOM     16  C   UNL     1       3.841   3.275  -0.416  0.00  0.00    +0.006 C 
ATOM     17  C   UNL     1       2.835   4.009   0.477  0.00  0.00    +0.005 C 
ATOM     18  C   UNL     1       1.427   3.575   0.072  0.00  0.00    +0.037 C 
ATOM     19  H   UNL     1       1.728  -5.643  -1.514  0.00  0.00    +0.149 HD
ATOM     20  H   UNL     1       3.085  -0.620  -0.114  0.00  0.00    +0.167 HD
ENDROOT
BRANCH   6  21
ATOM     21  C   UNL     1      -1.390  -0.523   0.038  0.00  0.00    +0.080 C 
ATOM     22  S   UNL     1      -1.515  -2.227   0.149  0.00  0.00    -0.035 S 
BRANCH  21  23
ATOM     23  N   UNL     1      -2.505   0.232  -0.027  0.00  0.00    -0.352 N 
ATOM     24  H   UNL     1      -2.435   1.197  -0.089  0.00  0.00    +0.143 HD
ATOM     25  H   UNL     1      -3.378  -0.191  -0.011  0.00  0.00    +0.143 HD
ENDBRANCH  21  23
ENDBRANCH   6  21
TORSDOF 2
