REMARK  Name = ZINC39154583
REMARK  6 active torsions:
REMARK  status: ('A' for Active; 'I' for Inactive)
REMARK    1  A    between atoms: C_13  and  S_15
REMARK    2  A    between atoms: S_15  and  C_16
REMARK    3  A    between atoms: C_16  and  C_17
REMARK    4  A    between atoms: C_23  and  S_25
REMARK    5  A    between atoms: S_25  and  C_26
REMARK    6  A    between atoms: C_26  and  C_27
REMARK                            x       y       z     vdW  Elec       q    Type
REMARK                         _______ _______ _______ _____ _____    ______ ____
ROOT
ATOM      1  C   UNL     1       5.737  -5.560   3.671  0.00  0.00    +0.229 C 
ATOM      2  O   UNL     1       5.111  -6.492   4.129  0.00  0.00    -0.275 OA
ATOM      3  N   UNL     1       7.018  -5.362   4.041  0.00  0.00    -0.263 N 
ATOM      4  C   UNL     1       7.622  -6.228   4.949  0.00  0.00    +0.189 A 
ATOM      5  N   UNL     1       7.134  -7.296   5.559  0.00  0.00    -0.125 NA
ATOM      6  N   UNL     1       7.824  -7.979   6.364  0.00  0.00    -0.133 NA
ATOM      7  C   UNL     1       9.081  -7.670   6.647  0.00  0.00    +0.160 A 
ATOM      8  S   UNL     1       9.283  -6.219   5.618  0.00  0.00    -0.024 S 
ATOM      9  H   UNL     1       7.519  -4.617   3.674  0.00  0.00    +0.157 HD
ENDROOT
BRANCH   1  10
ATOM     10  C   UNL     1       5.084  -4.623   2.688  0.00  0.00    +0.173 C 
BRANCH  10  11
ATOM     11  S   UNL     1       3.373  -5.150   2.396  0.00  0.00    -0.075 S 
BRANCH  11  23
ATOM     12  C   UNL     1      -0.016   1.348   0.009  0.00  0.00    +0.001 A 
ATOM     13  C   UNL     1       1.156   2.116   0.002  0.00  0.00    +0.002 A 
ATOM     14  C   UNL     1       2.382   1.544  -0.019  0.00  0.00    +0.026 A 
ATOM     15  C   UNL     1       2.490   0.081  -0.035  0.00  0.00    +0.046 A 
ATOM     16  N   UNL     1       3.530  -0.719  -0.024  0.00  0.00    -0.358 N 
ATOM     17  C   UNL     1       3.070  -2.089  -0.174  0.00  0.00    +0.252 C 
ATOM     18  C   UNL     1       1.561  -2.038  -0.014  0.00  0.00    +0.117 C 
ATOM     19  C   UNL     1       1.230  -0.705  -0.014  0.00  0.00    +0.025 A 
ATOM     20  C   UNL     1       0.002  -0.004   0.002  0.00  0.00    +0.012 A 
ATOM     21  N   UNL     1       0.842  -3.139   0.220  0.00  0.00    -0.147 NA
ATOM     22  N   UNL     1       1.473  -4.102   0.821  0.00  0.00    -0.122 NA
ATOM     23  C   UNL     1       2.755  -3.971   1.242  0.00  0.00    +0.208 C 
ATOM     24  N   UNL     1       3.565  -3.019   0.839  0.00  0.00    -0.227 NA
ATOM     25  H   UNL     1       4.455  -0.441   0.070  0.00  0.00    +0.162 HD
ENDBRANCH  11  23
ENDBRANCH  10  11
ENDBRANCH   1  10
BRANCH   7  26
ATOM     26  S   UNL     1      10.227  -8.463   7.725  0.00  0.00    -0.092 S 
BRANCH  26  27
ATOM     27  C   UNL     1       9.295  -9.863   8.404  0.00  0.00    +0.111 C 
BRANCH  27  28
ATOM     28  C   UNL     1      10.172 -10.636   9.355  0.00  0.00    -0.037 A 
ATOM     29  C   UNL     1      10.952 -11.676   8.885  0.00  0.00    +0.006 A 
ATOM     30  C   UNL     1      11.756 -12.386   9.757  0.00  0.00    +0.020 A 
ATOM     31  C   UNL     1      11.780 -12.056  11.100  0.00  0.00    +0.041 A 
ATOM     32  C   UNL     1      10.999 -11.015  11.570  0.00  0.00    +0.020 A 
ATOM     33  C   UNL     1      10.200 -10.302  10.696  0.00  0.00    +0.006 A 
ATOM     34 CL   UNL     1      12.790 -12.947  12.195  0.00  0.00    -0.084 Cl
ENDBRANCH  27  28
ENDBRANCH  26  27
ENDBRANCH   7  26
TORSDOF 6
