REMARK  Name = ZINC25444249
REMARK  13 active torsions:
REMARK  status: ('A' for Active; 'I' for Inactive)
REMARK    1  A    between atoms: C_1  and  C_2
REMARK    2  A    between atoms: C_2  and  C_3
REMARK    3  A    between atoms: C_2  and  C_4
REMARK    4  A    between atoms: C_4  and  C_6
REMARK    5  A    between atoms: C_4  and  N_22
REMARK    6  A    between atoms: N_8  and  C_9
REMARK    7  A    between atoms: C_12  and  N_15
REMARK    8  A    between atoms: C_16  and  C_18
REMARK    9  A    between atoms: C_18  and  C_19
REMARK   10  A    between atoms: C_18  and  C_20
REMARK   11  A    between atoms: C_18  and  C_21
REMARK   12  A    between atoms: N_22  and  S_23
REMARK   13  A    between atoms: S_23  and  C_26
REMARK                            x       y       z     vdW  Elec       q    Type
REMARK                         _______ _______ _______ _____ _____    ______ ____
ROOT
ATOM      1  C   UNL     1      -6.171   5.389   0.179  0.00  0.00    +0.165 C 
ENDROOT
BRANCH   1   2
ATOM      2  C   UNL     1      -4.930   4.665   0.633  0.00  0.00    +0.236 C 
ATOM      3  O   UNL     1      -3.836   5.069   0.301  0.00  0.00    -0.274 OA
ATOM      4  N   UNL     1      -5.037   3.567   1.409  0.00  0.00    -0.284 N 
ATOM      5  H   UNL     1      -6.021   3.253   1.786  0.00  0.00    +0.155 HD
BRANCH   4   6
ATOM      6  C   UNL     1      -3.893   2.826   1.734  0.00  0.00    +0.034 A 
ATOM      7  C   UNL     1      -4.002   1.473   2.025  0.00  0.00    +0.025 A 
ATOM      8  C   UNL     1      -2.876   0.743   2.346  0.00  0.00    +0.025 A 
ATOM      9  C   UNL     1      -1.633   1.362   2.379  0.00  0.00    +0.034 A 
ATOM     10  C   UNL     1      -1.525   2.717   2.093  0.00  0.00    +0.025 A 
ATOM     11  C   UNL     1      -2.651   3.446   1.767  0.00  0.00    +0.025 A 
BRANCH   9  12
ATOM     12  N   UNL     1      -0.489   0.621   2.704  0.00  0.00    -0.285 N 
ATOM     13  C   UNL     1      -0.377  -0.658   2.296  0.00  0.00    +0.223 C 
ATOM     14  O   UNL     1      -1.268  -1.170   1.652  0.00  0.00    -0.275 OA
ATOM     15  H   UNL     1       0.316   1.084   3.293  0.00  0.00    +0.155 HD
BRANCH  13  16
ATOM     16  C   UNL     1       0.857  -1.452   2.639  0.00  0.00    +0.039 C 
ATOM     17  C   UNL     1       0.733  -2.863   2.060  0.00  0.00    +0.020 C 
ATOM     18  C   UNL     1       2.088  -0.765   2.045  0.00  0.00    +0.020 C 
ATOM     19  C   UNL     1       1.004  -1.536   4.159  0.00  0.00    +0.020 C 
ENDBRANCH  13  16
ENDBRANCH   9  12
ENDBRANCH   4   6
ENDBRANCH   1   2
BRANCH   1  21
ATOM     20  C   UNL     1      -8.219   5.207  -1.241  0.00  0.00    +0.009 C 
ATOM     21  C   UNL     1      -6.863   4.577  -0.918  0.00  0.00    +0.010 C 
ATOM     22  C   UNL     1      -5.991   4.572  -2.175  0.00  0.00    +0.009 C 
ENDBRANCH   1  21
BRANCH   1  23
ATOM     23  N   UNL     1      -5.803   6.706  -0.347  0.00  0.00    -0.178 NA
ATOM     24  H   UNL     1      -5.011   6.793  -1.106  0.00  0.00    +0.149 HD
BRANCH  23  25
ATOM     25  S   UNL     1      -6.394   8.078   0.368  0.00  0.00    +0.059 S 
ATOM     26  O   UNL     1      -5.675   9.169  -0.192  0.00  0.00    -0.153 OA
ATOM     27  O   UNL     1      -7.811   7.988   0.310  0.00  0.00    -0.153 OA
BRANCH  25  28
ATOM     28  C   UNL     1      -5.954   8.007   2.073  0.00  0.00    +0.106 A 
ATOM     29  C   UNL     1      -6.825   7.410   2.982  0.00  0.00    +0.029 A 
ATOM     30  C   UNL     1      -6.514   7.333   4.305  0.00  0.00    +0.010 A 
ATOM     31  C   UNL     1      -5.302   7.875   4.766  0.00  0.00    -0.018 A 
ATOM     32  C   UNL     1      -4.949   7.821   6.125  0.00  0.00    +0.008 A 
ATOM     33  C   UNL     1      -3.766   8.356   6.535  0.00  0.00    +0.001 A 
ATOM     34  C   UNL     1      -2.898   8.958   5.627  0.00  0.00    +0.001 A 
ATOM     35  C   UNL     1      -3.206   9.029   4.303  0.00  0.00    +0.008 A 
ATOM     36  C   UNL     1      -4.418   8.487   3.842  0.00  0.00    -0.016 A 
ATOM     37  C   UNL     1      -4.772   8.541   2.483  0.00  0.00    +0.037 A 
ENDBRANCH  25  28
ENDBRANCH  23  25
ENDBRANCH   1  23
TORSDOF 8
