REMARK  Name = ZINC16026972
REMARK  11 active torsions:
REMARK  status: ('A' for Active; 'I' for Inactive)
REMARK    1  A    between atoms: C_1  and  C_2
REMARK    2  A    between atoms: C_2  and  O_3
REMARK    3  A    between atoms: O_3  and  C_4
REMARK    4  A    between atoms: C_4  and  C_6
REMARK    5  A    between atoms: C_9  and  N_12
REMARK    6  A    between atoms: C_13  and  C_15
REMARK    7  A    between atoms: C_18  and  C_32
REMARK    8  A    between atoms: C_24  and  C_31
REMARK    9  A    between atoms: C_25  and  C_30
REMARK   10  A    between atoms: C_32  and  C_34
REMARK   11  A    between atoms: C_32  and  O_35
REMARK                            x       y       z     vdW  Elec       q    Type
REMARK                         _______ _______ _______ _____ _____    ______ ____
ROOT
ATOM      1  C   UNL     1       1.182  -0.726  -0.097  0.00  0.00    +0.076 C 
ATOM      2  C   UNL     1       1.725  -0.422  -1.514  0.00  0.00    -0.001 C 
ATOM      3  C   UNL     1       2.403  -1.756  -1.920  0.00  0.00    -0.040 C 
ATOM      4  C   UNL     1       1.074  -2.255  -0.037  0.00  0.00    +0.049 C 
ATOM      5  C   UNL     1      -0.330  -2.686   0.290  0.00  0.00    -0.027 A 
ATOM      6  C   UNL     1      -1.545  -2.495  -0.329  0.00  0.00    +0.005 A 
ATOM      7  C   UNL     1      -2.696  -3.027   0.226  0.00  0.00    +0.004 A 
ATOM      8  C   UNL     1      -2.621  -3.751   1.403  0.00  0.00    -0.046 A 
ATOM      9  C   UNL     1      -1.405  -3.943   2.026  0.00  0.00    -0.026 A 
ATOM     10  C   UNL     1      -0.243  -3.410   1.474  0.00  0.00    +0.039 A 
ATOM     11  N   UNL     1       1.083  -3.466   1.909  0.00  0.00    -0.286 N 
ATOM     12  C   UNL     1       1.918  -2.812   1.080  0.00  0.00    +0.211 C 
ATOM     13  O   UNL     1       3.118  -2.695   1.207  0.00  0.00    -0.277 OA
ATOM     14  C   UNL     1      -1.335  -4.732   3.308  0.00  0.00    +0.046 C 
ATOM     15  C   UNL     1      -3.873  -4.331   2.007  0.00  0.00    +0.044 C 
ATOM     16  H   UNL     1       1.369  -3.922   2.716  0.00  0.00    +0.155 HD
ATOM     17  N   UNL     1       1.510  -2.765  -1.329  0.00  0.00    +0.395 N 
ATOM     18  H   UNL     1       2.014  -3.651  -1.205  0.00  0.00    -0.083 HD
ATOM     19  H   UNL     1       0.698  -2.916  -1.940  0.00  0.00    -0.083 HD
ENDROOT
BRANCH   1  21
ATOM     20  N   UNL     1      -0.647   0.126   1.333  0.00  0.00    -0.285 N 
ATOM     21  C   UNL     1      -0.174  -0.097   0.091  0.00  0.00    +0.220 C 
ATOM     22  O   UNL     1      -0.840   0.209  -0.875  0.00  0.00    -0.275 OA
ATOM     23  H   UNL     1      -0.147  -0.184   2.105  0.00  0.00    +0.155 HD
BRANCH  20  27
ATOM     24  C   UNL     1      -4.242   2.163   1.860  0.00  0.00    +0.059 A 
ATOM     25  C   UNL     1      -3.867   1.159   2.758  0.00  0.00    +0.017 A 
ATOM     26  C   UNL     1      -2.679   0.488   2.581  0.00  0.00    +0.024 A 
ATOM     27  C   UNL     1      -1.850   0.807   1.509  0.00  0.00    +0.033 A 
ATOM     28  C   UNL     1      -2.217   1.810   0.617  0.00  0.00    +0.024 A 
ATOM     29  C   UNL     1      -3.407   2.481   0.784  0.00  0.00    +0.017 A 
BRANCH  24  30
ATOM     30  C   UNL     1      -5.515   2.884   2.046  0.00  0.00    +0.339 C 
ATOM     31  O   UNL     1      -6.239   2.605   2.981  0.00  0.00    -0.245 OA
BRANCH  30  32
ATOM     32  O   UNL     1      -5.875   3.851   1.179  0.00  0.00    -0.461 OA
BRANCH  32  34
ATOM     33  C   UNL     1      -7.377   5.577   0.345  0.00  0.00    +0.048 C 
ATOM     34  C   UNL     1      -7.141   4.518   1.425  0.00  0.00    +0.229 C 
ENDBRANCH  32  34
ENDBRANCH  30  32
ENDBRANCH  24  30
ENDBRANCH  20  27
ENDBRANCH   1  21
BRANCH   3  35
ATOM     35  C   UNL     1       2.465  -1.888  -3.443  0.00  0.00    +0.098 C 
ATOM     36  C   UNL     1       2.913  -3.303  -3.814  0.00  0.00    +0.036 C 
BRANCH  35  37
ATOM     37  O   UNL     1       1.171  -1.638  -3.996  0.00  0.00    -0.394 OA
ATOM     38  H   UNL     1       0.486  -2.245  -3.684  0.00  0.00    +0.210 HD
ENDBRANCH  35  37
ENDBRANCH   3  35
TORSDOF 7
