REMARK  Name = ZINC50375099
REMARK  6 active torsions:
REMARK  status: ('A' for Active; 'I' for Inactive)
REMARK    1  A    between atoms: C_1  and  O_2
REMARK    2  A    between atoms: O_2  and  C_3
REMARK    3  A    between atoms: C_8  and  N_10
REMARK    4  A    between atoms: N_10  and  C_11
REMARK    5  A    between atoms: C_20  and  C_21
REMARK    6  A    between atoms: C_21  and  N_23
REMARK                            x       y       z     vdW  Elec       q    Type
REMARK                         _______ _______ _______ _____ _____    ______ ____
ROOT
ATOM      1  C   UNL     1       0.440  -3.981   1.178  0.00  0.00    +0.048 A 
ATOM      2  C   UNL     1       1.809  -4.274   1.389  0.00  0.00    +0.020 A 
ATOM      3  C   UNL     1       2.766  -4.022   0.396  0.00  0.00    +0.012 A 
ATOM      4  C   UNL     1       4.076  -4.317   0.632  0.00  0.00    +0.001 A 
ATOM      5  C   UNL     1       4.474  -4.865   1.848  0.00  0.00    +0.002 A 
ATOM      6  C   UNL     1       3.568  -5.122   2.833  0.00  0.00    +0.026 A 
ATOM      7  C   UNL     1       2.210  -4.832   2.626  0.00  0.00    +0.048 A 
ATOM      8  N   UNL     1       1.303  -5.076   3.582  0.00  0.00    -0.360 N 
ATOM      9  C   UNL     1       0.032  -4.814   3.416  0.00  0.00    +0.095 A 
ATOM     10  C   UNL     1      -0.455  -4.257   2.223  0.00  0.00    +0.040 A 
ATOM     11  H   UNL     1       1.599  -5.458   4.423  0.00  0.00    +0.165 HD
ENDROOT
BRANCH   1  12
ATOM     12  N   UNL     1       0.002  -3.437  -0.010  0.00  0.00    -0.337 N 
ATOM     13  H   UNL     1      -0.398  -2.554  -0.021  0.00  0.00    +0.146 HD
BRANCH  12  18
ATOM     14  C   UNL     1      -1.197  -4.870  -1.617  0.00  0.00    +0.138 C 
ATOM     15  C   UNL     1      -1.869  -3.887  -2.608  0.00  0.00    +0.033 C 
ATOM     16  C   UNL     1      -0.670  -3.373  -3.443  0.00  0.00    +0.004 C 
ATOM     17  C   UNL     1       0.475  -3.238  -2.419  0.00  0.00    +0.025 C 
ATOM     18  C   UNL     1       0.142  -4.194  -1.257  0.00  0.00    +0.099 C 
BRANCH  14  20
ATOM     19  C   UNL     1      -2.904  -6.142  -0.515  0.00  0.00    +0.194 C 
ATOM     20  O   UNL     1      -2.005  -5.033  -0.450  0.00  0.00    -0.378 OA
ENDBRANCH  14  20
ENDBRANCH  12  18
ENDBRANCH   1  12
BRANCH  10  21
ATOM     21  C   UNL     1      -1.889  -3.969   2.068  0.00  0.00    +0.080 C 
ATOM     22  S   UNL     1      -2.413  -2.827   0.905  0.00  0.00    -0.035 S 
BRANCH  21  23
ATOM     23  N   UNL     1      -2.791  -4.604   2.842  0.00  0.00    -0.352 N 
ATOM     24  H   UNL     1      -2.495  -5.252   3.501  0.00  0.00    +0.143 HD
ATOM     25  H   UNL     1      -3.737  -4.414   2.740  0.00  0.00    +0.143 HD
ENDBRANCH  21  23
ENDBRANCH  10  21
TORSDOF 5
