REMARK  Name = ZINC63613514
REMARK  9 active torsions:
REMARK  status: ('A' for Active; 'I' for Inactive)
REMARK    1  A    between atoms: C_1  and  C_2
REMARK    2  A    between atoms: C_6  and  C_37
REMARK    3  A    between atoms: C_7  and  N_8
REMARK    4  A    between atoms: C_9  and  C_11
REMARK    5  A    between atoms: C_11  and  N_17
REMARK    6  A    between atoms: N_17  and  C_18
REMARK    7  A    between atoms: C_18  and  C_19
REMARK    8  A    between atoms: C_24  and  C_26
REMARK    9  A    between atoms: C_26  and  C_27
REMARK                            x       y       z     vdW  Elec       q    Type
REMARK                         _______ _______ _______ _____ _____    ______ ____
ROOT
ATOM      1  N   UNL     1      -1.087   1.441   4.715  0.00  0.00    -0.280 N 
ATOM      2  C   UNL     1      -0.522   2.662   4.789  0.00  0.00    +0.219 C 
ATOM      3  O   UNL     1       0.678   2.768   4.934  0.00  0.00    -0.275 OA
ENDROOT
BRANCH   1   4
ATOM      4  C   UNL     1      -0.277   0.243   4.949  0.00  0.00    +0.114 C 
ATOM      5  C   UNL     1       1.024   0.637   5.654  0.00  0.00    +0.035 C 
ATOM      6  C   UNL     1       0.697   1.302   6.992  0.00  0.00    +0.003 C 
ATOM      7  C   UNL     1      -0.083   0.322   7.872  0.00  0.00    +0.000 C 
ATOM      8  C   UNL     1      -1.383  -0.071   7.167  0.00  0.00    +0.003 C 
ATOM      9  C   UNL     1      -1.056  -0.736   5.828  0.00  0.00    +0.035 C 
BRANCH   4  11
ATOM     10  N   UNL     1       0.307   0.347   2.548  0.00  0.00    -0.283 N 
ATOM     11  C   UNL     1       0.045  -0.411   3.631  0.00  0.00    +0.241 C 
ATOM     12  O   UNL     1       0.068  -1.621   3.544  0.00  0.00    -0.273 OA
ATOM     13  H   UNL     1       0.248   1.313   2.607  0.00  0.00    +0.155 HD
BRANCH  10  20
ATOM     14  C   UNL     1       2.478  -1.493   2.554  0.00  0.00    +0.045 C 
ATOM     15  C   UNL     1       1.716  -1.164   1.296  0.00  0.00    -0.029 A 
ATOM     16  C   UNL     1       2.061  -1.766   0.102  0.00  0.00    +0.005 A 
ATOM     17  C   UNL     1       1.362  -1.464  -1.053  0.00  0.00    +0.001 A 
ATOM     18  C   UNL     1       0.317  -0.560  -1.016  0.00  0.00    +0.005 A 
ATOM     19  C   UNL     1      -0.033   0.045   0.175  0.00  0.00    -0.029 A 
ATOM     20  C   UNL     1       0.663  -0.260   1.338  0.00  0.00    +0.039 A 
ATOM     21  C   UNL     1      -1.173   1.031   0.215  0.00  0.00    +0.045 C 
ENDBRANCH  10  20
ENDBRANCH   4  11
ENDBRANCH   1   4
BRANCH   1  22
ATOM     22  C   UNL     1      -2.512   1.311   4.401  0.00  0.00    +0.183 C 
BRANCH  22  23
ATOM     23  C   UNL     1      -3.321   1.461   5.663  0.00  0.00    +0.122 A 
ATOM     24  C   UNL     1      -3.784   2.618   6.169  0.00  0.00    +0.046 A 
ATOM     25  C   UNL     1      -4.484   2.297   7.354  0.00  0.00    +0.041 A 
ATOM     26  C   UNL     1      -4.407   0.962   7.502  0.00  0.00    +0.195 A 
ATOM     27  O   UNL     1      -3.706   0.460   6.472  0.00  0.00    -0.466 OA
ENDBRANCH  22  23
ENDBRANCH   1  22
BRANCH   2  28
ATOM     28  C   UNL     1      -1.380   3.897   4.691  0.00  0.00    +0.124 C 
BRANCH  28  29
ATOM     29  C   UNL     1      -0.497   5.142   4.803  0.00  0.00    +0.112 C 
ATOM     30  C   UNL     1      -1.335   6.391   4.644  0.00  0.00    +0.007 C 
ATOM     31  C   UNL     1      -1.203   7.081   5.799  0.00  0.00    -0.004 A 
ATOM     32  C   UNL     1      -1.758   8.358   6.264  0.00  0.00    +0.010 A 
ATOM     33  C   UNL     1      -1.437   8.802   7.500  0.00  0.00    +0.001 A 
ATOM     34  C   UNL     1      -0.588   8.075   8.347  0.00  0.00    +0.002 A 
ATOM     35  C   UNL     1      -0.040   6.894   7.991  0.00  0.00    +0.026 A 
ATOM     36  C   UNL     1      -0.310   6.333   6.712  0.00  0.00    +0.043 A 
ATOM     37  N   UNL     1       0.096   5.222   6.143  0.00  0.00    -0.377 N 
ATOM     38  H   UNL     1       0.688   4.564   6.540  0.00  0.00    +0.160 HD
ENDBRANCH  28  29
ENDBRANCH   2  28
TORSDOF 7
