REMARK  Name = ZINC37130849
REMARK  8 active torsions:
REMARK  status: ('A' for Active; 'I' for Inactive)
REMARK    1  A    between atoms: C_1  and  C_2
REMARK    2  A    between atoms: C_7  and  C_8
REMARK    3  A    between atoms: C_8  and  C_10
REMARK    4  A    between atoms: C_8  and  N_11
REMARK    5  A    between atoms: N_11  and  C_12
REMARK    6  A    between atoms: C_16  and  N_18
REMARK    7  A    between atoms: N_18  and  S_19
REMARK    8  A    between atoms: S_19  and  N_22
REMARK                            x       y       z     vdW  Elec       q    Type
REMARK                         _______ _______ _______ _____ _____    ______ ____
ROOT
ATOM      1  C   UNL     1      -1.214  -0.235   4.633  0.00  0.00    +0.029 A 
ATOM      2  C   UNL     1      -1.359   1.146   4.708  0.00  0.00    +0.023 A 
ATOM      3  C   UNL     1      -2.027   1.714   5.775  0.00  0.00    +0.004 A 
ATOM      4  C   UNL     1      -2.554   0.913   6.770  0.00  0.00    +0.024 A 
ATOM      5  C   UNL     1      -2.412  -0.468   6.701  0.00  0.00    +0.051 A 
ATOM      6  C   UNL     1      -1.746  -1.042   5.627  0.00  0.00    +0.047 A 
ENDROOT
BRANCH   1   7
ATOM      7  N   UNL     1      -0.537  -0.808   3.554  0.00  0.00    -0.337 N 
ATOM      8  H   UNL     1      -0.440  -1.772   3.500  0.00  0.00    +0.147 HD
BRANCH   7   9
ATOM      9  C   UNL     1       0.025   0.045   2.504  0.00  0.00    +0.098 C 
ATOM     10  C   UNL     1       1.420   0.515   2.922  0.00  0.00    +0.033 C 
BRANCH   9  17
ATOM     11  C   UNL     1      -0.067   1.421  -0.035  0.00  0.00    +0.044 C 
ATOM     12  C   UNL     1       0.078  -0.079   0.005  0.00  0.00    -0.046 A 
ATOM     13  C   UNL     1       0.173  -0.795  -1.173  0.00  0.00    +0.004 A 
ATOM     14  C   UNL     1       0.306  -2.171  -1.137  0.00  0.00    +0.000 A 
ATOM     15  C   UNL     1       0.345  -2.829   0.078  0.00  0.00    +0.000 A 
ATOM     16  C   UNL     1       0.251  -2.113   1.256  0.00  0.00    +0.006 A 
ATOM     17  C   UNL     1       0.122  -0.737   1.220  0.00  0.00    -0.025 A 
ENDBRANCH   9  17
ENDBRANCH   7   9
ENDBRANCH   1   7
BRANCH   5  18
ATOM     18  N   UNL     1      -2.944  -1.276   7.708  0.00  0.00    -0.207 N 
ATOM     19  H   UNL     1      -2.417  -2.003   8.076  0.00  0.00    +0.175 HD
BRANCH  18  20
ATOM     20  S   UNL     1      -4.475  -0.995   8.273  0.00  0.00    +0.107 S 
ATOM     21  O   UNL     1      -4.733  -1.987   9.258  0.00  0.00    -0.138 OA
ATOM     22  O   UNL     1      -4.556   0.396   8.553  0.00  0.00    -0.138 OA
BRANCH  20  23
ATOM     23  N   UNL     1      -5.521  -1.287   7.023  0.00  0.00    -0.191 NA
ATOM     24  H   UNL     1      -5.178  -1.568   6.160  0.00  0.00    +0.146 HD
ATOM     25  H   UNL     1      -6.476  -1.177   7.153  0.00  0.00    +0.146 HD
ENDBRANCH  20  23
ENDBRANCH  18  20
ENDBRANCH   5  18
TORSDOF 6
