REMARK  Name = ZINC64097982
REMARK  7 active torsions:
REMARK  status: ('A' for Active; 'I' for Inactive)
REMARK    1  A    between atoms: C_1  and  C_2
REMARK    2  A    between atoms: C_7  and  N_8
REMARK    3  A    between atoms: C_9  and  O_35
REMARK    4  A    between atoms: C_12  and  O_34
REMARK    5  A    between atoms: C_13  and  C_17
REMARK    6  A    between atoms: C_24  and  O_29
REMARK    7  A    between atoms: O_29  and  C_30
REMARK                            x       y       z     vdW  Elec       q    Type
REMARK                         _______ _______ _______ _____ _____    ______ ____
ROOT
ATOM      1  N   UNL     1       0.025  -0.014   2.417  0.00  0.00    -0.225 N 
ATOM      2  C   UNL     1      -1.250   0.309   3.040  0.00  0.00    +0.338 C 
ATOM      3  N   UNL     1      -1.113   0.581   4.461  0.00  0.00    -0.204 NA
ATOM      4  C   UNL     1      -0.016   0.909   5.026  0.00  0.00    +0.200 C 
ATOM      5  C   UNL     1       1.277   1.049   4.276  0.00  0.00    +0.179 C 
ATOM      6  C   UNL     1       1.201   0.320   2.965  0.00  0.00    +0.237 C 
ATOM      7  O   UNL     1       2.227   0.030   2.387  0.00  0.00    -0.274 OA
ENDROOT
BRANCH   5   8
ATOM      8  C   UNL     1       1.554   2.531   4.018  0.00  0.00    +0.101 C 
ATOM      9  C   UNL     1       1.764   3.256   5.349  0.00  0.00    +0.124 C 
ATOM     10  C   UNL     1       1.862   4.740   5.014  0.00  0.00    -0.036 C 
ATOM     11  C   UNL     1       2.998   5.171   5.545  0.00  0.00    +0.003 A 
ATOM     12  C   UNL     1       3.599   6.511   5.632  0.00  0.00    +0.055 A 
ATOM     13  C   UNL     1       4.811   6.598   6.246  0.00  0.00    +0.121 A 
ATOM     14  C   UNL     1       5.497   5.500   6.786  0.00  0.00    +0.047 A 
ATOM     15  C   UNL     1       5.033   4.225   6.766  0.00  0.00    +0.029 A 
ATOM     16  C   UNL     1       3.726   4.003   6.132  0.00  0.00    +0.043 A 
ATOM     17  N   UNL     1       3.027   2.896   5.992  0.00  0.00    -0.376 N 
ATOM     18  C   UNL     1       0.834   5.426   4.147  0.00  0.00    +0.048 C 
ATOM     19  C   UNL     1       0.640   4.523   2.915  0.00  0.00    +0.085 C 
ATOM     20  N   UNL     1       0.401   3.139   3.335  0.00  0.00    -0.310 NA
ATOM     21  H   UNL     1       0.100   2.571   2.557  0.00  0.00    +0.122 HD
ATOM     22  H   UNL     1       3.293   2.002   6.260  0.00  0.00    +0.160 HD
BRANCH  13  23
ATOM     23  O   UNL     1       5.391   7.823   6.341  0.00  0.00    -0.495 OA
ATOM     24  C   UNL     1       6.663   7.890   6.989  0.00  0.00    +0.277 C 
ENDBRANCH  13  23
ENDBRANCH   5   8
BRANCH   1  31
ATOM     25  C   UNL     1      -0.018   1.503   0.010  0.00  0.00    +0.045 C 
ATOM     26  C   UNL     1       0.002  -0.004   0.002  0.00  0.00    -0.029 A 
ATOM     27  C   UNL     1       0.006  -0.689  -1.198  0.00  0.00    +0.006 A 
ATOM     28  C   UNL     1       0.025  -2.071  -1.207  0.00  0.00    +0.020 A 
ATOM     29  C   UNL     1       0.040  -2.773  -0.014  0.00  0.00    +0.043 A 
ATOM     30  C   UNL     1       0.036  -2.094   1.189  0.00  0.00    +0.044 A 
ATOM     31  C   UNL     1       0.023  -0.705   1.200  0.00  0.00    +0.045 A 
ATOM     32 CL   UNL     1       0.064  -4.509  -0.030  0.00  0.00    -0.083 Cl
ENDBRANCH   1  31
BRANCH   4  33
ATOM     33  O   UNL     1      -0.019   1.140   6.355  0.00  0.00    -0.495 OA
ATOM     34  H   UNL     1      -0.885   1.032   6.771  0.00  0.00    +0.293 HD
ENDBRANCH   4  33
BRANCH   2  35
ATOM     35  O   UNL     1      -1.801   1.461   2.399  0.00  0.00    -0.356 OA
ATOM     36  H   UNL     1      -2.654   1.741   2.758  0.00  0.00    +0.214 HD
ENDBRANCH   2  35
TORSDOF 5
