REMARK  Name = ZINC46982884
REMARK  9 active torsions:
REMARK  status: ('A' for Active; 'I' for Inactive)
REMARK    1  A    between atoms: C_1  and  N_2
REMARK    2  A    between atoms: N_2  and  C_3
REMARK    3  A    between atoms: N_2  and  C_20
REMARK    4  A    between atoms: C_3  and  C_4
REMARK    5  A    between atoms: C_4  and  C_5
REMARK    6  A    between atoms: C_5  and  N_6
REMARK    7  A    between atoms: N_9  and  N_10
REMARK    8  A    between atoms: N_13  and  C_14
REMARK    9  A    between atoms: C_20  and  C_21
REMARK                            x       y       z     vdW  Elec       q    Type
REMARK                         _______ _______ _______ _____ _____    ______ ____
ROOT
ATOM      1  N   UNL     1       0.658  -1.606  -5.104  0.00  0.00    -0.298 N 
ATOM      2  C   UNL     1       1.468  -1.829  -6.159  0.00  0.00    +0.316 C 
ATOM      3  O   UNL     1       2.662  -1.982  -5.987  0.00  0.00    -0.251 OA
ATOM      4  N   UNL     1       0.954  -1.885  -7.403  0.00  0.00    -0.217 N 
ATOM      5  H   UNL     1      -0.294  -1.484  -5.242  0.00  0.00    +0.150 HD
ATOM      6  H   UNL     1       1.536  -2.046  -8.162  0.00  0.00    +0.174 HD
ENDROOT
BRANCH   4   7
ATOM      7  N   UNL     1      -0.422  -1.710  -7.601  0.00  0.00    -0.217 N 
ATOM      8  C   UNL     1      -0.936  -1.765  -8.846  0.00  0.00    +0.320 C 
ATOM      9  O   UNL     1      -2.130  -1.613  -9.018  0.00  0.00    -0.251 OA
ATOM     10  N   UNL     1      -0.127  -1.989  -9.900  0.00  0.00    -0.268 N 
ATOM     11  H   UNL     1      -1.005  -1.548  -6.843  0.00  0.00    +0.174 HD
ATOM     12  H   UNL     1       0.812  -2.187  -9.757  0.00  0.00    +0.156 HD
BRANCH  10  13
ATOM     13  C   UNL     1      -0.641  -1.936 -11.200  0.00  0.00    +0.035 A 
ATOM     14  C   UNL     1      -0.158  -2.799 -12.175  0.00  0.00    +0.023 A 
ATOM     15  C   UNL     1      -0.667  -2.744 -13.458  0.00  0.00    +0.002 A 
ATOM     16  C   UNL     1      -1.657  -1.830 -13.772  0.00  0.00    +0.000 A 
ATOM     17  C   UNL     1      -2.139  -0.969 -12.804  0.00  0.00    +0.002 A 
ATOM     18  C   UNL     1      -1.639  -1.024 -11.517  0.00  0.00    +0.023 A 
ENDBRANCH  10  13
ENDBRANCH   4   7
BRANCH   1  19
ATOM     19  C   UNL     1       1.217  -1.545  -3.752  0.00  0.00    +0.104 C 
BRANCH  19  20
ATOM     20  C   UNL     1       0.094  -1.282  -2.747  0.00  0.00    +0.000 C 
BRANCH  20  21
ATOM     21  C   UNL     1       0.678  -1.219  -1.334  0.00  0.00    -0.077 C 
BRANCH  21  23
ATOM     22  C   UNL     1      -0.974   0.365  -0.613  0.00  0.00    -0.096 C 
ATOM     23  N   UNL     1      -0.401  -0.966  -0.369  0.00  0.00    +0.384 N 
ATOM     24  H   UNL     1      -1.119  -1.666  -0.477  0.00  0.00    -0.082 HD
BRANCH  23  25
ATOM     25  C   UNL     1       0.139  -1.024   0.995  0.00  0.00    +0.036 C 
BRANCH  25  26
ATOM     26  C   UNL     1      -1.003  -0.876   2.003  0.00  0.00    +0.376 C 
ATOM     27  F   UNL     1      -1.994  -1.825   1.727  0.00  0.00    -0.173 F 
ATOM     28  F   UNL     1      -0.512  -1.077   3.297  0.00  0.00    -0.173 F 
ATOM     29  F   UNL     1      -1.548   0.409   1.905  0.00  0.00    -0.173 F 
ENDBRANCH  25  26
ENDBRANCH  23  25
ENDBRANCH  21  23
ENDBRANCH  20  21
ENDBRANCH  19  20
ENDBRANCH   1  19
TORSDOF 8
