REMARK  Name = ZINC15071390
REMARK  6 active torsions:
REMARK  status: ('A' for Active; 'I' for Inactive)
REMARK    1  A    between atoms: C_6  and  C_7
REMARK    2  A    between atoms: C_7  and  N_8
REMARK    3  A    between atoms: C_12  and  C_15
REMARK    4  A    between atoms: C_12  and  O_23
REMARK    5  A    between atoms: C_15  and  N_53
REMARK    6  A    between atoms: C_16  and  N_53
REMARK                            x       y       z     vdW  Elec       q    Type
REMARK                         _______ _______ _______ _____ _____    ______ ____
ROOT
ATOM      1  N   UNL     1      -0.366   3.985   2.177  0.00  0.00    -0.295 N 
ATOM      2  C   UNL     1       0.352   3.633   3.396  0.00  0.00    +0.108 C 
ATOM      3  C   UNL     1       0.211   2.138   3.687  0.00  0.00    +0.022 C 
ATOM      4  C   UNL     1       0.577   1.355   2.420  0.00  0.00    +0.044 C 
ATOM      5  C   UNL     1      -0.489   1.628   1.357  0.00  0.00    +0.127 C 
ATOM      6  C   UNL     1      -0.730   3.106   1.244  0.00  0.00    +0.246 C 
ATOM      7  O   UNL     1      -1.286   3.523   0.251  0.00  0.00    -0.273 OA
ENDROOT
BRANCH   5   8
ATOM      8  O   UNL     1      -1.706   0.976   1.727  0.00  0.00    -0.381 OA
ATOM      9  H   UNL     1      -2.428   1.103   1.097  0.00  0.00    +0.211 HD
ENDBRANCH   5   8
BRANCH   1  10
ATOM     10  C   UNL     1      -0.707   5.394   1.964  0.00  0.00    +0.143 C 
BRANCH  10  16
ATOM     11  C   UNL     1       1.442   6.675   1.920  0.00  0.00    +0.008 A 
ATOM     12  C   UNL     1       2.473   7.296   1.239  0.00  0.00    +0.041 A 
ATOM     13  C   UNL     1       2.469   7.326  -0.144  0.00  0.00    +0.158 A 
ATOM     14  C   UNL     1       1.434   6.729  -0.847  0.00  0.00    +0.159 A 
ATOM     15  C   UNL     1       0.406   6.103  -0.163  0.00  0.00    +0.046 A 
ATOM     16  C   UNL     1       0.413   6.075   1.220  0.00  0.00    -0.027 A 
ATOM     17  F   UNL     1       1.428   6.757  -2.197  0.00  0.00    -0.202 F 
ATOM     18  F   UNL     1       3.474   7.938  -0.810  0.00  0.00    -0.202 F 
ENDBRANCH  10  16
ENDBRANCH   1  10
BRANCH   5  19
ATOM     19  C   UNL     1      -0.013   1.086   0.008  0.00  0.00    -0.037 C 
BRANCH  19  20
ATOM     20  N   UNL     1       0.263  -0.358   0.137  0.00  0.00    +0.383 N 
ATOM     21  H   UNL     1      -0.615  -0.853   0.336  0.00  0.00    -0.085 HD
ATOM     22  H   UNL     1       0.924  -0.509   0.908  0.00  0.00    -0.085 HD
BRANCH  20  23
ATOM     23  C   UNL     1       0.845  -0.882  -1.113  0.00  0.00    -0.072 C 
ATOM     24  C   UNL     1      -0.297  -1.212  -2.097  0.00  0.00    -0.016 C 
ATOM     25  C   UNL     1       0.271  -1.254  -3.490  0.00  0.00    -0.002 C 
ATOM     26  C   UNL     1       0.667  -2.680  -3.920  0.00  0.00    -0.000 C 
ATOM     27  C   UNL     1       1.367  -3.470  -2.798  0.00  0.00    -0.000 C 
ATOM     28  C   UNL     1       2.358  -2.632  -2.037  0.00  0.00    -0.002 C 
ATOM     29  C   UNL     1       1.655  -2.048  -0.795  0.00  0.00    -0.016 C 
ENDBRANCH  20  23
ENDBRANCH  19  20
ENDBRANCH   5  19
TORSDOF 6
