REMARK  Name = ZINC65592649
REMARK  5 active torsions:
REMARK  status: ('A' for Active; 'I' for Inactive)
REMARK    1  A    between atoms: C_1  and  C_2
REMARK    2  A    between atoms: C_5  and  N_8
REMARK    3  A    between atoms: C_9  and  C_11
REMARK    4  A    between atoms: N_13  and  C_14
REMARK    5  A    between atoms: C_16  and  C_22
REMARK                            x       y       z     vdW  Elec       q    Type
REMARK                         _______ _______ _______ _____ _____    ______ ____
ROOT
ATOM      1  C   UNL     1      -2.076  -2.392   4.806  0.00  0.00    +0.303 C 
ATOM      2  O   UNL     1      -2.877  -1.482   4.745  0.00  0.00    -0.265 OA
ATOM      3  N   UNL     1      -1.811  -2.979   5.990  0.00  0.00    -0.273 N 
ATOM      4  H   UNL     1      -1.227  -3.753   6.028  0.00  0.00    +0.155 HD
ENDROOT
BRANCH   3   5
ATOM      5  C   UNL     1      -2.378  -2.474   7.163  0.00  0.00    +0.099 A 
ATOM      6  C   UNL     1      -3.175  -3.273   7.956  0.00  0.00    +0.042 A 
ATOM      7  C   UNL     1      -3.729  -2.736   9.127  0.00  0.00    +0.073 A 
ATOM      8  C   UNL     1      -3.479  -1.451   9.466  0.00  0.00    +0.098 A 
ATOM      9  N   UNL     1      -2.695  -0.661   8.687  0.00  0.00    -0.327 N 
ATOM     10  H   UNL     1      -2.529   0.258   8.950  0.00  0.00    +0.168 HD
ATOM     11  C   UNL     1      -2.139  -1.138   7.557  0.00  0.00    +0.270 A 
ATOM     12  O   UNL     1      -1.432  -0.416   6.872  0.00  0.00    -0.266 OA
BRANCH   7  13
ATOM     13  C   UNL     1      -4.603  -3.592  10.007  0.00  0.00    +0.419 C 
ATOM     14  F   UNL     1      -5.034  -2.841  11.107  0.00  0.00    -0.166 F 
ATOM     15  F   UNL     1      -5.713  -4.029   9.277  0.00  0.00    -0.166 F 
ATOM     16  F   UNL     1      -3.873  -4.698  10.454  0.00  0.00    -0.166 F 
ENDBRANCH   7  13
ENDBRANCH   3   5
BRANCH   1  18
ATOM     17  N   UNL     1      -1.649  -2.275   2.385  0.00  0.00    -0.305 N 
ATOM     18  C   UNL     1      -1.384  -2.862   3.569  0.00  0.00    +0.300 C 
ATOM     19  O   UNL     1      -0.584  -3.772   3.630  0.00  0.00    -0.265 OA
ATOM     20  H   UNL     1      -2.288  -1.547   2.337  0.00  0.00    +0.149 HD
BRANCH  17  25
ATOM     21  C   UNL     1      -0.896   1.324  -0.327  0.00  0.00    +0.007 C 
ATOM     22  C   UNL     1      -0.684  -0.189  -0.250  0.00  0.00    -0.014 C 
ATOM     23  C   UNL     1      -2.040  -0.888  -0.128  0.00  0.00    +0.005 C 
ATOM     24  C   UNL     1      -1.828  -2.401  -0.051  0.00  0.00    +0.022 C 
ATOM     25  C   UNL     1      -0.970  -2.735   1.171  0.00  0.00    +0.073 C 
ATOM     26  C   UNL     1       0.386  -2.036   1.048  0.00  0.00    +0.022 C 
ATOM     27  C   UNL     1       0.174  -0.523   0.972  0.00  0.00    +0.005 C 
ENDBRANCH  17  25
ENDBRANCH   1  18
TORSDOF 4
