REMARK  Name = ZINC08623434
REMARK  9 active torsions:
REMARK  status: ('A' for Active; 'I' for Inactive)
REMARK    1  A    between atoms: C_1  and  C_2
REMARK    2  A    between atoms: C_4  and  C_36
REMARK    3  A    between atoms: C_6  and  C_8
REMARK    4  A    between atoms: C_16  and  C_18
REMARK    5  A    between atoms: C_18  and  O_19
REMARK    6  A    between atoms: O_19  and  C_20
REMARK    7  A    between atoms: N_22  and  C_23
REMARK    8  A    between atoms: C_26  and  O_29
REMARK    9  A    between atoms: O_29  and  C_30
REMARK                            x       y       z     vdW  Elec       q    Type
REMARK                         _______ _______ _______ _____ _____    ______ ____
ROOT
ATOM      1  C   UNL     1       6.006   2.914  -0.163  0.00  0.00    +0.024 C 
ATOM      2  C   UNL     1       5.651   4.125  -1.031  0.00  0.00    -0.068 C 
ATOM      3  C   UNL     1       6.971   5.590   0.376  0.00  0.00    -0.078 C 
ATOM      4  C   UNL     1       7.364   4.421   1.283  0.00  0.00    -0.015 C 
ATOM      5  C   UNL     1       6.231   3.388   1.278  0.00  0.00    -0.007 C 
ATOM      6  C   UNL     1       4.948   4.066   1.776  0.00  0.00    -0.008 C 
ATOM      7  C   UNL     1       4.623   5.245   0.855  0.00  0.00    -0.030 C 
ATOM      8  N   UNL     1       5.636   5.359  -0.216  0.00  0.00    +0.384 N 
ATOM      9  H   UNL     1       5.396   6.154  -0.819  0.00  0.00    -0.081 HD
ENDROOT
BRANCH   1  15
ATOM     10  C   UNL     1       2.141   1.011  -2.477  0.00  0.00    +0.088 C 
ATOM     11  C   UNL     1       3.053   1.016  -1.277  0.00  0.00    +0.127 A 
ATOM     12  N   UNL     1       2.837   0.153  -0.307  0.00  0.00    -0.229 NA
ATOM     13  C   UNL     1       3.621   0.133   0.772  0.00  0.00    +0.110 A 
ATOM     14  C   UNL     1       4.687   1.038   0.850  0.00  0.00    +0.055 A 
ATOM     15  C   UNL     1       4.875   1.919  -0.197  0.00  0.00    +0.047 A 
ATOM     16  N   UNL     1       4.048   1.880  -1.232  0.00  0.00    -0.237 NA
BRANCH  13  17
ATOM     17  C   UNL     1       3.373  -0.831   1.862  0.00  0.00    +0.153 A 
ATOM     18  C   UNL     1       2.374  -1.754   1.900  0.00  0.00    +0.051 A 
ATOM     19  C   UNL     1       2.511  -2.449   3.116  0.00  0.00    +0.042 A 
ATOM     20  C   UNL     1       3.580  -1.927   3.752  0.00  0.00    +0.196 A 
ATOM     21  O   UNL     1       4.096  -0.948   2.993  0.00  0.00    -0.461 OA
ENDBRANCH  13  17
ENDBRANCH   1  15
BRANCH   7  22
ATOM     22  C   UNL     1       3.248   5.031   0.218  0.00  0.00    +0.219 C 
BRANCH  22  23
ATOM     23  O   UNL     1       2.932   6.158  -0.641  0.00  0.00    -0.452 OA
BRANCH  23  24
ATOM     24  C   UNL     1       1.748   6.125  -1.282  0.00  0.00    +0.404 C 
ATOM     25  O   UNL     1       1.000   5.181  -1.127  0.00  0.00    -0.226 OA
ATOM     26  N   UNL     1       1.393   7.140  -2.094  0.00  0.00    -0.251 N 
ATOM     27  H   UNL     1       2.020   7.858  -2.275  0.00  0.00    +0.158 HD
BRANCH  26  28
ATOM     28  C   UNL     1       0.119   7.158  -2.677  0.00  0.00    +0.037 A 
ATOM     29  C   UNL     1      -0.083   7.815  -3.884  0.00  0.00    +0.027 A 
ATOM     30  C   UNL     1      -1.338   7.828  -4.460  0.00  0.00    +0.048 A 
ATOM     31  C   UNL     1      -2.398   7.195  -3.829  0.00  0.00    +0.129 A 
ATOM     32  C   UNL     1      -2.198   6.543  -2.621  0.00  0.00    +0.048 A 
ATOM     33  C   UNL     1      -0.943   6.524  -2.046  0.00  0.00    +0.027 A 
BRANCH  31  34
ATOM     34  O   UNL     1      -3.635   7.212  -4.395  0.00  0.00    -0.456 OA
BRANCH  34  35
ATOM     35  C   UNL     1      -4.570   8.039  -3.859  0.00  0.00    +0.128 A 
ATOM     36  C   UNL     1      -4.223   8.909  -2.835  0.00  0.00    +0.046 A 
ATOM     37  C   UNL     1      -5.175   9.752  -2.294  0.00  0.00    +0.004 A 
ATOM     38  C   UNL     1      -6.475   9.722  -2.767  0.00  0.00    +0.000 A 
ATOM     39  C   UNL     1      -6.824   8.853  -3.783  0.00  0.00    +0.004 A 
ATOM     40  C   UNL     1      -5.875   8.011  -4.330  0.00  0.00    +0.046 A 
ENDBRANCH  34  35
ENDBRANCH  31  34
ENDBRANCH  26  28
ENDBRANCH  23  24
ENDBRANCH  22  23
ENDBRANCH   7  22
TORSDOF 8
