REMARK  Name = ZINC34786307
REMARK  8 active torsions:
REMARK  status: ('A' for Active; 'I' for Inactive)
REMARK    1  A    between atoms: C_1  and  C_2
REMARK    2  A    between atoms: C_2  and  C_3
REMARK    3  A    between atoms: C_4  and  C_30
REMARK    4  A    between atoms: C_6  and  N_11
REMARK    5  A    between atoms: C_7  and  C_8
REMARK    6  A    between atoms: N_17  and  C_20
REMARK    7  A    between atoms: C_20  and  C_21
REMARK    8  A    between atoms: N_23  and  C_24
REMARK                            x       y       z     vdW  Elec       q    Type
REMARK                         _______ _______ _______ _____ _____    ______ ____
ROOT
ATOM      1  N   UNL     1       3.382  -2.020  -4.932  0.00  0.00    -0.263 N 
ATOM      2  C   UNL     1       4.329  -1.896  -3.981  0.00  0.00    +0.307 C 
ATOM      3  O   UNL     1       4.043  -1.429  -2.895  0.00  0.00    -0.252 OA
ATOM      4  N   UNL     1       5.593  -2.289  -4.233  0.00  0.00    -0.289 N 
ATOM      5  C   UNL     1       6.615  -2.275  -3.175  0.00  0.00    +0.091 C 
ATOM      6  C   UNL     1       7.851  -1.540  -3.704  0.00  0.00    -0.059 C 
ATOM      7  N   UNL     1       8.289  -2.161  -4.961  0.00  0.00    +0.387 N 
ATOM      8  C   UNL     1       7.256  -1.987  -5.990  0.00  0.00    -0.059 C 
ATOM      9  C   UNL     1       5.989  -2.749  -5.573  0.00  0.00    +0.091 C 
ATOM     10  H   UNL     1       3.624  -2.324  -5.821  0.00  0.00    +0.157 HD
ATOM     11  H   UNL     1       8.449  -3.146  -4.810  0.00  0.00    -0.081 HD
ENDROOT
BRANCH   1  15
ATOM     12  C   UNL     1      -0.312  -1.402  -4.918  0.00  0.00    -0.024 A 
ATOM     13  C   UNL     1      -0.291  -1.023  -3.627  0.00  0.00    -0.008 A 
ATOM     14  S   UNL     1       1.425  -1.176  -3.183  0.00  0.00    -0.078 S 
ATOM     15  C   UNL     1       2.061  -1.714  -4.639  0.00  0.00    +0.086 A 
ATOM     16  C   UNL     1       0.962  -1.787  -5.482  0.00  0.00    +0.068 A 
ATOM     17  C   UNL     1      -1.443  -0.576  -2.765  0.00  0.00    +0.052 C 
BRANCH  16  18
ATOM     18  C   UNL     1       1.087  -2.227  -6.875  0.00  0.00    +0.244 C 
ATOM     19  O   UNL     1       1.307  -1.414  -7.753  0.00  0.00    -0.270 OA
ATOM     20  N   UNL     1       0.957  -3.533  -7.183  0.00  0.00    -0.325 N 
ATOM     21  H   UNL     1       0.782  -4.181  -6.483  0.00  0.00    +0.145 HD
ATOM     22  H   UNL     1       1.040  -3.824  -8.105  0.00  0.00    +0.145 HD
ENDBRANCH  16  18
BRANCH  12  24
ATOM     23  C   UNL     1      -2.246  -2.803  -5.585  0.00  0.00    +0.009 C 
ATOM     24  C   UNL     1      -1.585  -1.430  -5.723  0.00  0.00    +0.033 C 
ENDBRANCH  12  24
ENDBRANCH   1  15
BRANCH   7  25
ATOM     25  C   UNL     1       9.536  -1.528  -5.409  0.00  0.00    +0.019 C 
BRANCH  25  26
ATOM     26  C   UNL     1      10.051  -2.244  -6.631  0.00  0.00    +0.201 C 
ATOM     27  O   UNL     1       9.440  -3.188  -7.084  0.00  0.00    -0.278 OA
ATOM     28  N   UNL     1      11.192  -1.834  -7.221  0.00  0.00    -0.287 N 
ATOM     29  H   UNL     1      11.716  -1.123  -6.821  0.00  0.00    +0.155 HD
BRANCH  28  30
ATOM     30  C   UNL     1      11.619  -2.435  -8.410  0.00  0.00    +0.033 A 
ATOM     31  C   UNL     1      12.269  -1.680  -9.377  0.00  0.00    +0.023 A 
ATOM     32  C   UNL     1      12.690  -2.276 -10.550  0.00  0.00    +0.002 A 
ATOM     33  C   UNL     1      12.465  -3.624 -10.761  0.00  0.00    +0.000 A 
ATOM     34  C   UNL     1      11.818  -4.379  -9.800  0.00  0.00    +0.002 A 
ATOM     35  C   UNL     1      11.400  -3.790  -8.623  0.00  0.00    +0.023 A 
ENDBRANCH  28  30
ENDBRANCH  25  26
ENDBRANCH   7  25
TORSDOF 6
