REMARK  Name = ZINC20602341
REMARK  11 active torsions:
REMARK  status: ('A' for Active; 'I' for Inactive)
REMARK    1  A    between atoms: C_1  and  C_2
REMARK    2  A    between atoms: C_2  and  N_3
REMARK    3  A    between atoms: C_4  and  C_38
REMARK    4  A    between atoms: C_5  and  C_9
REMARK    5  A    between atoms: C_6  and  C_8
REMARK    6  A    between atoms: C_16  and  C_36
REMARK    7  A    between atoms: C_17  and  C_26
REMARK    8  A    between atoms: C_18  and  C_20
REMARK    9  A    between atoms: C_23  and  C_25
REMARK   10  A    between atoms: N_28  and  C_29
REMARK   11  A    between atoms: C_34  and  C_35
REMARK                            x       y       z     vdW  Elec       q    Type
REMARK                         _______ _______ _______ _____ _____    ______ ____
ROOT
ATOM      1  C   UNL     1      -1.839   5.521   4.862  0.00  0.00    +0.032 C 
ATOM      2  C   UNL     1      -1.571   5.606   3.533  0.00  0.00    +0.081 A 
ATOM      3  C   UNL     1      -2.202   4.906   2.409  0.00  0.00    +0.268 A 
ATOM      4  O   UNL     1      -3.108   4.114   2.592  0.00  0.00    -0.266 OA
ATOM      5  N   UNL     1      -1.752   5.165   1.174  0.00  0.00    -0.272 N 
ATOM      6  C   UNL     1      -0.727   6.069   1.021  0.00  0.00    +0.178 A 
ATOM      7  N   UNL     1      -0.207   6.400  -0.134  0.00  0.00    -0.228 NA
ATOM      8  C   UNL     1      -0.596   5.913  -1.306  0.00  0.00    +0.052 C 
ATOM      9  C   UNL     1      -1.606   4.997  -1.378  0.00  0.00    +0.066 C 
ATOM     10  C   UNL     1      -2.262   4.559  -0.088  0.00  0.00    +0.195 C 
ATOM     11  C   UNL     1       0.084   6.375  -2.570  0.00  0.00    +0.066 C 
ATOM     12  S   UNL     1      -0.355   6.599   2.682  0.00  0.00    -0.046 S 
ENDROOT
BRANCH   1  15
ATOM     13  N   UNL     1      -3.749   2.590   5.805  0.00  0.00    -0.268 N 
ATOM     14  C   UNL     1      -2.680   3.143   5.206  0.00  0.00    +0.044 A 
ATOM     15  C   UNL     1      -2.785   4.514   5.358  0.00  0.00    +0.019 A 
ATOM     16  C   UNL     1      -3.972   4.762   6.086  0.00  0.00    +0.067 A 
ATOM     17  N   UNL     1      -4.538   3.614   6.340  0.00  0.00    -0.176 NA
ATOM     18  C   UNL     1      -4.494   6.116   6.494  0.00  0.00    +0.068 C 
ATOM     19  C   UNL     1      -1.571   2.405   4.500  0.00  0.00    +0.066 C 
BRANCH  13  21
ATOM     20  C   UNL     1      -3.406   0.575   7.149  0.00  0.00    +0.029 C 
ATOM     21  C   UNL     1      -4.040   1.156   5.883  0.00  0.00    +0.140 C 
ENDBRANCH  13  21
ENDBRANCH   1  15
BRANCH  10  22
ATOM     22  C   UNL     1      -2.112   3.063   0.023  0.00  0.00    +0.133 A 
ATOM     23  C   UNL     1      -3.088   2.158  -0.176  0.00  0.00    +0.047 A 
ATOM     24  C   UNL     1      -2.513   0.884   0.033  0.00  0.00    +0.045 A 
ATOM     25  C   UNL     1      -1.218   1.085   0.337  0.00  0.00    +0.102 A 
ATOM     26  O   UNL     1      -0.981   2.407   0.330  0.00  0.00    -0.462 OA
ATOM     27  C   UNL     1      -0.205   0.010   0.636  0.00  0.00    +0.086 C 
ENDBRANCH  10  22
BRANCH   9  28
ATOM     28  C   UNL     1      -2.024   4.476  -2.615  0.00  0.00    +0.248 C 
ATOM     29  O   UNL     1      -3.083   4.835  -3.101  0.00  0.00    -0.270 OA
ATOM     30  N   UNL     1      -1.255   3.580  -3.264  0.00  0.00    -0.281 N 
ATOM     31  H   UNL     1      -0.310   3.239  -2.816  0.00  0.00    +0.155 HD
BRANCH  30  32
ATOM     32  C   UNL     1      -1.657   3.083  -4.508  0.00  0.00    +0.037 A 
ATOM     33  C   UNL     1      -2.997   3.124  -4.873  0.00  0.00    +0.023 A 
ATOM     34  C   UNL     1      -3.391   2.632  -6.102  0.00  0.00    +0.002 A 
ATOM     35  C   UNL     1      -2.453   2.100  -6.969  0.00  0.00    +0.000 A 
ATOM     36  C   UNL     1      -1.119   2.059  -6.608  0.00  0.00    +0.005 A 
ATOM     37  C   UNL     1      -0.717   2.554  -5.383  0.00  0.00    -0.029 A 
ATOM     38  C   UNL     1       0.738   2.514  -4.993  0.00  0.00    +0.045 C 
ENDBRANCH  30  32
ENDBRANCH   9  28
TORSDOF 5
