REMARK  Name = ZINC02313559
REMARK  10 active torsions:
REMARK  status: ('A' for Active; 'I' for Inactive)
REMARK    1  A    between atoms: C_1  and  N_2
REMARK    2  A    between atoms: C_3  and  C_24
REMARK    3  A    between atoms: C_6  and  S_7
REMARK    4  A    between atoms: S_7  and  C_8
REMARK    5  A    between atoms: C_8  and  C_9
REMARK    6  A    between atoms: N_11  and  N_12
REMARK    7  A    between atoms: C_13  and  C_14
REMARK    8  A    between atoms: C_16  and  O_22
REMARK    9  A    between atoms: C_17  and  O_21
REMARK   10  A    between atoms: O_22  and  C_23
REMARK                            x       y       z     vdW  Elec       q    Type
REMARK                         _______ _______ _______ _____ _____    ______ ____
ROOT
ATOM      1  C   UNL     1      -0.881  -6.116   0.821  0.00  0.00    +0.242 C 
ATOM      2  O   UNL     1      -2.080  -6.264   0.715  0.00  0.00    -0.273 OA
ATOM      3  N   UNL     1      -0.093  -7.172   1.105  0.00  0.00    -0.206 N 
ATOM      4  H   UNL     1       0.866  -7.053   1.190  0.00  0.00    +0.177 HD
ENDROOT
BRANCH   3   5
ATOM      5  N   UNL     1      -0.660  -8.442   1.278  0.00  0.00    -0.188 NA
ATOM      6  C   UNL     1       0.099  -9.459   1.552  0.00  0.00    +0.138 C 
BRANCH   6   7
ATOM      7  C   UNL     1      -0.498 -10.795   1.734  0.00  0.00    -0.001 A 
ATOM      8  C   UNL     1       0.318 -11.892   2.023  0.00  0.00    +0.059 A 
ATOM      9  C   UNL     1      -0.246 -13.142   2.198  0.00  0.00    +0.163 A 
ATOM     10  C   UNL     1      -1.624 -13.308   2.075  0.00  0.00    +0.173 A 
ATOM     11  C   UNL     1      -2.434 -12.220   1.783  0.00  0.00    +0.063 A 
ATOM     12  C   UNL     1      -1.878 -10.968   1.612  0.00  0.00    +0.028 A 
ATOM     13 BR   UNL     1      -4.303 -12.452   1.618  0.00  0.00    -0.046 Br
BRANCH  10  14
ATOM     14  O   UNL     1      -2.176 -14.539   2.243  0.00  0.00    -0.503 OA
ATOM     15  H   UNL     1      -2.240 -15.055   1.428  0.00  0.00    +0.292 HD
ENDBRANCH  10  14
BRANCH   9  16
ATOM     16  O   UNL     1       0.544 -14.210   2.486  0.00  0.00    -0.491 OA
ATOM     17  C   UNL     1       1.948 -13.967   2.597  0.00  0.00    +0.277 C 
ENDBRANCH   9  16
ENDBRANCH   6   7
ENDBRANCH   3   5
BRANCH   1  18
ATOM     18  C   UNL     1      -0.271  -4.750   0.635  0.00  0.00    +0.174 C 
BRANCH  18  19
ATOM     19  S   UNL     1      -1.577  -3.552   0.266  0.00  0.00    -0.077 S 
BRANCH  19  25
ATOM     20  C   UNL     1      -2.472  -0.441  -0.401  0.00  0.00    +0.153 C 
ATOM     21  N   UNL     1      -1.079  -0.836  -0.179  0.00  0.00    -0.305 N 
ATOM     22  C   UNL     1       0.031  -0.023  -0.211  0.00  0.00    +0.165 A 
ATOM     23  N   UNL     1       1.071  -0.781   0.046  0.00  0.00    -0.128 NA
ATOM     24  N   UNL     1       0.694  -1.996   0.230  0.00  0.00    -0.122 NA
ATOM     25  C   UNL     1      -0.611  -2.088   0.101  0.00  0.00    +0.192 A 
BRANCH  22  26
ATOM     26  C   UNL     1       0.048   1.431  -0.480  0.00  0.00    +0.019 A 
ATOM     27  C   UNL     1      -1.034   2.038  -1.119  0.00  0.00    +0.013 A 
ATOM     28  C   UNL     1      -1.015   3.396  -1.362  0.00  0.00    +0.021 A 
ATOM     29  C   UNL     1       0.080   4.154  -0.983  0.00  0.00    +0.041 A 
ATOM     30  C   UNL     1       1.159   3.556  -0.353  0.00  0.00    +0.021 A 
ATOM     31  C   UNL     1       1.149   2.200  -0.100  0.00  0.00    +0.013 A 
ATOM     32 CL   UNL     1       0.101   5.861  -1.299  0.00  0.00    -0.084 Cl
ENDBRANCH  22  26
ENDBRANCH  19  25
ENDBRANCH  18  19
ENDBRANCH   1  18
TORSDOF 8
