REMARK  Name = ZINC65458288
REMARK  7 active torsions:
REMARK  status: ('A' for Active; 'I' for Inactive)
REMARK    1  A    between atoms: C_9  and  C_12
REMARK    2  A    between atoms: C_12  and  N_13
REMARK    3  A    between atoms: N_13  and  C_14
REMARK    4  A    between atoms: C_14  and  C_15
REMARK    5  A    between atoms: C_15  and  C_16
REMARK    6  A    between atoms: N_18  and  C_19
REMARK    7  A    between atoms: C_22  and  C_25
REMARK                            x       y       z     vdW  Elec       q    Type
REMARK                         _______ _______ _______ _____ _____    ______ ____
ROOT
ATOM      1  C   UNL     1       8.427  -1.916  -1.157  0.00  0.00    +0.077 C 
ENDROOT
BRANCH   1   2
ATOM      2  C   UNL     1       9.739  -2.557  -0.784  0.00  0.00    +0.215 C 
ATOM      3  O   UNL     1       9.762  -3.478   0.005  0.00  0.00    -0.276 OA
ATOM      4  N   UNL     1      10.888  -2.106  -1.327  0.00  0.00    -0.286 N 
ATOM      5  H   UNL     1      10.864  -1.415  -2.007  0.00  0.00    +0.155 HD
BRANCH   4   6
ATOM      6  C   UNL     1      12.110  -2.633  -0.910  0.00  0.00    +0.033 A 
ATOM      7  C   UNL     1      12.206  -3.979  -0.573  0.00  0.00    +0.024 A 
ATOM      8  C   UNL     1      13.411  -4.503  -0.161  0.00  0.00    +0.015 A 
ATOM      9  C   UNL     1      14.538  -3.681  -0.084  0.00  0.00    +0.037 A 
ATOM     10  C   UNL     1      14.438  -2.329  -0.424  0.00  0.00    +0.015 A 
ATOM     11  C   UNL     1      13.231  -1.813  -0.839  0.00  0.00    +0.024 A 
BRANCH   9  12
ATOM     12  C   UNL     1      15.831  -4.239   0.358  0.00  0.00    +0.242 C 
ATOM     13  O   UNL     1      15.917  -5.415   0.654  0.00  0.00    -0.270 OA
ATOM     14  N   UNL     1      16.918  -3.445   0.432  0.00  0.00    -0.325 N 
ATOM     15  H   UNL     1      16.849  -2.506   0.196  0.00  0.00    +0.145 HD
ATOM     16  H   UNL     1      17.768  -3.811   0.722  0.00  0.00    +0.145 HD
ENDBRANCH   9  12
ENDBRANCH   4   6
ENDBRANCH   1   2
BRANCH   1  17
ATOM     17  C   UNL     1       7.289  -2.610  -0.406  0.00  0.00    -0.073 C 
BRANCH  17  18
ATOM     18  N   UNL     1       6.010  -1.986  -0.770  0.00  0.00    +0.382 N 
ATOM     19  H   UNL     1       5.862  -2.077  -1.764  0.00  0.00    -0.086 HD
ATOM     20  H   UNL     1       6.030  -1.008  -0.521  0.00  0.00    -0.086 HD
BRANCH  18  21
ATOM     21  C   UNL     1       4.917  -2.652  -0.049  0.00  0.00    -0.034 C 
BRANCH  21  30
ATOM     22  C   UNL     1      -0.026   1.364  -0.034  0.00  0.00    +0.004 A 
ATOM     23  C   UNL     1       1.159   2.077  -0.045  0.00  0.00    +0.004 A 
ATOM     24  C   UNL     1       2.369   1.409  -0.052  0.00  0.00    +0.049 A 
ATOM     25  C   UNL     1       2.398   0.023  -0.049  0.00  0.00    +0.162 A 
ATOM     26  C   UNL     1       1.207  -0.694  -0.040  0.00  0.00    +0.162 A 
ATOM     27  C   UNL     1      -0.004  -0.018  -0.031  0.00  0.00    +0.049 A 
ATOM     28  O   UNL     1       1.212  -2.055  -0.044  0.00  0.00    -0.485 OA
ATOM     29  C   UNL     1       2.439  -2.694   0.322  0.00  0.00    +0.271 C 
ATOM     30  C   UNL     1       3.585  -2.002  -0.428  0.00  0.00    +0.194 C 
ATOM     31  O   UNL     1       3.597  -0.621  -0.052  0.00  0.00    -0.484 OA
ENDBRANCH  21  30
ENDBRANCH  18  21
ENDBRANCH  17  18
ENDBRANCH   1  17
TORSDOF 7
