REMARK  Name = ZINC40313804
REMARK  5 active torsions:
REMARK  status: ('A' for Active; 'I' for Inactive)
REMARK    1  A    between atoms: C_2  and  N_20
REMARK    2  A    between atoms: C_6  and  S_7
REMARK    3  A    between atoms: S_7  and  N_10
REMARK    4  A    between atoms: N_10  and  C_11
REMARK    5  A    between atoms: C_14  and  O_17
REMARK                            x       y       z     vdW  Elec       q    Type
REMARK                         _______ _______ _______ _____ _____    ______ ____
ROOT
ATOM      1  S   UNL     1      -1.620  -1.009   0.064  0.00  0.00    +0.060 S 
ATOM      2  O   UNL     1      -1.670  -2.127   0.940  0.00  0.00    -0.153 OA
ATOM      3  O   UNL     1      -2.571   0.046   0.120  0.00  0.00    -0.153 OA
ENDROOT
BRANCH   1   9
ATOM      4  C   UNL     1       0.848  -0.791   1.208  0.00  0.00    +0.055 A 
ATOM      5  C   UNL     1       2.096  -0.209   1.380  0.00  0.00    +0.062 A 
ATOM      6  C   UNL     1       2.455   0.898   0.618  0.00  0.00    +0.145 A 
ATOM      7  C   UNL     1       1.567   1.416  -0.307  0.00  0.00    +0.062 A 
ATOM      8  C   UNL     1       0.323   0.832  -0.475  0.00  0.00    +0.070 A 
ATOM      9  C   UNL     1      -0.035  -0.270   0.282  0.00  0.00    +0.125 A 
ATOM     10 CL   UNL     1      -0.790   1.484  -1.636  0.00  0.00    -0.081 Cl
ATOM     11  F   UNL     1       3.669   1.468   0.783  0.00  0.00    -0.204 F 
BRANCH   5  12
ATOM     12  N   UNL     1       2.992  -0.734   2.317  0.00  0.00    -0.356 N 
ATOM     13  H   UNL     1       2.741  -1.506   2.848  0.00  0.00    +0.142 HD
ATOM     14  H   UNL     1       3.864  -0.327   2.436  0.00  0.00    +0.142 HD
ENDBRANCH   5  12
ENDBRANCH   1   9
BRANCH   1  15
ATOM     15  N   UNL     1      -1.671  -1.612  -1.477  0.00  0.00    -0.187 NA
ATOM     16  H   UNL     1      -2.286  -1.234  -2.125  0.00  0.00    +0.148 HD
BRANCH  15  17
ATOM     17  C   UNL     1      -0.787  -2.715  -1.862  0.00  0.00    +0.077 C 
ATOM     18  C   UNL     1       0.461  -2.154  -2.545  0.00  0.00    +0.023 C 
ATOM     19  C   UNL     1       1.384  -3.306  -2.947  0.00  0.00    +0.033 C 
ATOM     20  C   UNL     1       0.648  -4.236  -3.914  0.00  0.00    +0.115 C 
ATOM     21  C   UNL     1      -0.601  -4.797  -3.231  0.00  0.00    +0.033 C 
ATOM     22  C   UNL     1      -1.524  -3.645  -2.829  0.00  0.00    +0.023 C 
BRANCH  20  23
ATOM     23  O   UNL     1       1.510  -5.312  -4.289  0.00  0.00    -0.392 OA
ATOM     24  H   UNL     1       1.108  -5.942  -4.903  0.00  0.00    +0.210 HD
ENDBRANCH  20  23
ENDBRANCH  15  17
ENDBRANCH   1  15
TORSDOF 5
