REMARK  Name = ZINC41059038
REMARK  5 active torsions:
REMARK  status: ('A' for Active; 'I' for Inactive)
REMARK    1  A    between atoms: C_1  and  C_2
REMARK    2  A    between atoms: C_2  and  C_3
REMARK    3  A    between atoms: C_3  and  N_4
REMARK    4  A    between atoms: C_11  and  C_14
REMARK    5  A    between atoms: C_14  and  N_15
REMARK                            x       y       z     vdW  Elec       q    Type
REMARK                         _______ _______ _______ _____ _____    ______ ____
ROOT
ATOM      1  N   UNL     1       0.742  -1.962  -1.263  0.00  0.00    -0.299 N 
ATOM      2  C   UNL     1       1.321  -2.623  -2.285  0.00  0.00    +0.302 C 
ATOM      3  O   UNL     1       1.746  -2.007  -3.244  0.00  0.00    -0.253 OA
ATOM      4  N   UNL     1       1.429  -3.966  -2.244  0.00  0.00    -0.281 N 
ATOM      5  C   UNL     1       0.817  -4.742  -1.154  0.00  0.00    +0.137 C 
ATOM      6  C   UNL     1      -0.013  -5.872  -1.773  0.00  0.00    +0.179 C 
ATOM      7  O   UNL     1       0.799  -6.603  -2.694  0.00  0.00    -0.375 OA
ATOM      8  C   UNL     1       1.266  -5.831  -3.803  0.00  0.00    +0.118 C 
ATOM      9  C   UNL     1       2.157  -4.699  -3.292  0.00  0.00    +0.139 C 
ATOM     10  H   UNL     1       0.339  -2.456  -0.532  0.00  0.00    +0.150 HD
ENDROOT
BRANCH   1  11
ATOM     11  C   UNL     1       0.722  -0.497  -1.255  0.00  0.00    +0.105 C 
BRANCH  11  13
ATOM     12  C   UNL     1      -0.010   1.527   0.014  0.00  0.00    +0.005 C 
ATOM     13  C   UNL     1       0.011  -0.003   0.006  0.00  0.00    +0.015 C 
ENDBRANCH  11  13
ENDBRANCH   1  11
BRANCH   8  14
ATOM     14  C   UNL     1       2.067  -6.728  -4.749  0.00  0.00    -0.053 C 
BRANCH  14  15
ATOM     15  N   UNL     1       1.179  -7.744  -5.330  0.00  0.00    +0.380 N 
ATOM     16  H   UNL     1       0.439  -7.290  -5.843  0.00  0.00    -0.090 HD
ATOM     17  H   UNL     1       1.707  -8.335  -5.954  0.00  0.00    -0.090 HD
ATOM     18  H   UNL     1       0.781  -8.305  -4.591  0.00  0.00    -0.090 HD
ENDBRANCH  14  15
ENDBRANCH   8  14
TORSDOF 4
