REMARK  Name = ZINC02135324
REMARK  8 active torsions:
REMARK  status: ('A' for Active; 'I' for Inactive)
REMARK    1  A    between atoms: C_1  and  C_2
REMARK    2  A    between atoms: C_16  and  C_18
REMARK    3  A    between atoms: C_18  and  C_19
REMARK    4  A    between atoms: C_19  and  C_20
REMARK    5  A    between atoms: N_25  and  C_28
REMARK    6  A    between atoms: C_28  and  C_29
REMARK    7  A    between atoms: C_34  and  O_35
REMARK    8  A    between atoms: O_35  and  C_36
REMARK                            x       y       z     vdW  Elec       q    Type
REMARK                         _______ _______ _______ _____ _____    ______ ____
ROOT
ATOM      1  C   UNL     1       5.238   1.744   4.939  0.00  0.00    +0.045 C 
ATOM      2  C   UNL     1       3.782   2.116   5.046  0.00  0.00    -0.029 A 
ATOM      3  C   UNL     1       3.229   2.383   6.282  0.00  0.00    +0.005 A 
ATOM      4  C   UNL     1       1.894   2.725   6.390  0.00  0.00    +0.001 A 
ATOM      5  C   UNL     1       1.108   2.801   5.254  0.00  0.00    +0.004 A 
ATOM      6  C   UNL     1       1.655   2.536   4.019  0.00  0.00    -0.027 A 
ATOM      7  C   UNL     1       2.998   2.190   3.897  0.00  0.00    +0.039 A 
ATOM      8  N   UNL     1       3.321   1.969   2.557  0.00  0.00    -0.286 N 
ATOM      9  C   UNL     1       2.261   2.147   1.743  0.00  0.00    +0.211 C 
ATOM     10  O   UNL     1       2.247   2.025   0.537  0.00  0.00    -0.277 OA
ATOM     11  C   UNL     1       1.101   2.526   2.622  0.00  0.00    +0.050 C 
ATOM     12  C   UNL     1       0.526   3.893   2.233  0.00  0.00    +0.088 C 
ATOM     13  C   UNL     1      -0.700   3.561   1.337  0.00  0.00    +0.073 C 
ATOM     14  C   UNL     1      -0.735   2.019   1.269  0.00  0.00    -0.057 C 
ATOM     15  C   UNL     1      -1.873   4.051   2.155  0.00  0.00    +0.224 C 
ATOM     16  O   UNL     1      -3.037   3.978   1.824  0.00  0.00    -0.275 OA
ATOM     17  N   UNL     1      -1.427   4.579   3.300  0.00  0.00    -0.237 N 
ATOM     18  C   UNL     1      -0.097   4.546   3.446  0.00  0.00    +0.225 C 
ATOM     19  O   UNL     1       0.513   4.973   4.403  0.00  0.00    -0.275 OA
ATOM     20  H   UNL     1       4.205   1.718   2.247  0.00  0.00    +0.155 HD
ATOM     21  N   UNL     1      -0.003   1.595   2.465  0.00  0.00    +0.394 N 
ATOM     22  H   UNL     1      -0.617   1.630   3.288  0.00  0.00    -0.083 HD
ATOM     23  H   UNL     1       0.352   0.640   2.344  0.00  0.00    -0.083 HD
ENDROOT
BRANCH  14  24
ATOM     24  C   UNL     1      -0.019   1.526   0.010  0.00  0.00    -0.006 C 
BRANCH  24  25
ATOM     25  C   UNL     1      -1.034   1.363  -1.123  0.00  0.00    +0.094 C 
BRANCH  25  26
ATOM     26  C   UNL     1      -0.328   0.877  -2.363  0.00  0.00    +0.210 C 
ATOM     27  O   UNL     1       0.868   0.680  -2.342  0.00  0.00    -0.276 OA
ATOM     28  N   UNL     1      -1.027   0.661  -3.495  0.00  0.00    -0.329 N 
ATOM     29  H   UNL     1      -1.984   0.818  -3.511  0.00  0.00    +0.145 HD
ATOM     30  H   UNL     1      -0.573   0.348  -4.293  0.00  0.00    +0.145 HD
ENDBRANCH  25  26
ENDBRANCH  24  25
ENDBRANCH  14  24
BRANCH  17  31
ATOM     31  C   UNL     1      -2.321   5.147   4.312  0.00  0.00    +0.155 C 
BRANCH  31  32
ATOM     32  C   UNL     1      -2.527   6.614   4.035  0.00  0.00    +0.012 A 
ATOM     33  C   UNL     1      -1.821   7.559   4.753  0.00  0.00    +0.009 A 
ATOM     34  C   UNL     1      -2.006   8.905   4.496  0.00  0.00    +0.001 A 
ATOM     35  C   UNL     1      -2.906   9.308   3.526  0.00  0.00    +0.004 A 
ATOM     36  C   UNL     1      -3.618   8.367   2.809  0.00  0.00    +0.046 A 
ATOM     37  C   UNL     1      -3.430   7.016   3.062  0.00  0.00    +0.125 A 
BRANCH  37  38
ATOM     38  O   UNL     1      -4.129   6.088   2.357  0.00  0.00    -0.495 OA
ATOM     39  C   UNL     1      -5.042   6.574   1.371  0.00  0.00    +0.277 C 
ENDBRANCH  37  38
ENDBRANCH  31  32
ENDBRANCH  17  31
TORSDOF 6
