REMARK  Name = ZINC59369492
REMARK  4 active torsions:
REMARK  status: ('A' for Active; 'I' for Inactive)
REMARK    1  A    between atoms: C_1  and  C_2
REMARK    2  A    between atoms: N_12  and  N_13
REMARK    3  A    between atoms: N_16  and  N_17
REMARK    4  A    between atoms: C_18  and  C_28
REMARK                            x       y       z     vdW  Elec       q    Type
REMARK                         _______ _______ _______ _____ _____    ______ ____
ROOT
ATOM      1  N   UNL     1       0.024   0.081   2.387  0.00  0.00    -0.259 N 
ATOM      2  C   UNL     1      -1.121   0.164   3.144  0.00  0.00    +0.208 C 
ATOM      3  N   UNL     1      -2.207  -0.442   2.753  0.00  0.00    -0.369 N 
ATOM      4  N   UNL     1      -1.119   0.886   4.314  0.00  0.00    -0.259 N 
ATOM      5  H   UNL     1       0.832   0.531   2.678  0.00  0.00    +0.190 HD
ATOM      6  H   UNL     1      -3.014  -0.383   3.288  0.00  0.00    +0.159 HD
ATOM      7  H   UNL     1      -0.311   1.337   4.605  0.00  0.00    +0.190 HD
ATOM      8  H   UNL     1      -2.208  -0.951   1.928  0.00  0.00    +0.159 HD
ENDROOT
BRANCH   1  20
ATOM      9  C   UNL     1      -0.018   1.503   0.010  0.00  0.00    +0.088 C 
ATOM     10  C   UNL     1       0.002  -0.004   0.002  0.00  0.00    +0.130 A 
ATOM     11  N   UNL     1       0.005  -0.614  -1.144  0.00  0.00    -0.232 NA
ATOM     12  C   UNL     1       0.023  -1.967  -1.230  0.00  0.00    +0.078 A 
ATOM     13  C   UNL     1       0.026  -2.624  -2.462  0.00  0.00    +0.028 A 
ATOM     14  C   UNL     1       0.045  -4.000  -2.502  0.00  0.00    +0.002 A 
ATOM     15  C   UNL     1       0.061  -4.745  -1.331  0.00  0.00    +0.001 A 
ATOM     16  C   UNL     1       0.057  -4.121  -0.103  0.00  0.00    +0.015 A 
ATOM     17  C   UNL     1       0.039  -2.729  -0.040  0.00  0.00    +0.067 A 
ATOM     18  C   UNL     1       0.035  -2.007   1.241  0.00  0.00    +0.281 A 
ATOM     19  O   UNL     1       0.049  -2.603   2.302  0.00  0.00    -0.265 OA
ATOM     20  N   UNL     1       0.022  -0.655   1.194  0.00  0.00    -0.202 N 
ENDBRANCH   1  20
BRANCH   4  21
ATOM     21  N   UNL     1      -2.285   0.971   5.087  0.00  0.00    -0.202 N 
ATOM     22  C   UNL     1      -3.015   2.117   5.081  0.00  0.00    +0.130 A 
ATOM     23  N   UNL     1      -4.105   2.273   5.769  0.00  0.00    -0.232 NA
ATOM     24  C   UNL     1      -4.598   1.283   6.553  0.00  0.00    +0.078 A 
ATOM     25  C   UNL     1      -5.771   1.450   7.293  0.00  0.00    +0.028 A 
ATOM     26  C   UNL     1      -6.236   0.417   8.076  0.00  0.00    +0.002 A 
ATOM     27  C   UNL     1      -5.553  -0.790   8.141  0.00  0.00    +0.001 A 
ATOM     28  C   UNL     1      -4.394  -0.979   7.421  0.00  0.00    +0.015 A 
ATOM     29  C   UNL     1      -3.906   0.053   6.622  0.00  0.00    +0.067 A 
ATOM     30  C   UNL     1      -2.678  -0.092   5.827  0.00  0.00    +0.281 A 
ATOM     31  O   UNL     1      -2.037  -1.127   5.838  0.00  0.00    -0.265 OA
ATOM     32  C   UNL     1      -2.533   3.266   4.233  0.00  0.00    +0.088 C 
ENDBRANCH   4  21
TORSDOF 2
