REMARK  Name = ZINC15681634
REMARK  9 active torsions:
REMARK  status: ('A' for Active; 'I' for Inactive)
REMARK    1  A    between atoms: C_1  and  C_2
REMARK    2  A    between atoms: C_3  and  C_19
REMARK    3  A    between atoms: C_4  and  N_14
REMARK    4  A    between atoms: N_5  and  C_7
REMARK    5  A    between atoms: N_21  and  C_22
REMARK    6  A    between atoms: C_22  and  C_23
REMARK    7  A    between atoms: C_23  and  C_24
REMARK    8  A    between atoms: C_24  and  N_25
REMARK    9  A    between atoms: C_28  and  N_31
REMARK                            x       y       z     vdW  Elec       q    Type
REMARK                         _______ _______ _______ _____ _____    ______ ____
ROOT
ATOM      1  C   UNL     1      -3.392   2.943   1.825  0.00  0.00    +0.249 C 
ATOM      2  O   UNL     1      -3.605   4.097   1.505  0.00  0.00    -0.270 OA
ATOM      3  N   UNL     1      -3.076   2.645   3.101  0.00  0.00    -0.311 N 
ATOM      4  H   UNL     1      -2.884   1.601   3.391  0.00  0.00    +0.149 HD
ENDROOT
BRANCH   1   7
ATOM      5  C   UNL     1      -5.999   1.289   1.099  0.00  0.00    +0.068 C 
ATOM      6  C   UNL     1      -4.632   1.127   0.485  0.00  0.00    +0.075 A 
ATOM      7  C   UNL     1      -3.479   1.873   0.821  0.00  0.00    +0.102 A 
ATOM      8  C   UNL     1      -2.443   1.406   0.019  0.00  0.00    +0.154 A 
ATOM      9  N   UNL     1      -2.951   0.421  -0.753  0.00  0.00    -0.215 N 
ATOM     10  N   UNL     1      -4.307   0.271  -0.443  0.00  0.00    -0.169 NA
BRANCH   9  11
ATOM     11  C   UNL     1      -2.240  -0.324  -1.704  0.00  0.00    +0.068 A 
ATOM     12  C   UNL     1      -1.237   0.279  -2.451  0.00  0.00    +0.030 A 
ATOM     13  C   UNL     1      -0.533  -0.458  -3.383  0.00  0.00    +0.040 A 
ATOM     14  C   UNL     1      -0.836  -1.795  -3.581  0.00  0.00    +0.124 A 
ATOM     15  C   UNL     1      -1.839  -2.397  -2.841  0.00  0.00    +0.040 A 
ATOM     16  C   UNL     1      -2.541  -1.664  -1.904  0.00  0.00    +0.030 A 
ATOM     17  F   UNL     1      -0.150  -2.513  -4.498  0.00  0.00    -0.205 F 
ENDBRANCH   9  11
BRANCH   8  18
ATOM     18  N   UNL     1      -1.131   1.863   0.017  0.00  0.00    -0.307 N 
ATOM     19  C   UNL     1      -0.013   1.076   0.008  0.00  0.00    +0.092 A 
ATOM     20  C   UNL     1       1.068   1.881   0.002  0.00  0.00    +0.019 A 
ATOM     21  C   UNL     1       0.605   3.213   0.014  0.00  0.00    +0.019 A 
ATOM     22  C   UNL     1      -0.742   3.173   0.026  0.00  0.00    +0.092 A 
ENDBRANCH   8  18
ENDBRANCH   1   7
BRANCH   3  23
ATOM     23  C   UNL     1      -2.990   3.711   4.103  0.00  0.00    +0.106 C 
BRANCH  23  24
ATOM     24  C   UNL     1      -2.619   3.108   5.459  0.00  0.00    +0.034 C 
BRANCH  24  25
ATOM     25  C   UNL     1      -2.528   4.221   6.505  0.00  0.00    +0.086 C 
BRANCH  25  26
ATOM     26  N   UNL     1      -2.172   3.642   7.807  0.00  0.00    -0.302 NA
ATOM     27  C   UNL     1      -3.244   2.772   8.307  0.00  0.00    +0.083 C 
ATOM     28  C   UNL     1      -2.782   2.075   9.588  0.00  0.00    +0.000 C 
ATOM     29  C   UNL     1      -2.425   3.131  10.638  0.00  0.00    -0.066 C 
ATOM     30  C   UNL     1      -1.340   4.053  10.074  0.00  0.00    +0.000 C 
ATOM     31  C   UNL     1      -1.845   4.693   8.778  0.00  0.00    +0.083 C 
BRANCH  29  32
ATOM     32  N   UNL     1      -1.924   2.469  11.850  0.00  0.00    +0.382 N 
ATOM     33  C   UNL     1      -0.741   1.651  11.553  0.00  0.00    -0.078 C 
ATOM     34  C   UNL     1      -0.163   1.096  12.856  0.00  0.00    -0.019 C 
ATOM     35  C   UNL     1      -1.227   0.250  13.561  0.00  0.00    -0.004 C 
ATOM     36  C   UNL     1      -2.466   1.112  13.816  0.00  0.00    -0.019 C 
ATOM     37  C   UNL     1      -2.978   1.667  12.485  0.00  0.00    -0.078 C 
ATOM     38  H   UNL     1      -1.621   3.250  12.563  0.00  0.00    -0.081 HD
ENDBRANCH  29  32
ENDBRANCH  25  26
ENDBRANCH  24  25
ENDBRANCH  23  24
ENDBRANCH   3  23
TORSDOF 8
