REMARK  Name = ZINC05685484
REMARK  7 active torsions:
REMARK  status: ('A' for Active; 'I' for Inactive)
REMARK    1  A    between atoms: C_7  and  N_14
REMARK    2  A    between atoms: N_14  and  C_15
REMARK    3  A    between atoms: C_17  and  O_30
REMARK    4  A    between atoms: C_19  and  O_29
REMARK    5  A    between atoms: C_21  and  C_27
REMARK    6  A    between atoms: C_24  and  O_26
REMARK    7  A    between atoms: C_27  and  O_28
REMARK                            x       y       z     vdW  Elec       q    Type
REMARK                         _______ _______ _______ _____ _____    ______ ____
ROOT
ATOM      1  N   UNL     1       0.475   3.510   1.244  0.00  0.00    -0.333 N 
ATOM      2  H   UNL     1       0.789   2.962   2.031  0.00  0.00    +0.147 HD
ENDROOT
BRANCH   1   9
ATOM      3  C   UNL     1      -1.838   1.054   3.752  0.00  0.00    +0.001 A 
ATOM      4  C   UNL     1      -3.223   1.012   3.591  0.00  0.00    +0.002 A 
ATOM      5  C   UNL     1      -3.841   1.752   2.633  0.00  0.00    +0.026 A 
ATOM      6  C   UNL     1      -3.079   2.579   1.784  0.00  0.00    +0.049 A 
ATOM      7  C   UNL     1      -1.670   2.620   1.952  0.00  0.00    +0.020 A 
ATOM      8  C   UNL     1      -1.066   1.840   2.954  0.00  0.00    +0.012 A 
ATOM      9  C   UNL     1      -0.895   3.443   1.111  0.00  0.00    +0.046 A 
ATOM     10  C   UNL     1      -1.570   4.201   0.133  0.00  0.00    +0.020 A 
ATOM     11  C   UNL     1      -0.863   5.048  -0.738  0.00  0.00    +0.012 A 
ATOM     12  C   UNL     1      -1.540   5.769  -1.673  0.00  0.00    +0.001 A 
ATOM     13  C   UNL     1      -2.928   5.677  -1.780  0.00  0.00    +0.002 A 
ATOM     14  C   UNL     1      -3.643   4.860  -0.964  0.00  0.00    +0.026 A 
ATOM     15  C   UNL     1      -2.982   4.101   0.024  0.00  0.00    +0.049 A 
ATOM     16  N   UNL     1      -3.754   3.304   0.833  0.00  0.00    -0.354 N 
ATOM     17  H   UNL     1      -4.775   3.255   0.734  0.00  0.00    +0.166 HD
ENDBRANCH   1   9
BRANCH   1  18
ATOM     18  C   UNL     1       1.145   3.086   0.007  0.00  0.00    +0.158 C 
ATOM     19  C   UNL     1       2.537   3.721  -0.064  0.00  0.00    +0.170 C 
ATOM     20  C   UNL     1       3.256   3.211  -1.317  0.00  0.00    +0.176 C 
ATOM     21  C   UNL     1       3.316   1.681  -1.274  0.00  0.00    +0.178 C 
ATOM     22  O   UNL     1       1.990   1.157  -1.178  0.00  0.00    -0.341 OA
ATOM     23  C   UNL     1       1.286   1.562  -0.002  0.00  0.00    +0.270 C 
BRANCH  23  24
ATOM     24  O   UNL     1      -0.011   0.963   0.007  0.00  0.00    -0.365 OA
ATOM     25  H   UNL     1       0.002  -0.004   0.002  0.00  0.00    +0.213 HD
ENDBRANCH  23  24
BRANCH  20  26
ATOM     26  O   UNL     1       2.542   3.628  -2.482  0.00  0.00    -0.387 OA
ATOM     27  H   UNL     1       2.939   3.336  -3.313  0.00  0.00    +0.210 HD
ENDBRANCH  20  26
BRANCH  19  28
ATOM     28  O   UNL     1       3.287   3.359   1.098  0.00  0.00    -0.387 OA
ATOM     29  H   UNL     1       4.183   3.721   1.116  0.00  0.00    +0.210 HD
ENDBRANCH  19  28
BRANCH  21  30
ATOM     30  C   UNL     1       3.979   1.161  -2.551  0.00  0.00    +0.190 C 
BRANCH  30  31
ATOM     31  O   UNL     1       4.139  -0.256  -2.462  0.00  0.00    -0.392 OA
ATOM     32  H   UNL     1       4.554  -0.655  -3.238  0.00  0.00    +0.210 HD
ENDBRANCH  30  31
ENDBRANCH  21  30
ENDBRANCH   1  18
TORSDOF 7
