REMARK  Name = ZINC38018526
REMARK  6 active torsions:
REMARK  status: ('A' for Active; 'I' for Inactive)
REMARK    1  A    between atoms: C_3  and  C_9
REMARK    2  A    between atoms: C_4  and  O_8
REMARK    3  A    between atoms: C_6  and  O_7
REMARK    4  A    between atoms: C_9  and  N_10
REMARK    5  A    between atoms: N_10  and  C_11
REMARK    6  A    between atoms: C_11  and  C_12
REMARK                            x       y       z     vdW  Elec       q    Type
REMARK                         _______ _______ _______ _____ _____    ______ ____
ROOT
ATOM      1  C   UNL     1       3.670   2.196  -0.022  0.00  0.00    -0.043 C 
ENDROOT
BRANCH   1   4
ATOM      2  C   UNL     1      -0.017   1.383   0.010  0.00  0.00    +0.046 A 
ATOM      3  C   UNL     1       1.170   2.092   0.002  0.00  0.00    +0.009 A 
ATOM      4  C   UNL     1       2.377   1.421  -0.013  0.00  0.00    -0.023 A 
ATOM      5  C   UNL     1       2.402   0.033  -0.021  0.00  0.00    +0.122 A 
ATOM      6  C   UNL     1       1.213  -0.680  -0.013  0.00  0.00    +0.091 A 
ATOM      7  C   UNL     1       0.002  -0.004   0.002  0.00  0.00    +0.120 A 
BRANCH   7   8
ATOM      8  O   UNL     1      -1.165  -0.700   0.010  0.00  0.00    -0.507 OA
ATOM      9  H   UNL     1      -1.512  -0.897  -0.871  0.00  0.00    +0.292 HD
ENDBRANCH   7   8
BRANCH   5  10
ATOM     10  O   UNL     1       3.590  -0.626  -0.036  0.00  0.00    -0.506 OA
ATOM     11  H   UNL     1       3.942  -0.822   0.843  0.00  0.00    +0.292 HD
ENDBRANCH   5  10
ENDBRANCH   1   4
BRANCH   1  12
ATOM     12  N   UNL     1       4.200   2.249  -1.391  0.00  0.00    +0.385 N 
ATOM     13  H   UNL     1       4.368   1.311  -1.722  0.00  0.00    -0.085 HD
ATOM     14  H   UNL     1       3.531   2.704  -1.993  0.00  0.00    -0.085 HD
BRANCH  12  15
ATOM     15  C   UNL     1       5.459   3.005  -1.399  0.00  0.00    -0.039 C 
BRANCH  15  16
ATOM     16  C   UNL     1       6.003   3.059  -2.803  0.00  0.00    -0.026 A 
ATOM     17  C   UNL     1       5.781   3.982  -3.770  0.00  0.00    +0.010 A 
ATOM     18  C   UNL     1       6.393   3.827  -5.000  0.00  0.00    +0.023 A 
ATOM     19  C   UNL     1       7.199   2.755  -5.202  0.00  0.00    +0.055 A 
ATOM     20  S   UNL     1       7.115   1.927  -3.623  0.00  0.00    -0.088 S 
ATOM     21 BR   UNL     1       8.167   2.268  -6.752  0.00  0.00    -0.043 Br
ENDBRANCH  15  16
ENDBRANCH  12  15
ENDBRANCH   1  12
TORSDOF 6
