REMARK  Name = ZINC39696227
REMARK  9 active torsions:
REMARK  status: ('A' for Active; 'I' for Inactive)
REMARK    1  A    between atoms: C_1  and  C_2
REMARK    2  A    between atoms: C_2  and  C_3
REMARK    3  A    between atoms: C_6  and  C_9
REMARK    4  A    between atoms: C_9  and  C_11
REMARK    5  A    between atoms: C_9  and  N_12
REMARK    6  A    between atoms: C_13  and  C_15
REMARK    7  A    between atoms: C_26  and  C_28
REMARK    8  A    between atoms: C_31  and  O_34
REMARK    9  A    between atoms: O_34  and  C_35
REMARK                            x       y       z     vdW  Elec       q    Type
REMARK                         _______ _______ _______ _____ _____    ______ ____
ROOT
ATOM      1  C   UNL     1       2.906   0.248   7.527  0.00  0.00    +0.100 C 
ATOM      2  C   UNL     1       2.440   1.721   7.527  0.00  0.00    +0.121 C 
ATOM      3  N   UNL     1       2.776   2.220   8.881  0.00  0.00    -0.296 N 
ATOM      4  C   UNL     1       4.090   1.605   9.185  0.00  0.00    +0.115 C 
ATOM      5  C   UNL     1       3.989   0.176   8.616  0.00  0.00    -0.004 C 
ATOM      6  C   UNL     1       5.323  -0.244   8.008  0.00  0.00    -0.010 C 
ATOM      7  C   UNL     1       6.370  -0.366   9.118  0.00  0.00    -0.082 C 
ATOM      8  N   UNL     1       5.926  -1.356  10.106  0.00  0.00    +0.379 N 
ATOM      9  C   UNL     1       4.691  -0.899  10.754  0.00  0.00    -0.082 C 
ATOM     10  C   UNL     1       3.573  -0.800   9.712  0.00  0.00    -0.010 C 
ATOM     11  C   UNL     1       2.050   3.046   9.660  0.00  0.00    +0.248 C 
ATOM     12  O   UNL     1       0.926   3.366   9.326  0.00  0.00    -0.270 OA
ATOM     13  H   UNL     1       5.756  -2.237   9.644  0.00  0.00    -0.086 HD
ATOM     14  H   UNL     1       6.644  -1.479  10.804  0.00  0.00    -0.086 HD
ENDROOT
BRANCH  11  15
ATOM     15  C   UNL     1       2.620   3.562  10.921  0.00  0.00    +0.055 A 
ATOM     16  C   UNL     1       4.007   3.556  11.130  0.00  0.00    +0.020 A 
ATOM     17  C   UNL     1       4.492   4.049  12.324  0.00  0.00    +0.068 A 
ATOM     18  C   UNL     1       3.597   4.532  13.274  0.00  0.00    +0.220 A 
ATOM     19  N   UNL     1       2.292   4.524  13.047  0.00  0.00    -0.220 NA
ATOM     20  C   UNL     1       1.787   4.069  11.919  0.00  0.00    +0.127 A 
BRANCH  18  21
ATOM     21  O   UNL     1       4.067   5.017  14.448  0.00  0.00    -0.438 OA
BRANCH  21  22
ATOM     22  C   UNL     1       3.176   5.569  15.313  0.00  0.00    +0.130 A 
ATOM     23  C   UNL     1       2.386   4.753  16.111  0.00  0.00    +0.046 A 
ATOM     24  C   UNL     1       1.481   5.316  16.990  0.00  0.00    +0.004 A 
ATOM     25  C   UNL     1       1.362   6.691  17.074  0.00  0.00    +0.000 A 
ATOM     26  C   UNL     1       2.148   7.506  16.280  0.00  0.00    +0.004 A 
ATOM     27  C   UNL     1       3.058   6.948  15.404  0.00  0.00    +0.046 A 
ENDBRANCH  21  22
ENDBRANCH  18  21
ENDBRANCH  11  15
BRANCH   1  29
ATOM     28  N   UNL     1       3.413  -1.392   5.746  0.00  0.00    -0.308 N 
ATOM     29  C   UNL     1       3.485  -0.120   6.185  0.00  0.00    +0.219 C 
ATOM     30  O   UNL     1       4.016   0.729   5.501  0.00  0.00    -0.275 OA
ATOM     31  H   UNL     1       2.989  -2.071   6.293  0.00  0.00    +0.149 HD
BRANCH  28  32
ATOM     32  C   UNL     1       3.977  -1.749   4.442  0.00  0.00    +0.100 C 
ATOM     33  C   UNL     1       5.471  -2.041   4.594  0.00  0.00    +0.033 C 
BRANCH  32  37
ATOM     34  C   UNL     1       1.996  -5.222   2.937  0.00  0.00    -0.048 A 
ATOM     35  C   UNL     1       2.320  -4.185   2.081  0.00  0.00    +0.004 A 
ATOM     36  C   UNL     1       2.961  -3.061   2.568  0.00  0.00    +0.006 A 
ATOM     37  C   UNL     1       3.278  -2.974   3.911  0.00  0.00    -0.027 A 
ATOM     38  C   UNL     1       2.953  -4.010   4.767  0.00  0.00    +0.006 A 
ATOM     39  C   UNL     1       2.308  -5.132   4.280  0.00  0.00    +0.004 A 
BRANCH  34  41
ATOM     40  C   UNL     1      -0.216  -6.244   2.481  0.00  0.00    +0.009 C 
ATOM     41  C   UNL     1       1.298  -6.447   2.405  0.00  0.00    +0.032 C 
ENDBRANCH  34  41
ENDBRANCH  32  37
ENDBRANCH  28  32
ENDBRANCH   1  29
TORSDOF 7
