REMARK  Name = ZINC05590462
REMARK  4 active torsions:
REMARK  status: ('A' for Active; 'I' for Inactive)
REMARK    1  A    between atoms: N_6  and  C_7
REMARK    2  A    between atoms: C_7  and  C_9
REMARK    3  A    between atoms: C_7  and  C_16
REMARK    4  A    between atoms: C_25  and  O_26
REMARK                            x       y       z     vdW  Elec       q    Type
REMARK                         _______ _______ _______ _____ _____    ______ ____
ROOT
ATOM      1  C   UNL     1      -1.174   5.956   0.045  0.00  0.00    +0.136 C 
ENDROOT
BRANCH   1   2
ATOM      2  C   UNL     1      -0.905   7.359  -0.436  0.00  0.00    +0.021 A 
ATOM      3  C   UNL     1       0.406   7.820  -0.507  0.00  0.00    +0.010 A 
ATOM      4  C   UNL     1       0.683   9.080  -0.943  0.00  0.00    +0.010 A 
ATOM      5  C   UNL     1      -0.368   9.934  -1.317  0.00  0.00    +0.004 A 
ATOM      6  C   UNL     1      -0.121  11.245  -1.768  0.00  0.00    +0.011 A 
ATOM      7  C   UNL     1      -1.192  12.018  -2.115  0.00  0.00    +0.020 A 
ATOM      8  C   UNL     1      -2.483  11.503  -2.018  0.00  0.00    +0.111 A 
ATOM      9  N   UNL     1      -2.708  10.281  -1.599  0.00  0.00    -0.251 NA
ATOM     10  C   UNL     1      -1.705   9.473  -1.243  0.00  0.00    +0.113 A 
ATOM     11  C   UNL     1      -1.953   8.160  -0.792  0.00  0.00    +0.148 A 
BRANCH  11  12
ATOM     12  O   UNL     1      -3.226   7.694  -0.712  0.00  0.00    -0.504 OA
ATOM     13  H   UNL     1      -3.651   7.855   0.142  0.00  0.00    +0.292 HD
ENDBRANCH  11  12
ENDBRANCH   1   2
BRANCH   1  19
ATOM     14  C   UNL     1      -1.580   1.801  -0.369  0.00  0.00    +0.005 A 
ATOM     15  C   UNL     1      -0.450   1.039  -0.640  0.00  0.00    +0.018 A 
ATOM     16  C   UNL     1       0.772   1.667  -0.772  0.00  0.00    +0.084 A 
ATOM     17  C   UNL     1      -0.173   3.735  -0.377  0.00  0.00    +0.097 A 
ATOM     18  C   UNL     1      -1.435   3.169  -0.231  0.00  0.00    +0.041 A 
ATOM     19  N   UNL     1      -0.014   5.109  -0.246  0.00  0.00    -0.320 N 
ATOM     20  H   UNL     1       0.864   5.508  -0.347  0.00  0.00    +0.148 HD
ATOM     21  N   UNL     1       0.950   3.009  -0.648  0.00  0.00    -0.350 N 
ATOM     22  H   UNL     1       1.872   3.449  -0.752  0.00  0.00    +0.166 HD
ENDBRANCH   1  19
BRANCH   1  23
ATOM     23  C   UNL     1      -1.422   5.974   1.531  0.00  0.00    -0.022 A 
ATOM     24  C   UNL     1      -2.716   5.930   2.016  0.00  0.00    +0.006 A 
ATOM     25  C   UNL     1      -2.945   5.947   3.380  0.00  0.00    +0.001 A 
ATOM     26  C   UNL     1      -1.879   6.007   4.258  0.00  0.00    +0.015 A 
ATOM     27  C   UNL     1      -0.585   6.051   3.774  0.00  0.00    +0.018 A 
ATOM     28  C   UNL     1      -0.356   6.029   2.409  0.00  0.00    +0.021 A 
ATOM     29 BR   UNL     1       0.873   6.133   4.975  0.00  0.00    -0.050 Br
ENDBRANCH   1  23
TORSDOF 4
