REMARK  Name = ZINC09325730
REMARK  8 active torsions:
REMARK  status: ('A' for Active; 'I' for Inactive)
REMARK    1  A    between atoms: C_1  and  C_2
REMARK    2  A    between atoms: C_5  and  S_8
REMARK    3  A    between atoms: S_8  and  N_11
REMARK    4  A    between atoms: N_11  and  C_12
REMARK    5  A    between atoms: C_16  and  C_18
REMARK    6  A    between atoms: N_20  and  N_21
REMARK    7  A    between atoms: C_25  and  O_32
REMARK    8  A    between atoms: O_32  and  C_33
REMARK                            x       y       z     vdW  Elec       q    Type
REMARK                         _______ _______ _______ _____ _____    ______ ____
ROOT
ATOM      1  C   UNL     1      -0.048   3.852   0.022  0.00  0.00    +0.049 A 
ATOM      2  C   UNL     1       1.160   3.164   0.007  0.00  0.00    +0.024 A 
ATOM      3  C   UNL     1       1.173   1.782   0.000  0.00  0.00    +0.003 A 
ATOM      4  C   UNL     1      -0.013   1.076   0.008  0.00  0.00    +0.013 A 
ATOM      5  C   UNL     1      -1.231   1.757   0.017  0.00  0.00    +0.040 A 
ATOM      6  C   UNL     1      -1.244   3.152   0.030  0.00  0.00    +0.037 A 
ENDROOT
BRANCH   5   7
ATOM      7  C   UNL     1      -2.502   1.003   0.020  0.00  0.00    +0.260 C 
ATOM      8  O   UNL     1      -3.562   1.598   0.028  0.00  0.00    -0.269 OA
ATOM      9  N   UNL     1      -2.487  -0.345   0.013  0.00  0.00    -0.231 N 
ATOM     10  H   UNL     1      -1.641  -0.820   0.006  0.00  0.00    +0.173 HD
BRANCH   9  11
ATOM     11  N   UNL     1      -3.692  -1.059   0.015  0.00  0.00    -0.242 N 
ATOM     12  C   UNL     1      -3.675  -2.440   0.008  0.00  0.00    +0.176 A 
ATOM     13  N   UNL     1      -4.688  -3.276   0.014  0.00  0.00    -0.220 NA
ATOM     14  C   UNL     1      -4.522  -4.618   0.002  0.00  0.00    +0.123 A 
ATOM     15  C   UNL     1      -5.522  -5.623   0.003  0.00  0.00    +0.147 A 
ATOM     16  C   UNL     1      -5.178  -6.954  -0.005  0.00  0.00    +0.049 A 
ATOM     17  C   UNL     1      -3.850  -7.359  -0.013  0.00  0.00    +0.025 A 
ATOM     18  C   UNL     1      -2.850  -6.402  -0.014  0.00  0.00    +0.057 A 
ATOM     19  C   UNL     1      -3.185  -5.069  -0.006  0.00  0.00    +0.063 A 
ATOM     20  S   UNL     1      -2.271  -3.545  -0.004  0.00  0.00    -0.049 S 
ATOM     21 CL   UNL     1      -1.183  -6.884  -0.024  0.00  0.00    -0.082 Cl
ATOM     22  H   UNL     1      -4.537  -0.584   0.022  0.00  0.00    +0.172 HD
BRANCH  15  23
ATOM     23  O   UNL     1      -6.834  -5.268   0.012  0.00  0.00    -0.493 OA
ATOM     24  C   UNL     1      -7.793  -6.327   0.013  0.00  0.00    +0.277 C 
ENDBRANCH  15  23
ENDBRANCH   9  11
ENDBRANCH   5   7
BRANCH   1  25
ATOM     25  N   UNL     1      -0.056   5.249   0.029  0.00  0.00    -0.216 N 
ATOM     26  H   UNL     1      -0.647   5.728   0.631  0.00  0.00    +0.174 HD
BRANCH  25  27
ATOM     27  S   UNL     1       0.944   6.088  -0.991  0.00  0.00    +0.072 S 
ATOM     28  O   UNL     1       0.686   7.468  -0.768  0.00  0.00    -0.150 OA
ATOM     29  O   UNL     1       2.239   5.522  -0.846  0.00  0.00    -0.150 OA
BRANCH  27  34
ATOM     30  C   UNL     1      -0.843   4.887  -6.628  0.00  0.00    +0.044 C 
ATOM     31  C   UNL     1      -0.396   5.187  -5.220  0.00  0.00    -0.050 A 
ATOM     32  C   UNL     1      -0.939   6.260  -4.536  0.00  0.00    +0.005 A 
ATOM     33  C   UNL     1      -0.529   6.535  -3.245  0.00  0.00    +0.029 A 
ATOM     34  C   UNL     1       0.422   5.737  -2.637  0.00  0.00    +0.109 A 
ATOM     35  C   UNL     1       0.968   4.668  -3.322  0.00  0.00    +0.029 A 
ATOM     36  C   UNL     1       0.555   4.390  -4.612  0.00  0.00    +0.005 A 
ENDBRANCH  27  34
ENDBRANCH  25  27
ENDBRANCH   1  25
TORSDOF 6
