REMARK  Name = ZINC08747398
REMARK  11 active torsions:
REMARK  status: ('A' for Active; 'I' for Inactive)
REMARK    1  A    between atoms: C_1  and  C_2
REMARK    2  A    between atoms: C_2  and  O_3
REMARK    3  A    between atoms: O_3  and  C_4
REMARK    4  A    between atoms: C_4  and  C_6
REMARK    5  A    between atoms: C_7  and  C_30
REMARK    6  A    between atoms: C_11  and  C_15
REMARK    7  A    between atoms: C_15  and  N_52
REMARK    8  A    between atoms: C_16  and  N_52
REMARK    9  A    between atoms: C_17  and  C_18
REMARK   10  A    between atoms: C_17  and  N_52
REMARK   11  A    between atoms: N_20  and  C_21
REMARK                            x       y       z     vdW  Elec       q    Type
REMARK                         _______ _______ _______ _____ _____    ______ ____
ROOT
ATOM      1  C   UNL     1      12.823   4.478  -3.291  0.00  0.00    +0.102 A 
ATOM      2  C   UNL     1      11.823   3.961  -4.057  0.00  0.00    -0.017 A 
ATOM      3  C   UNL     1      10.713   3.365  -3.445  0.00  0.00    +0.051 A 
ATOM      4  C   UNL     1       9.565   2.766  -4.045  0.00  0.00    +0.128 A 
ATOM      5  N   UNL     1       8.626   2.251  -3.267  0.00  0.00    -0.219 NA
ATOM      6  C   UNL     1       8.707   2.281  -1.949  0.00  0.00    +0.116 A 
ATOM      7  N   UNL     1       9.742   2.820  -1.335  0.00  0.00    -0.227 NA
ATOM      8  C   UNL     1      10.728   3.352  -2.028  0.00  0.00    +0.114 A 
ATOM      9  S   UNL     1      12.258   4.156  -1.629  0.00  0.00    -0.062 S 
ATOM     10  N   UNL     1       9.438   2.719  -5.418  0.00  0.00    -0.343 N 
ATOM     11  C   UNL     1      11.911   4.029  -5.560  0.00  0.00    +0.046 C 
ATOM     12  H   UNL     1       9.804   3.432  -5.963  0.00  0.00    +0.144 HD
ATOM     13  H   UNL     1       8.982   1.972  -5.838  0.00  0.00    +0.144 HD
ENDROOT
BRANCH   1  14
ATOM     14  C   UNL     1      14.059   5.138  -3.724  0.00  0.00    +0.346 C 
ATOM     15  O   UNL     1      14.336   5.193  -4.907  0.00  0.00    -0.244 OA
BRANCH  14  16
ATOM     16  O   UNL     1      14.888   5.683  -2.811  0.00  0.00    -0.461 OA
BRANCH  16  18
ATOM     17  C   UNL     1      16.901   6.876  -2.138  0.00  0.00    +0.048 C 
ATOM     18  C   UNL     1      16.093   6.320  -3.311  0.00  0.00    +0.229 C 
ENDBRANCH  16  18
ENDBRANCH  14  16
ENDBRANCH   1  14
BRANCH   6  19
ATOM     19  C   UNL     1       7.594   1.680  -1.129  0.00  0.00    -0.001 C 
BRANCH  19  21
ATOM     20  C   UNL     1       7.133   3.758   0.025  0.00  0.00    -0.095 C 
ATOM     21  N   UNL     1       6.577   2.721  -0.870  0.00  0.00    +0.388 N 
ATOM     22  H   UNL     1       6.312   3.157  -1.761  0.00  0.00    -0.081 HD
BRANCH  21  23
ATOM     23  C   UNL     1       5.378   2.114  -0.256  0.00  0.00    +0.019 C 
BRANCH  23  24
ATOM     24  C   UNL     1       4.282   3.147  -0.206  0.00  0.00    +0.201 C 
ATOM     25  O   UNL     1       4.486   4.269  -0.620  0.00  0.00    -0.278 OA
ATOM     26  N   UNL     1       3.075   2.825   0.299  0.00  0.00    -0.285 N 
ATOM     27  H   UNL     1       2.925   1.942   0.673  0.00  0.00    +0.155 HD
BRANCH  26  28
ATOM     28  C   UNL     1       2.036   3.764   0.285  0.00  0.00    +0.070 A 
ATOM     29  C   UNL     1       1.218   3.914   1.398  0.00  0.00    +0.064 A 
ATOM     30  C   UNL     1       0.194   4.843   1.381  0.00  0.00    +0.022 A 
ATOM     31  C   UNL     1      -0.017   5.621   0.258  0.00  0.00    +0.003 A 
ATOM     32  C   UNL     1       0.799   5.479  -0.849  0.00  0.00    +0.022 A 
ATOM     33  C   UNL     1       1.822   4.548  -0.841  0.00  0.00    +0.064 A 
ATOM     34 CL   UNL     1       2.841   4.365  -2.235  0.00  0.00    -0.082 Cl
ATOM     35 CL   UNL     1       1.482   2.937   2.809  0.00  0.00    -0.082 Cl
ENDBRANCH  26  28
ENDBRANCH  23  24
ENDBRANCH  21  23
ENDBRANCH  19  21
ENDBRANCH   6  19
TORSDOF 8
