REMARK  Name = ZINC01391359
REMARK  3 active torsions:
REMARK  status: ('A' for Active; 'I' for Inactive)
REMARK    1  A    between atoms: C_1  and  C_2
REMARK    2  A    between atoms: C_3  and  C_12
REMARK    3  A    between atoms: C_12  and  C_13
REMARK                            x       y       z     vdW  Elec       q    Type
REMARK                         _______ _______ _______ _____ _____    ______ ____
ROOT
ATOM      1  C   UNL     1       1.483   2.152   2.360  0.00  0.00    +0.064 C 
ATOM      2  C   UNL     1      -0.019   2.276   2.356  0.00  0.00    +0.024 A 
ATOM      3  C   UNL     1      -0.723   1.954   1.250  0.00  0.00    +0.047 A 
ATOM      4  C   UNL     1      -2.134   2.073   1.273  0.00  0.00    +0.256 A 
ATOM      5  O   UNL     1      -2.791   1.785   0.289  0.00  0.00    -0.267 OA
ATOM      6  N   UNL     1      -2.743   2.510   2.394  0.00  0.00    -0.303 N 
ATOM      7  H   UNL     1      -3.709   2.595   2.417  0.00  0.00    +0.171 HD
ATOM      8  C   UNL     1      -2.015   2.829   3.481  0.00  0.00    +0.158 A 
ATOM      9  S   UNL     1      -2.808   3.380   4.894  0.00  0.00    -0.013 S 
ATOM     10  N   UNL     1      -0.675   2.719   3.472  0.00  0.00    -0.339 N 
ATOM     11  H   UNL     1      -0.168   2.953   4.265  0.00  0.00    +0.167 HD
ENDROOT
BRANCH   3  12
ATOM     12  C   UNL     1      -0.018   1.468   0.010  0.00  0.00    +0.130 C 
BRANCH  12  13
ATOM     13  C   UNL     1       0.002  -0.004   0.002  0.00  0.00    -0.101 C 
ATOM     14  C   UNL     1       0.018  -1.178  -0.004  0.00  0.00    +0.004 C 
ENDBRANCH  12  13
ENDBRANCH   3  12
TORSDOF 2
