REMARK  Name = ZINC04350985
REMARK  10 active torsions:
REMARK  status: ('A' for Active; 'I' for Inactive)
REMARK    1  A    between atoms: C_4  and  C_7
REMARK    2  A    between atoms: C_7  and  N_51
REMARK    3  A    between atoms: C_8  and  C_9
REMARK    4  A    between atoms: C_8  and  N_51
REMARK    5  A    between atoms: C_15  and  C_16
REMARK    6  A    between atoms: C_15  and  N_51
REMARK    7  A    between atoms: C_16  and  O_28
REMARK    8  A    between atoms: C_17  and  O_27
REMARK    9  A    between atoms: C_19  and  O_26
REMARK   10  A    between atoms: C_21  and  O_25
REMARK                            x       y       z     vdW  Elec       q    Type
REMARK                         _______ _______ _______ _____ _____    ______ ____
ROOT
ATOM      1  N   UNL     1       0.937   5.325   1.763  0.00  0.00    +0.389 N 
ATOM      2  H   UNL     1       0.714   5.981   1.005  0.00  0.00    -0.081 HD
ENDROOT
BRANCH   1   3
ATOM      3  C   UNL     1       0.217   5.741   2.985  0.00  0.00    -0.042 C 
BRANCH   3   7
ATOM      4  C   UNL     1       0.669   9.960   3.474  0.00  0.00    +0.000 A 
ATOM      5  C   UNL     1      -0.387   9.459   2.736  0.00  0.00    +0.000 A 
ATOM      6  C   UNL     1      -0.533   8.094   2.577  0.00  0.00    +0.002 A 
ATOM      7  C   UNL     1       0.377   7.229   3.158  0.00  0.00    -0.064 A 
ATOM      8  C   UNL     1       1.430   7.730   3.900  0.00  0.00    +0.002 A 
ATOM      9  C   UNL     1       1.579   9.096   4.054  0.00  0.00    +0.000 A 
ENDBRANCH   3   7
ENDBRANCH   1   3
BRANCH   1  10
ATOM     10  C   UNL     1       2.395   5.346   2.003  0.00  0.00    -0.042 C 
BRANCH  10  11
ATOM     11  C   UNL     1       3.102   5.399   0.673  0.00  0.00    -0.064 A 
ATOM     12  C   UNL     1       3.574   4.236   0.094  0.00  0.00    +0.002 A 
ATOM     13  C   UNL     1       4.218   4.283  -1.128  0.00  0.00    +0.000 A 
ATOM     14  C   UNL     1       4.400   5.496  -1.766  0.00  0.00    +0.000 A 
ATOM     15  C   UNL     1       3.932   6.660  -1.185  0.00  0.00    +0.000 A 
ATOM     16  C   UNL     1       3.284   6.611   0.034  0.00  0.00    +0.002 A 
ENDBRANCH  10  11
ENDBRANCH   1  10
BRANCH   1  17
ATOM     17  C   UNL     1       0.510   3.967   1.363  0.00  0.00    -0.009 C 
BRANCH  17  18
ATOM     18  C   UNL     1      -0.747   4.085   0.500  0.00  0.00    +0.181 C 
ATOM     19  C   UNL     1      -1.221   2.687   0.094  0.00  0.00    +0.202 C 
ATOM     20  C   UNL     1      -2.444   2.816  -0.819  0.00  0.00    +0.179 C 
ATOM     21  C   UNL     1      -2.075   3.679  -2.030  0.00  0.00    +0.171 C 
ATOM     22  C   UNL     1      -1.569   5.039  -1.542  0.00  0.00    +0.197 C 
ATOM     23  O   UNL     1      -0.450   4.845  -0.673  0.00  0.00    -0.345 OA
BRANCH  21  24
ATOM     24  O   UNL     1      -1.050   3.030  -2.784  0.00  0.00    -0.387 OA
ATOM     25  H   UNL     1      -0.766   3.522  -3.567  0.00  0.00    +0.210 HD
ENDBRANCH  21  24
BRANCH  20  26
ATOM     26  O   UNL     1      -2.848   1.519  -1.262  0.00  0.00    -0.386 OA
ATOM     27  H   UNL     1      -3.619   1.525  -1.846  0.00  0.00    +0.210 HD
ENDBRANCH  20  26
BRANCH  19  28
ATOM     28  O   UNL     1      -1.573   1.944   1.262  0.00  0.00    -0.384 OA
ATOM     29  H   UNL     1      -1.887   1.048   1.079  0.00  0.00    +0.210 HD
ENDBRANCH  19  28
BRANCH  18  30
ATOM     30  O   UNL     1      -1.777   4.739   1.244  0.00  0.00    -0.364 OA
ATOM     31  H   UNL     1      -1.643   5.691   1.347  0.00  0.00    +0.213 HD
ENDBRANCH  18  30
ENDBRANCH  17  18
ENDBRANCH   1  17
TORSDOF 10
