REMARK  Name = ZINC53112685
REMARK  7 active torsions:
REMARK  status: ('A' for Active; 'I' for Inactive)
REMARK    1  A    between atoms: C_3  and  N_20
REMARK    2  A    between atoms: C_6  and  C_7
REMARK    3  A    between atoms: C_7  and  S_8
REMARK    4  A    between atoms: S_8  and  N_11
REMARK    5  A    between atoms: N_11  and  C_12
REMARK    6  A    between atoms: C_12  and  C_18
REMARK    7  A    between atoms: C_18  and  O_19
REMARK                            x       y       z     vdW  Elec       q    Type
REMARK                         _______ _______ _______ _____ _____    ______ ____
ROOT
ATOM      1  S   UNL     1      -3.069  -2.253  -3.098  0.00  0.00    +0.034 S 
ATOM      2  O   UNL     1      -4.280  -2.984  -3.240  0.00  0.00    -0.158 OA
ATOM      3  O   UNL     1      -1.815  -2.876  -3.337  0.00  0.00    -0.158 OA
ENDROOT
BRANCH   1   4
ATOM      4  N   UNL     1      -3.026  -1.814  -1.502  0.00  0.00    -0.186 NA
ATOM      5  H   UNL     1      -2.200  -1.892  -1.000  0.00  0.00    +0.148 HD
BRANCH   4   6
ATOM      6  C   UNL     1      -4.236  -1.308  -0.848  0.00  0.00    +0.063 C 
ATOM      7  C   UNL     1      -3.884  -0.797   0.550  0.00  0.00    +0.026 C 
ATOM      8  C   UNL     1      -3.297  -1.942   1.379  0.00  0.00    +0.002 C 
ATOM      9  C   UNL     1      -4.325  -3.069   1.491  0.00  0.00    +0.000 C 
ATOM     10  C   UNL     1      -4.677  -3.580   0.093  0.00  0.00    +0.002 C 
ATOM     11  C   UNL     1      -5.264  -2.436  -0.736  0.00  0.00    +0.026 C 
BRANCH   6  12
ATOM     12  C   UNL     1      -4.823  -0.164  -1.677  0.00  0.00    +0.179 C 
BRANCH  12  13
ATOM     13  O   UNL     1      -3.818   0.828  -1.899  0.00  0.00    -0.393 OA
ATOM     14  H   UNL     1      -4.120   1.585  -2.419  0.00  0.00    +0.209 HD
ENDBRANCH  12  13
ENDBRANCH   6  12
ENDBRANCH   4   6
ENDBRANCH   1   4
BRANCH   1  15
ATOM     15  C   UNL     1      -3.174  -0.689  -4.010  0.00  0.00    +0.220 C 
BRANCH  15  21
ATOM     16  C   UNL     1      -4.092  -1.221  -6.276  0.00  0.00    +0.007 A 
ATOM     17  C   UNL     1      -3.929  -1.463  -7.626  0.00  0.00    +0.023 A 
ATOM     18  C   UNL     1      -2.658  -1.435  -8.186  0.00  0.00    +0.025 A 
ATOM     19  C   UNL     1      -1.555  -1.164  -7.386  0.00  0.00    +0.023 A 
ATOM     20  C   UNL     1      -1.726  -0.923  -6.037  0.00  0.00    +0.007 A 
ATOM     21  C   UNL     1      -2.992  -0.952  -5.482  0.00  0.00    -0.025 A 
BRANCH  18  22
ATOM     22  N   UNL     1      -2.490  -1.679  -9.551  0.00  0.00    -0.358 N 
ATOM     23  H   UNL     1      -3.260  -1.868 -10.109  0.00  0.00    +0.142 HD
ATOM     24  H   UNL     1      -1.602  -1.659  -9.941  0.00  0.00    +0.142 HD
ENDBRANCH  18  22
ENDBRANCH  15  21
ENDBRANCH   1  15
TORSDOF 7
