REMARK  Name = ZINC24256313
REMARK  8 active torsions:
REMARK  status: ('A' for Active; 'I' for Inactive)
REMARK    1  A    between atoms: C_1  and  C_2
REMARK    2  A    between atoms: C_2  and  C_4
REMARK    3  A    between atoms: C_2  and  N_13
REMARK    4  A    between atoms: N_9  and  C_10
REMARK    5  A    between atoms: C_10  and  C_11
REMARK    6  A    between atoms: N_13  and  C_14
REMARK    7  A    between atoms: C_14  and  C_15
REMARK    8  A    between atoms: C_14  and  C_21
REMARK                            x       y       z     vdW  Elec       q    Type
REMARK                         _______ _______ _______ _____ _____    ______ ____
ROOT
ATOM      1  N   UNL     1       4.665  -0.025   0.846  0.00  0.00    +0.394 N 
ATOM      2  H   UNL     1       4.489   1.059   0.786  0.00  0.00    -0.083 HD
ATOM      3  H   UNL     1       5.686  -0.250   0.503  0.00  0.00    -0.083 HD
ENDROOT
BRANCH   1   5
ATOM      4  C   UNL     1       3.400   0.344   2.910  0.00  0.00    -0.004 C 
ATOM      5  C   UNL     1       4.506  -0.471   2.236  0.00  0.00    +0.015 C 
BRANCH   5   6
ATOM      6  C   UNL     1       5.801  -0.271   2.980  0.00  0.00    +0.206 C 
ATOM      7  O   UNL     1       6.762   0.198   2.408  0.00  0.00    -0.277 OA
ATOM      8  N   UNL     1       5.891  -0.612   4.281  0.00  0.00    -0.242 N 
ATOM      9  C   UNL     1       7.050  -0.432   4.946  0.00  0.00    +0.306 C 
ATOM     10  O   UNL     1       8.013   0.037   4.372  0.00  0.00    -0.252 OA
ATOM     11  N   UNL     1       7.140  -0.773   6.246  0.00  0.00    -0.296 N 
ATOM     12  H   UNL     1       5.019  -1.037   4.799  0.00  0.00    +0.159 HD
ATOM     13  H   UNL     1       6.268  -1.198   6.765  0.00  0.00    +0.151 HD
BRANCH  11  14
ATOM     14  C   UNL     1       8.399  -0.579   6.969  0.00  0.00    +0.132 C 
BRANCH  14  15
ATOM     15  C   UNL     1       8.235  -1.036   8.396  0.00  0.00    -0.016 C 
ATOM     16  C   UNL     1       9.054  -1.928   8.896  0.00  0.00    +0.005 C 
ENDBRANCH  14  15
ENDBRANCH  11  14
ENDBRANCH   5   6
ENDBRANCH   1   5
BRANCH   1  17
ATOM     17  C   UNL     1       3.711  -0.707  -0.039  0.00  0.00    -0.009 C 
BRANCH  17  18
ATOM     18  C   UNL     1       2.396   0.029  -0.022  0.00  0.00    -0.057 A 
ATOM     19  C   UNL     1       1.208  -0.679  -0.014  0.00  0.00    +0.002 A 
ATOM     20  C   UNL     1       0.002  -0.004   0.002  0.00  0.00    +0.000 A 
ATOM     21  C   UNL     1      -0.017   1.378   0.010  0.00  0.00    +0.000 A 
ATOM     22  C   UNL     1       1.171   2.086   0.002  0.00  0.00    +0.000 A 
ATOM     23  C   UNL     1       2.377   1.411  -0.014  0.00  0.00    +0.002 A 
ENDBRANCH  17  18
BRANCH  17  24
ATOM     24  C   UNL     1       4.256  -0.730  -1.444  0.00  0.00    -0.057 A 
ATOM     25  C   UNL     1       4.904   0.381  -1.951  0.00  0.00    +0.002 A 
ATOM     26  C   UNL     1       5.408   0.359  -3.238  0.00  0.00    +0.000 A 
ATOM     27  C   UNL     1       5.255  -0.770  -4.021  0.00  0.00    +0.000 A 
ATOM     28  C   UNL     1       4.602  -1.879  -3.515  0.00  0.00    +0.000 A 
ATOM     29  C   UNL     1       4.103  -1.859  -2.226  0.00  0.00    +0.002 A 
ENDBRANCH  17  24
ENDBRANCH   1  17
TORSDOF 7
