REMARK  Name = ZINC35458390
REMARK  10 active torsions:
REMARK  status: ('A' for Active; 'I' for Inactive)
REMARK    1  A    between atoms: C_1  and  C_2
REMARK    2  A    between atoms: C_6  and  O_40
REMARK    3  A    between atoms: C_10  and  O_12
REMARK    4  A    between atoms: O_12  and  C_13
REMARK    5  A    between atoms: C_15  and  O_27
REMARK    6  A    between atoms: C_17  and  O_26
REMARK    7  A    between atoms: C_19  and  O_25
REMARK    8  A    between atoms: C_21  and  C_24
REMARK    9  A    between atoms: C_28  and  O_39
REMARK   10  A    between atoms: C_34  and  O_38
REMARK                            x       y       z     vdW  Elec       q    Type
REMARK                         _______ _______ _______ _____ _____    ______ ____
ROOT
ATOM      1  C   UNL     1      -0.018   1.503   0.010  0.00  0.00    +0.044 C 
ATOM      2  C   UNL     1       0.002  -0.004   0.002  0.00  0.00    -0.046 A 
ATOM      3  C   UNL     1       0.005  -0.667  -1.188  0.00  0.00    +0.012 A 
ATOM      4  C   UNL     1       0.025  -2.072  -1.208  0.00  0.00    -0.010 A 
ATOM      5  C   UNL     1       0.029  -2.774  -2.427  0.00  0.00    +0.054 A 
ATOM      6  C   UNL     1       0.051  -4.136  -2.422  0.00  0.00    +0.129 A 
ATOM      7  C   UNL     1       0.071  -4.853  -1.205  0.00  0.00    +0.070 A 
ATOM      8  C   UNL     1       0.058  -4.191   0.011  0.00  0.00    +0.011 A 
ATOM      9  C   UNL     1       0.041  -2.786   0.016  0.00  0.00    +0.031 A 
ATOM     10  C   UNL     1       0.037  -2.071   1.234  0.00  0.00    +0.132 A 
ATOM     11  C   UNL     1       0.023  -0.695   1.210  0.00  0.00    +0.049 A 
ATOM     12  C   UNL     1       0.050  -4.921   1.319  0.00  0.00    +0.177 C 
ATOM     13  C   UNL     1       0.497  -6.348   1.220  0.00  0.00    -0.000 A 
ATOM     14  C   UNL     1       0.900  -7.009   2.367  0.00  0.00    +0.007 A 
ATOM     15  C   UNL     1       1.309  -8.329   2.313  0.00  0.00    +0.004 A 
ATOM     16  C   UNL     1       1.323  -9.013   1.113  0.00  0.00    +0.046 A 
ATOM     17  C   UNL     1       0.927  -8.370  -0.051  0.00  0.00    +0.128 A 
ATOM     18  C   UNL     1       0.517  -7.032   0.004  0.00  0.00    +0.070 A 
ATOM     19  C   UNL     1       0.114  -6.330  -1.232  0.00  0.00    +0.201 C 
ATOM     20  O   UNL     1      -0.174  -6.948  -2.239  0.00  0.00    -0.286 OA
ENDROOT
BRANCH  17  21
ATOM     21  O   UNL     1       0.937  -9.033  -1.234  0.00  0.00    -0.506 OA
ATOM     22  H   UNL     1       0.107  -9.486  -1.438  0.00  0.00    +0.292 HD
ENDBRANCH  17  21
BRANCH  12  23
ATOM     23  O   UNL     1      -1.279  -4.898   1.846  0.00  0.00    -0.382 OA
ATOM     24  H   UNL     1      -1.373  -5.351   2.695  0.00  0.00    +0.211 HD
ENDBRANCH  12  23
BRANCH   6  25
ATOM     25  O   UNL     1       0.056  -4.811  -3.599  0.00  0.00    -0.506 OA
ATOM     26  H   UNL     1       0.940  -4.993  -3.945  0.00  0.00    +0.292 HD
ENDBRANCH   6  25
BRANCH  10  27
ATOM     27  O   UNL     1       0.053  -2.736   2.417  0.00  0.00    -0.460 OA
BRANCH  27  28
ATOM     28  C   UNL     1       0.049  -1.943   3.606  0.00  0.00    +0.339 C 
ATOM     29  C   UNL     1      -0.057  -2.858   4.829  0.00  0.00    +0.214 C 
ATOM     30  C   UNL     1       1.173  -3.769   4.883  0.00  0.00    +0.180 C 
ATOM     31  C   UNL     1       2.436  -2.903   4.912  0.00  0.00    +0.174 C 
ATOM     32  C   UNL     1       2.445  -1.987   3.686  0.00  0.00    +0.150 C 
ATOM     33  O   UNL     1       1.260  -1.188   3.681  0.00  0.00    -0.334 OA
ATOM     34  C   UNL     1       3.674  -1.076   3.739  0.00  0.00    +0.041 C 
BRANCH  31  35
ATOM     35  O   UNL     1       3.592  -3.743   4.891  0.00  0.00    -0.387 OA
ATOM     36  H   UNL     1       4.429  -3.260   4.907  0.00  0.00    +0.210 HD
ENDBRANCH  31  35
BRANCH  30  37
ATOM     37  O   UNL     1       1.118  -4.577   6.060  0.00  0.00    -0.386 OA
ATOM     38  H   UNL     1       0.339  -5.148   6.110  0.00  0.00    +0.210 HD
ENDBRANCH  30  37
BRANCH  29  39
ATOM     39  O   UNL     1      -0.117  -2.064   6.016  0.00  0.00    -0.383 OA
ATOM     40  H   UNL     1      -0.870  -1.459   6.047  0.00  0.00    +0.210 HD
ENDBRANCH  29  39
ENDBRANCH  27  28
ENDBRANCH  10  27
TORSDOF 8
