REMARK  Name = ZINC10815559
REMARK  14 active torsions:
REMARK  status: ('A' for Active; 'I' for Inactive)
REMARK    1  A    between atoms: C_1  and  C_2
REMARK    2  A    between atoms: C_2  and  N_64
REMARK    3  A    between atoms: C_3  and  C_4
REMARK    4  A    between atoms: C_3  and  N_64
REMARK    5  A    between atoms: C_5  and  C_6
REMARK    6  A    between atoms: C_5  and  N_64
REMARK    7  A    between atoms: C_6  and  N_7
REMARK    8  A    between atoms: C_16  and  S_17
REMARK    9  A    between atoms: S_17  and  C_20
REMARK   10  A    between atoms: C_21  and  C_23
REMARK   11  A    between atoms: C_27  and  S_29
REMARK   12  A    between atoms: S_29  and  C_30
REMARK   13  A    between atoms: C_30  and  C_31
REMARK   14  A    between atoms: C_30  and  C_32
REMARK                            x       y       z     vdW  Elec       q    Type
REMARK                         _______ _______ _______ _____ _____    ______ ____
ROOT
ATOM      1  N   UNL     1       1.054   6.052   0.082  0.00  0.00    -0.248 N 
ATOM      2  C   UNL     1       1.054   7.407  -0.199  0.00  0.00    +0.168 A 
ATOM      3  N   UNL     1       0.040   8.239  -0.247  0.00  0.00    -0.222 NA
ATOM      4  C   UNL     1       0.189   9.550  -0.533  0.00  0.00    +0.105 A 
ATOM      5  C   UNL     1       1.513   9.975  -0.788  0.00  0.00    +0.043 A 
ATOM      6  S   UNL     1       2.437   8.469  -0.594  0.00  0.00    -0.052 S 
ATOM      7  C   UNL     1       1.828  11.274  -1.097  0.00  0.00    +0.017 A 
ATOM      8  C   UNL     1       0.823  12.222  -1.166  0.00  0.00    +0.003 A 
ATOM      9  C   UNL     1      -0.488  11.842  -0.921  0.00  0.00    +0.029 A 
ATOM     10  C   UNL     1      -0.812  10.546  -0.612  0.00  0.00    +0.114 A 
ATOM     11  C   UNL     1      -0.105   5.422   0.358  0.00  0.00    +0.252 C 
ATOM     12  O   UNL     1      -1.160   6.016   0.252  0.00  0.00    -0.270 OA
ENDROOT
BRANCH  11  13
ATOM     13  C   UNL     1      -0.093   4.009   0.792  0.00  0.00    +0.038 A 
ATOM     14  C   UNL     1       0.886   3.137   0.311  0.00  0.00    +0.013 A 
ATOM     15  C   UNL     1       0.895   1.818   0.716  0.00  0.00    +0.002 A 
ATOM     16  C   UNL     1      -0.062   1.354   1.599  0.00  0.00    +0.015 A 
ATOM     17  C   UNL     1      -1.044   2.213   2.080  0.00  0.00    +0.009 A 
ATOM     18  C   UNL     1      -1.059   3.542   1.683  0.00  0.00    +0.027 A 
BRANCH  17  19
ATOM     19  S   UNL     1      -2.266   1.614   3.200  0.00  0.00    -0.122 S 
BRANCH  19  20
ATOM     20  C   UNL     1      -3.545   0.914   2.120  0.00  0.00    +0.045 C 
ATOM     21  C   UNL     1      -3.004  -0.346   1.440  0.00  0.00    +0.019 C 
ATOM     22  C   UNL     1      -4.776   0.554   2.955  0.00  0.00    +0.019 C 
ENDBRANCH  19  20
ENDBRANCH  17  19
ENDBRANCH  11  13
BRANCH  10  23
ATOM     23  S   UNL     1      -2.494  10.117  -0.310  0.00  0.00    -0.004 S 
ATOM     24  O   UNL     1      -2.474   9.423   0.929  0.00  0.00    -0.170 OA
ATOM     25  O   UNL     1      -3.209  11.337  -0.447  0.00  0.00    -0.170 OA
ATOM     26  C   UNL     1      -2.933   8.981  -1.655  0.00  0.00    +0.200 C 
ENDBRANCH  10  23
BRANCH   1  27
ATOM     27  C   UNL     1       2.312   5.302   0.077  0.00  0.00    +0.097 C 
BRANCH  27  28
ATOM     28  C   UNL     1       2.777   5.094  -1.365  0.00  0.00    -0.059 C 
BRANCH  28  29
ATOM     29  N   UNL     1       4.088   4.412  -1.347  0.00  0.00    +0.380 N 
ATOM     30  H   UNL     1       4.668   4.825  -0.607  0.00  0.00    -0.082 HD
BRANCH  29  32
ATOM     31  C   UNL     1       3.110   2.304  -2.189  0.00  0.00    -0.017 C 
ATOM     32  C   UNL     1       3.905   2.973  -1.067  0.00  0.00    -0.082 C 
ENDBRANCH  29  32
BRANCH  29  33
ATOM     33  C   UNL     1       4.769   4.591  -2.647  0.00  0.00    -0.082 C 
ATOM     34  C   UNL     1       6.171   3.984  -2.559  0.00  0.00    -0.017 C 
ENDBRANCH  29  33
ENDBRANCH  28  29
ENDBRANCH  27  28
ENDBRANCH   1  27
TORSDOF 9
