REMARK  Name = ZINC03995925
REMARK  12 active torsions:
REMARK  status: ('A' for Active; 'I' for Inactive)
REMARK    1  A    between atoms: C_1  and  C_2
REMARK    2  A    between atoms: C_4  and  O_42
REMARK    3  A    between atoms: C_6  and  N_67
REMARK    4  A    between atoms: C_9  and  O_12
REMARK    5  A    between atoms: O_12  and  C_13
REMARK    6  A    between atoms: C_16  and  C_38
REMARK    7  A    between atoms: C_16  and  O_41
REMARK    8  A    between atoms: C_20  and  O_37
REMARK    9  A    between atoms: C_23  and  O_24
REMARK   10  A    between atoms: C_31  and  O_35
REMARK   11  A    between atoms: O_35  and  C_36
REMARK   12  A    between atoms: C_38  and  C_40
REMARK                            x       y       z     vdW  Elec       q    Type
REMARK                         _______ _______ _______ _____ _____    ______ ____
ROOT
ATOM      1  C   UNL     1       1.212  -2.679   0.004  0.00  0.00    +0.158 C 
ATOM      2  C   UNL     1       2.651  -3.062  -0.337  0.00  0.00    +0.079 C 
ATOM      3  C   UNL     1       3.593  -2.177   0.487  0.00  0.00    +0.130 C 
ATOM      4  C   UNL     1       3.502  -0.750  -0.048  0.00  0.00    +0.082 C 
ATOM      5  C   UNL     1       2.064  -0.305  -0.133  0.00  0.00    +0.007 A 
ATOM      6  C   UNL     1       1.015  -1.190  -0.118  0.00  0.00    +0.030 A 
ATOM      7  C   UNL     1      -0.301  -0.720  -0.211  0.00  0.00    +0.134 A 
ATOM      8  C   UNL     1      -0.561   0.644  -0.316  0.00  0.00    +0.078 A 
ATOM      9  C   UNL     1       0.516   1.554  -0.327  0.00  0.00    +0.078 A 
ATOM     10  C   UNL     1       1.820   1.071  -0.235  0.00  0.00    +0.132 A 
ATOM     11  C   UNL     1       0.258   3.000  -0.436  0.00  0.00    +0.198 C 
ATOM     12  O   UNL     1       1.187   3.785  -0.446  0.00  0.00    -0.286 OA
ATOM     13  C   UNL     1      -1.131   3.495  -0.534  0.00  0.00    +0.037 A 
ATOM     14  C   UNL     1      -1.384   4.859  -0.638  0.00  0.00    +0.012 A 
ATOM     15  C   UNL     1      -2.688   5.317  -0.729  0.00  0.00    +0.004 A 
ATOM     16  C   UNL     1      -3.746   4.430  -0.718  0.00  0.00    +0.046 A 
ATOM     17  C   UNL     1      -3.516   3.062  -0.615  0.00  0.00    +0.132 A 
ATOM     18  C   UNL     1      -2.204   2.585  -0.522  0.00  0.00    +0.075 A 
ATOM     19  C   UNL     1      -1.946   1.138  -0.407  0.00  0.00    +0.202 C 
ATOM     20  O   UNL     1      -2.875   0.353  -0.394  0.00  0.00    -0.286 OA
ENDROOT
BRANCH   3  21
ATOM     21  C   UNL     1       3.179  -2.204   1.936  0.00  0.00    +0.162 C 
ATOM     22  O   UNL     1       2.453  -1.344   2.373  0.00  0.00    -0.295 OA
ATOM     23  C   UNL     1       3.671  -3.306   2.839  0.00  0.00    +0.089 C 
ENDBRANCH   3  21
BRANCH  10  24
ATOM     24  O   UNL     1       2.861   1.940  -0.246  0.00  0.00    -0.506 OA
ATOM     25  H   UNL     1       3.203   2.133  -1.129  0.00  0.00    +0.292 HD
ENDBRANCH  10  24
BRANCH  17  26
ATOM     26  O   UNL     1      -4.558   2.195  -0.604  0.00  0.00    -0.494 OA
ATOM     27  C   UNL     1      -5.869   2.755  -0.702  0.00  0.00    +0.277 C 
ENDBRANCH  17  26
BRANCH   7  28
ATOM     28  O   UNL     1      -1.332  -1.602  -0.200  0.00  0.00    -0.506 OA
ATOM     29  H   UNL     1      -1.645  -1.853  -1.080  0.00  0.00    +0.292 HD
ENDBRANCH   7  28
BRANCH   3  30
ATOM     30  O   UNL     1       4.935  -2.653   0.361  0.00  0.00    -0.381 OA
ATOM     31  H   UNL     1       5.586  -2.127   0.845  0.00  0.00    +0.211 HD
ENDBRANCH   3  30
BRANCH   1  32
ATOM     32  O   UNL     1       0.322  -3.347  -0.891  0.00  0.00    -0.343 OA
BRANCH  32  38
ATOM     33  C   UNL     1       1.777  -7.774  -0.004  0.00  0.00    +0.040 C 
ATOM     34  C   UNL     1       0.557  -6.853   0.049  0.00  0.00    +0.145 C 
ATOM     35  C   UNL     1      -0.559  -7.434  -0.823  0.00  0.00    +0.129 C 
ATOM     36  C   UNL     1      -1.755  -6.476  -0.814  0.00  0.00    -0.039 C 
ATOM     37  C   UNL     1      -1.295  -5.098  -1.300  0.00  0.00    +0.048 C 
ATOM     38  C   UNL     1      -0.150  -4.607  -0.410  0.00  0.00    +0.250 C 
ATOM     39  O   UNL     1       0.916  -5.559  -0.439  0.00  0.00    -0.346 OA
BRANCH  36  42
ATOM     40  H   UNL     1      -3.602  -6.373  -1.716  0.00  0.00    -0.090 HD
ATOM     41  H   UNL     1      -2.445  -7.133  -2.638  0.00  0.00    -0.090 HD
ATOM     42  N   UNL     1      -2.808  -7.011  -1.694  0.00  0.00    +0.382 N 
ATOM     43  H   UNL     1      -3.119  -7.921  -1.335  0.00  0.00    -0.090 HD
ENDBRANCH  36  42
BRANCH  35  44
ATOM     44  O   UNL     1      -0.086  -7.593  -2.162  0.00  0.00    -0.391 OA
ATOM     45  H   UNL     1       0.675  -8.184  -2.242  0.00  0.00    +0.210 HD
ENDBRANCH  35  44
ENDBRANCH  32  38
ENDBRANCH   1  32
TORSDOF 9
