REMARK  Name = ZINC54095987
REMARK  8 active torsions:
REMARK  status: ('A' for Active; 'I' for Inactive)
REMARK    1  A    between atoms: C_1  and  C_2
REMARK    2  A    between atoms: C_5  and  C_11
REMARK    3  A    between atoms: C_6  and  C_10
REMARK    4  A    between atoms: C_7  and  O_8
REMARK    5  A    between atoms: O_8  and  C_9
REMARK    6  A    between atoms: C_11  and  N_12
REMARK    7  A    between atoms: C_15  and  C_18
REMARK    8  A    between atoms: C_15  and  N_21
REMARK                            x       y       z     vdW  Elec       q    Type
REMARK                         _______ _______ _______ _____ _____    ______ ____
ROOT
ATOM      1  N   UNL     1      -0.974  -4.651   0.705  0.00  0.00    -0.297 NA
ATOM      2  C   UNL     1      -1.461  -4.197   2.013  0.00  0.00    +0.084 C 
ATOM      3  C   UNL     1      -2.970  -4.435   2.107  0.00  0.00    +0.013 C 
ATOM      4  C   UNL     1      -3.260  -5.927   1.923  0.00  0.00    +0.015 C 
ATOM      5  C   UNL     1      -2.699  -6.386   0.574  0.00  0.00    +0.013 C 
ATOM      6  C   UNL     1      -1.198  -6.091   0.525  0.00  0.00    +0.084 C 
ENDROOT
BRANCH   4   7
ATOM      7  N   UNL     1      -4.711  -6.153   1.954  0.00  0.00    +0.389 N 
ATOM      8  C   UNL     1      -5.246  -5.711   3.248  0.00  0.00    -0.077 C 
ATOM      9  C   UNL     1      -6.768  -5.869   3.255  0.00  0.00    -0.019 C 
ATOM     10  C   UNL     1      -7.124  -7.341   3.030  0.00  0.00    -0.004 C 
ATOM     11  C   UNL     1      -6.498  -7.813   1.715  0.00  0.00    -0.019 C 
ATOM     12  C   UNL     1      -4.986  -7.583   1.764  0.00  0.00    -0.077 C 
ATOM     13  H   UNL     1      -5.148  -5.626   1.214  0.00  0.00    -0.080 HD
ENDBRANCH   4   7
BRANCH   4  14
ATOM     14  C   UNL     1      -2.603  -6.708   3.033  0.00  0.00    +0.200 C 
ATOM     15  O   UNL     1      -2.190  -6.132   4.017  0.00  0.00    -0.278 OA
ATOM     16  N   UNL     1      -2.475  -8.045   2.932  0.00  0.00    -0.330 N 
ATOM     17  H   UNL     1      -2.730  -8.496   2.111  0.00  0.00    +0.145 HD
ATOM     18  H   UNL     1      -2.128  -8.557   3.679  0.00  0.00    +0.145 HD
ENDBRANCH   4  14
BRANCH   1  19
ATOM     19  C   UNL     1       0.444  -4.313   0.525  0.00  0.00    +0.138 C 
BRANCH  19  24
ATOM     20  C   UNL     1       1.071   1.386   0.318  0.00  0.00    +0.049 C 
ATOM     21  C   UNL     1       0.891  -0.110   0.336  0.00  0.00    +0.007 A 
ATOM     22  C   UNL     1       1.262  -0.846   1.442  0.00  0.00    +0.089 A 
ATOM     23  N   UNL     1       1.108  -2.156   1.466  0.00  0.00    -0.363 N 
ATOM     24  C   UNL     1       0.597  -2.816   0.443  0.00  0.00    +0.037 A 
ATOM     25  C   UNL     1       0.202  -2.152  -0.700  0.00  0.00    +0.012 A 
ATOM     26  C   UNL     1       0.343  -0.768  -0.762  0.00  0.00    +0.129 A 
ATOM     27  C   UNL     1      -0.380  -2.914  -1.863  0.00  0.00    +0.049 C 
ATOM     28  H   UNL     1       1.377  -2.648   2.257  0.00  0.00    +0.165 HD
BRANCH  26  29
ATOM     29  O   UNL     1      -0.039  -0.079  -1.868  0.00  0.00    -0.494 OA
ATOM     30  C   UNL     1       0.943   0.105  -2.889  0.00  0.00    +0.277 C 
ENDBRANCH  26  29
ENDBRANCH  19  24
ENDBRANCH   1  19
TORSDOF 5
