REMARK  Name = ZINC58112943
REMARK  4 active torsions:
REMARK  status: ('A' for Active; 'I' for Inactive)
REMARK    1  A    between atoms: C_1  and  C_2
REMARK    2  A    between atoms: C_4  and  C_13
REMARK    3  A    between atoms: C_13  and  C_15
REMARK    4  A    between atoms: C_13  and  O_16
REMARK                            x       y       z     vdW  Elec       q    Type
REMARK                         _______ _______ _______ _____ _____    ______ ____
ROOT
ATOM      1  C   UNL     1      -0.018   1.503   0.010  0.00  0.00    +0.045 C 
ATOM      2  C   UNL     1       0.002  -0.004   0.002  0.00  0.00    -0.029 A 
ATOM      3  C   UNL     1       0.006  -0.689  -1.198  0.00  0.00    +0.011 A 
ATOM      4  C   UNL     1       0.024  -2.072  -1.206  0.00  0.00    -0.019 A 
ATOM      5  C   UNL     1       0.039  -2.774  -0.014  0.00  0.00    +0.011 A 
ATOM      6  C   UNL     1       0.036  -2.095   1.188  0.00  0.00    -0.025 A 
ATOM      7  C   UNL     1       0.023  -0.706   1.200  0.00  0.00    +0.040 A 
ATOM      8  N   UNL     1       0.026  -0.018   2.417  0.00  0.00    -0.285 N 
ATOM      9  C   UNL     1       0.413  -0.636   3.548  0.00  0.00    +0.218 C 
ATOM     10  O   UNL     1       0.395  -0.030   4.599  0.00  0.00    -0.275 OA
ATOM     11  C   UNL     1       0.869  -2.071   3.525  0.00  0.00    +0.101 C 
ATOM     12  C   UNL     1       0.052  -2.855   2.488  0.00  0.00    +0.046 C 
ATOM     13  H   UNL     1      -0.253   0.910   2.447  0.00  0.00    +0.155 HD
ENDROOT
BRANCH   4  14
ATOM     14  C   UNL     1       0.028  -2.816  -2.517  0.00  0.00    +0.141 C 
ATOM     15  C   UNL     1       1.464  -2.939  -3.029  0.00  0.00    +0.043 C 
BRANCH  14  16
ATOM     16  O   UNL     1      -0.759  -2.101  -3.472  0.00  0.00    -0.387 OA
ATOM     17  H   UNL     1      -0.802  -2.523  -4.341  0.00  0.00    +0.210 HD
ENDBRANCH  14  16
ENDBRANCH   4  14
TORSDOF 2
