REMARK  Name = ZINC16572771
REMARK  9 active torsions:
REMARK  status: ('A' for Active; 'I' for Inactive)
REMARK    1  A    between atoms: C_1  and  C_2
REMARK    2  A    between atoms: C_2  and  C_3
REMARK    3  A    between atoms: C_3  and  C_5
REMARK    4  A    between atoms: C_3  and  C_6
REMARK    5  A    between atoms: C_6  and  C_8
REMARK    6  A    between atoms: C_6  and  N_23
REMARK    7  A    between atoms: C_14  and  C_16
REMARK    8  A    between atoms: N_26  and  C_27
REMARK    9  A    between atoms: C_32  and  C_33
REMARK                            x       y       z     vdW  Elec       q    Type
REMARK                         _______ _______ _______ _____ _____    ______ ____
ROOT
ATOM      1  C   UNL     1      -2.465  -2.644   0.316  0.00  0.00    +0.163 C 
ENDROOT
BRANCH   1   2
ATOM      2  C   UNL     1      -1.364  -1.638   0.098  0.00  0.00    +0.239 C 
ATOM      3  O   UNL     1      -0.243  -2.015  -0.170  0.00  0.00    -0.273 OA
ATOM      4  N   UNL     1      -1.626  -0.320   0.200  0.00  0.00    -0.262 N 
ATOM      5  C   UNL     1      -0.592   0.603   0.103  0.00  0.00    +0.188 A 
ATOM      6  N   UNL     1       0.703   0.401  -0.086  0.00  0.00    -0.125 NA
ATOM      7  N   UNL     1       1.525   1.356  -0.151  0.00  0.00    -0.140 NA
ATOM      8  C   UNL     1       1.108   2.610  -0.031  0.00  0.00    +0.134 A 
ATOM      9  S   UNL     1      -0.645   2.339   0.197  0.00  0.00    -0.030 S 
ATOM     10  H   UNL     1      -2.536  -0.016   0.341  0.00  0.00    +0.157 HD
BRANCH   8  11
ATOM     11  C   UNL     1       1.875   3.873  -0.074  0.00  0.00    +0.010 A 
ATOM     12  C   UNL     1       3.257   3.848  -0.266  0.00  0.00    +0.011 A 
ATOM     13  C   UNL     1       3.968   5.030  -0.306  0.00  0.00    +0.002 A 
ATOM     14  C   UNL     1       3.313   6.240  -0.156  0.00  0.00    +0.015 A 
ATOM     15  C   UNL     1       1.942   6.272   0.034  0.00  0.00    +0.019 A 
ATOM     16  C   UNL     1       1.219   5.096   0.071  0.00  0.00    +0.026 A 
ATOM     17 BR   UNL     1       1.057   7.931   0.237  0.00  0.00    -0.050 Br
ENDBRANCH   8  11
ENDBRANCH   1   2
BRANCH   1  18
ATOM     18  N   UNL     1      -1.947  -3.994   0.080  0.00  0.00    -0.288 N 
ATOM     19  C   UNL     1      -2.749  -4.941  -0.444  0.00  0.00    +0.304 C 
ATOM     20  O   UNL     1      -3.872  -4.653  -0.810  0.00  0.00    -0.252 OA
ATOM     21  N   UNL     1      -2.307  -6.209  -0.563  0.00  0.00    -0.269 N 
ATOM     22  H   UNL     1      -1.026  -4.206   0.301  0.00  0.00    +0.151 HD
ATOM     23  H   UNL     1      -1.434  -6.452  -0.217  0.00  0.00    +0.156 HD
BRANCH  21  24
ATOM     24  C   UNL     1      -3.107  -7.174  -1.185  0.00  0.00    +0.038 A 
ATOM     25  C   UNL     1      -4.491  -7.073  -1.128  0.00  0.00    +0.023 A 
ATOM     26  C   UNL     1      -5.277  -8.024  -1.746  0.00  0.00    +0.002 A 
ATOM     27  C   UNL     1      -4.689  -9.083  -2.414  0.00  0.00    +0.000 A 
ATOM     28  C   UNL     1      -3.311  -9.190  -2.468  0.00  0.00    +0.005 A 
ATOM     29  C   UNL     1      -2.519  -8.238  -1.855  0.00  0.00    -0.029 A 
ATOM     30  C   UNL     1      -1.018  -8.356  -1.914  0.00  0.00    +0.045 C 
ENDBRANCH  21  24
ENDBRANCH   1  18
BRANCH   1  31
ATOM     31  C   UNL     1      -2.975  -2.538   1.754  0.00  0.00    +0.015 C 
ATOM     32  C   UNL     1      -4.192  -3.448   1.933  0.00  0.00    +0.010 C 
BRANCH  31  34
ATOM     33  C   UNL     1      -0.732  -1.947   2.684  0.00  0.00    +0.004 C 
ATOM     34  C   UNL     1      -1.870  -2.969   2.720  0.00  0.00    +0.002 C 
ENDBRANCH  31  34
ENDBRANCH   1  31
TORSDOF 6
