REMARK  Name = ZINC55594198
REMARK  6 active torsions:
REMARK  status: ('A' for Active; 'I' for Inactive)
REMARK    1  A    between atoms: C_1  and  C_2
REMARK    2  A    between atoms: C_6  and  S_8
REMARK    3  A    between atoms: S_8  and  N_11
REMARK    4  A    between atoms: N_11  and  C_12
REMARK    5  A    between atoms: C_16  and  C_18
REMARK    6  A    between atoms: C_18  and  C_25
REMARK                            x       y       z     vdW  Elec       q    Type
REMARK                         _______ _______ _______ _____ _____    ______ ____
ROOT
ATOM      1  C   UNL     1      -1.510  -4.872   1.740  0.00  0.00    +0.048 A 
ATOM      2  C   UNL     1      -1.032  -4.721   0.444  0.00  0.00    +0.024 A 
ATOM      3  C   UNL     1      -1.188  -5.743  -0.471  0.00  0.00    +0.002 A 
ATOM      4  C   UNL     1      -1.819  -6.916  -0.100  0.00  0.00    +0.006 A 
ATOM      5  C   UNL     1      -2.297  -7.069   1.189  0.00  0.00    -0.014 A 
ATOM      6  C   UNL     1      -2.139  -6.053   2.111  0.00  0.00    +0.030 A 
ENDROOT
BRANCH   5   7
ATOM      7  C   UNL     1      -2.985  -8.349   1.589  0.00  0.00    +0.135 C 
ATOM      8  C   UNL     1      -2.169  -9.091   2.629  0.00  0.00    +0.248 C 
ATOM      9  O   UNL     1      -1.867  -8.702   3.736  0.00  0.00    -0.273 OA
ATOM     10  N   UNL     1      -1.850 -10.273   2.066  0.00  0.00    -0.238 N 
ATOM     11  C   UNL     1      -2.346 -10.380   0.827  0.00  0.00    +0.307 C 
ATOM     12  O   UNL     1      -2.190 -11.355   0.119  0.00  0.00    -0.252 OA
ATOM     13  N   UNL     1      -3.036  -9.287   0.454  0.00  0.00    -0.282 N 
ATOM     14  C   UNL     1      -4.394  -8.059   2.111  0.00  0.00    +0.047 C 
ATOM     15  H   UNL     1      -1.325 -10.961   2.504  0.00  0.00    +0.159 HD
ATOM     16  H   UNL     1      -3.480  -9.144  -0.396  0.00  0.00    +0.152 HD
ENDBRANCH   5   7
BRANCH   1  17
ATOM     17  N   UNL     1      -1.353  -3.840   2.668  0.00  0.00    -0.216 N 
ATOM     18  H   UNL     1      -2.099  -3.576   3.229  0.00  0.00    +0.174 HD
BRANCH  17  19
ATOM     19  S   UNL     1       0.105  -3.069   2.811  0.00  0.00    +0.075 S 
ATOM     20  O   UNL     1      -0.019  -2.164   3.899  0.00  0.00    -0.150 OA
ATOM     21  O   UNL     1       0.470  -2.645   1.505  0.00  0.00    -0.150 OA
BRANCH  19  27
ATOM     22  C   UNL     1       4.382  -5.929   1.893  0.00  0.00    +0.044 C 
ATOM     23  C   UNL     1       3.254  -5.565   2.823  0.00  0.00    -0.048 A 
ATOM     24  C   UNL     1       3.149  -6.182   4.056  0.00  0.00    +0.006 A 
ATOM     25  C   UNL     1       2.115  -5.849   4.910  0.00  0.00    +0.040 A 
ATOM     26  C   UNL     1       1.184  -4.897   4.531  0.00  0.00    +0.150 A 
ATOM     27  C   UNL     1       1.290  -4.280   3.296  0.00  0.00    +0.144 A 
ATOM     28  C   UNL     1       2.328  -4.611   2.446  0.00  0.00    +0.035 A 
ATOM     29  F   UNL     1       0.172  -4.570   5.365  0.00  0.00    -0.203 F 
ENDBRANCH  19  27
ENDBRANCH  17  19
ENDBRANCH   1  17
TORSDOF 4
