REMARK  Name = ZINC53629488
REMARK  9 active torsions:
REMARK  status: ('A' for Active; 'I' for Inactive)
REMARK    1  A    between atoms: C_1  and  C_2
REMARK    2  A    between atoms: C_2  and  N_27
REMARK    3  A    between atoms: C_4  and  C_19
REMARK    4  A    between atoms: N_6  and  C_9
REMARK    5  A    between atoms: C_22  and  O_25
REMARK    6  A    between atoms: O_25  and  C_26
REMARK    7  A    between atoms: N_27  and  C_28
REMARK    8  A    between atoms: C_28  and  C_29
REMARK    9  A    between atoms: C_29  and  C_30
REMARK                            x       y       z     vdW  Elec       q    Type
REMARK                         _______ _______ _______ _____ _____    ______ ____
ROOT
ATOM      1  C   UNL     1      -0.667   1.428   0.086  0.00  0.00    +0.061 C 
ATOM      2  C   UNL     1      -0.333  -0.041   0.041  0.00  0.00    +0.015 C 
ATOM      3  C   UNL     1      -0.031  -0.717   1.208  0.00  0.00    +0.082 C 
ATOM      4  C   UNL     1       0.143  -0.140   2.555  0.00  0.00    +0.103 C 
ATOM      5  N   UNL     1       0.418  -1.128   3.366  0.00  0.00    -0.174 NA
ATOM      6  N   UNL     1       0.443  -2.334   2.664  0.00  0.00    -0.157 N 
ATOM      7  C   UNL     1       0.171  -2.117   1.363  0.00  0.00    +0.272 C 
ATOM      8  O   UNL     1       0.111  -2.961   0.484  0.00  0.00    -0.268 OA
ENDROOT
BRANCH   6   9
ATOM      9  C   UNL     1       0.720  -3.645   3.257  0.00  0.00    +0.249 C 
ATOM     10  N   UNL     1       2.019  -3.652   3.942  0.00  0.00    -0.315 N 
ATOM     11  C   UNL     1       2.022  -3.894   5.315  0.00  0.00    +0.043 A 
ATOM     12  C   UNL     1       3.163  -3.939   6.136  0.00  0.00    +0.024 A 
ATOM     13  C   UNL     1       3.061  -4.187   7.485  0.00  0.00    +0.002 A 
ATOM     14  C   UNL     1       1.832  -4.400   8.081  0.00  0.00    +0.001 A 
ATOM     15  C   UNL     1       0.691  -4.361   7.297  0.00  0.00    +0.016 A 
ATOM     16  C   UNL     1       0.794  -4.114   5.947  0.00  0.00    +0.032 A 
ATOM     17  S   UNL     1      -0.422  -3.993   4.654  0.00  0.00    -0.080 S 
ATOM     18  H   UNL     1       2.844  -3.494   3.458  0.00  0.00    +0.149 HD
ENDBRANCH   6   9
BRANCH   4  19
ATOM     19  C   UNL     1       0.028   1.292   2.921  0.00  0.00    +0.003 A 
ATOM     20  C   UNL     1      -0.957   1.708   3.817  0.00  0.00    +0.013 A 
ATOM     21  C   UNL     1      -1.061   3.040   4.154  0.00  0.00    +0.046 A 
ATOM     22  C   UNL     1      -0.187   3.968   3.603  0.00  0.00    +0.120 A 
ATOM     23  C   UNL     1       0.794   3.558   2.710  0.00  0.00    +0.046 A 
ATOM     24  C   UNL     1       0.907   2.226   2.373  0.00  0.00    +0.013 A 
BRANCH  22  25
ATOM     25  O   UNL     1      -0.293   5.281   3.938  0.00  0.00    -0.495 OA
ATOM     26  C   UNL     1       0.638   6.181   3.334  0.00  0.00    +0.277 C 
ENDBRANCH  22  25
ENDBRANCH   4  19
BRANCH   2  27
ATOM     27  N   UNL     1      -0.328  -0.696  -1.139  0.00  0.00    -0.346 N 
ATOM     28  H   UNL     1      -0.112  -1.641  -1.168  0.00  0.00    +0.146 HD
BRANCH  27  29
ATOM     29  C   UNL     1      -0.647   0.021  -2.376  0.00  0.00    +0.107 C 
BRANCH  29  30
ATOM     30  C   UNL     1      -0.571  -0.945  -3.560  0.00  0.00    +0.073 C 
BRANCH  30  31
ATOM     31  C   UNL     1      -0.900  -0.207  -4.832  0.00  0.00    +0.035 A 
ATOM     32  N   UNL     1      -0.006   0.357  -5.703  0.00  0.00    -0.350 N 
ATOM     33  C   UNL     1      -0.721   0.913  -6.704  0.00  0.00    +0.171 A 
ATOM     34  N   UNL     1      -1.990   0.710  -6.476  0.00  0.00    -0.352 N 
ATOM     35  C   UNL     1      -2.129   0.019  -5.334  0.00  0.00    +0.105 A 
ATOM     36  H   UNL     1       0.960   0.357  -5.616  0.00  0.00    +0.166 HD
ATOM     37  H   UNL     1      -2.718   1.008  -7.043  0.00  0.00    +0.166 HD
ENDBRANCH  30  31
ENDBRANCH  29  30
ENDBRANCH  27  29
ENDBRANCH   2  27
TORSDOF 7
