REMARK  Name = ZINC63619477
REMARK  9 active torsions:
REMARK  status: ('A' for Active; 'I' for Inactive)
REMARK    1  A    between atoms: C_1  and  C_2
REMARK    2  A    between atoms: C_5  and  C_9
REMARK    3  A    between atoms: C_7  and  C_8
REMARK    4  A    between atoms: N_13  and  C_14
REMARK    5  A    between atoms: C_14  and  C_15
REMARK    6  A    between atoms: N_17  and  C_18
REMARK    7  A    between atoms: C_23  and  S_24
REMARK    8  A    between atoms: S_24  and  C_25
REMARK    9  A    between atoms: C_25  and  C_26
REMARK                            x       y       z     vdW  Elec       q    Type
REMARK                         _______ _______ _______ _____ _____    ______ ____
ROOT
ATOM      1  C   UNL     1      -2.839  -6.067  -1.556  0.00  0.00    +0.201 C 
ATOM      2  O   UNL     1      -2.692  -5.682  -2.697  0.00  0.00    -0.278 OA
ATOM      3  N   UNL     1      -3.871  -6.875  -1.244  0.00  0.00    -0.286 N 
ATOM      4  H   UNL     1      -3.943  -7.247  -0.351  0.00  0.00    +0.155 HD
ENDROOT
BRANCH   3   5
ATOM      5  C   UNL     1      -4.840  -7.178  -2.210  0.00  0.00    +0.047 A 
ATOM      6  C   UNL     1      -5.062  -6.311  -3.269  0.00  0.00    +0.024 A 
ATOM      7  C   UNL     1      -6.018  -6.612  -4.221  0.00  0.00    +0.002 A 
ATOM      8  C   UNL     1      -6.756  -7.777  -4.121  0.00  0.00    +0.001 A 
ATOM      9  C   UNL     1      -6.542  -8.648  -3.070  0.00  0.00    +0.016 A 
ATOM     10  C   UNL     1      -5.580  -8.357  -2.113  0.00  0.00    +0.030 A 
BRANCH  10  11
ATOM     11  S   UNL     1      -5.300  -9.468  -0.774  0.00  0.00    -0.114 S 
BRANCH  11  12
ATOM     12  C   UNL     1      -6.473 -10.820  -1.074  0.00  0.00    +0.169 C 
BRANCH  12  13
ATOM     13  C   UNL     1      -6.335 -11.854   0.014  0.00  0.00    +0.221 C 
ATOM     14  O   UNL     1      -5.527 -11.694   0.903  0.00  0.00    -0.275 OA
ATOM     15  N   UNL     1      -7.112 -12.955  -0.002  0.00  0.00    -0.329 N 
ATOM     16  H   UNL     1      -7.758 -13.083  -0.714  0.00  0.00    +0.145 HD
ATOM     17  H   UNL     1      -7.023 -13.621   0.698  0.00  0.00    +0.145 HD
ENDBRANCH  12  13
ENDBRANCH  11  12
ENDBRANCH  10  11
ENDBRANCH   3   5
BRANCH   1  18
ATOM     18  C   UNL     1      -1.866  -5.640  -0.487  0.00  0.00    +0.020 C 
BRANCH  18  23
ATOM     19  C   UNL     1       0.042  -4.252  -0.015  0.00  0.00    -0.037 C 
ATOM     20  C   UNL     1       1.469  -4.753  -0.324  0.00  0.00    -0.013 C 
ATOM     21  C   UNL     1       1.218  -5.991  -1.224  0.00  0.00    -0.020 C 
ATOM     22  C   UNL     1      -0.023  -5.541  -2.036  0.00  0.00    -0.077 C 
ATOM     23  N   UNL     1      -0.841  -4.769  -1.077  0.00  0.00    +0.390 N 
ATOM     24  H   UNL     1      -1.285  -3.998  -1.554  0.00  0.00    -0.080 HD
BRANCH  19  29
ATOM     25  C   UNL     1      -0.061   1.525  -0.012  0.00  0.00    +0.044 C 
ATOM     26  C   UNL     1      -0.034   0.019  -0.013  0.00  0.00    -0.048 A 
ATOM     27  C   UNL     1      -0.021  -0.672  -1.210  0.00  0.00    +0.004 A 
ATOM     28  C   UNL     1       0.003  -2.054  -1.211  0.00  0.00    +0.002 A 
ATOM     29  C   UNL     1       0.016  -2.746  -0.014  0.00  0.00    -0.061 A 
ATOM     30  C   UNL     1       0.005  -2.055   1.183  0.00  0.00    +0.005 A 
ATOM     31  C   UNL     1      -0.016  -0.673   1.184  0.00  0.00    -0.047 A 
ATOM     32  C   UNL     1      -0.023   0.080   2.489  0.00  0.00    +0.044 C 
ENDBRANCH  19  29
ENDBRANCH  18  23
ENDBRANCH   1  18
TORSDOF 7
