REMARK  Name = ZINC39098771
REMARK  5 active torsions:
REMARK  status: ('A' for Active; 'I' for Inactive)
REMARK    1  A    between atoms: C_1  and  C_2
REMARK    2  A    between atoms: C_7  and  C_17
REMARK    3  A    between atoms: C_7  and  C_18
REMARK    4  A    between atoms: C_10  and  O_16
REMARK    5  A    between atoms: C_13  and  O_15
REMARK                            x       y       z     vdW  Elec       q    Type
REMARK                         _______ _______ _______ _____ _____    ______ ____
ROOT
ATOM      1  C   UNL     1       0.266   1.494  -0.034  0.00  0.00    +0.018 C 
ATOM      2  C   UNL     1       0.259  -0.036  -0.020  0.00  0.00    +0.016 C 
ATOM      3  C   UNL     1      -1.198  -0.507   0.009  0.00  0.00    +0.021 C 
ATOM      4  C   UNL     1      -1.893   0.046   1.256  0.00  0.00    +0.076 C 
ATOM      5  C   UNL     1      -1.137  -0.417   2.482  0.00  0.00    +0.143 C 
ATOM      6  O   UNL     1      -1.698  -1.014   3.369  0.00  0.00    -0.296 OA
ATOM      7  C   UNL     1       0.344  -0.110   2.565  0.00  0.00    +0.045 C 
ATOM      8  C   UNL     1       0.967  -0.498   1.220  0.00  0.00    -0.050 C 
ATOM      9  C   UNL     1       2.075  -1.179   1.217  0.00  0.00    +0.005 C 
ATOM     10  C   UNL     1       2.783  -1.579  -0.047  0.00  0.00    +0.140 C 
ATOM     11  C   UNL     1       2.444  -0.560  -1.141  0.00  0.00    +0.067 C 
ATOM     12  C   UNL     1       0.917  -0.525  -1.300  0.00  0.00    +0.127 C 
ATOM     13  C   UNL     1       0.984  -0.934   3.683  0.00  0.00    +0.023 C 
ATOM     14  C   UNL     1       0.551   1.382   2.834  0.00  0.00    +0.023 C 
ENDROOT
BRANCH  12  15
ATOM     15  O   UNL     1       0.576   0.358  -2.370  0.00  0.00    -0.391 OA
ATOM     16  H   UNL     1       0.960   0.110  -3.222  0.00  0.00    +0.210 HD
ENDBRANCH  12  15
BRANCH  10  17
ATOM     17  O   UNL     1       2.350  -2.880  -0.449  0.00  0.00    -0.388 OA
ATOM     18  H   UNL     1       2.523  -3.571   0.204  0.00  0.00    +0.210 HD
ENDBRANCH  10  17
TORSDOF 2
