REMARK  Name = ZINC46914490
REMARK  6 active torsions:
REMARK  status: ('A' for Active; 'I' for Inactive)
REMARK    1  A    between atoms: C_1  and  C_2
REMARK    2  A    between atoms: C_4  and  C_36
REMARK    3  A    between atoms: C_6  and  N_8
REMARK    4  A    between atoms: C_9  and  C_17
REMARK    5  A    between atoms: C_17  and  N_18
REMARK    6  A    between atoms: N_26  and  C_27
REMARK                            x       y       z     vdW  Elec       q    Type
REMARK                         _______ _______ _______ _____ _____    ______ ____
ROOT
ATOM      1  C   UNL     1      -1.189  -1.764   3.275  0.00  0.00    +0.157 C 
ENDROOT
BRANCH   1   3
ATOM      2  N   UNL     1       0.230  -2.734   5.154  0.00  0.00    -0.281 N 
ATOM      3  C   UNL     1       0.111  -2.177   3.916  0.00  0.00    +0.108 A 
ATOM      4  N   UNL     1       1.284  -2.054   3.367  0.00  0.00    -0.341 N 
ATOM      5  C   UNL     1       2.234  -2.523   4.215  0.00  0.00    +0.084 A 
ATOM      6  C   UNL     1       1.573  -2.962   5.376  0.00  0.00    +0.163 A 
ATOM      7  N   UNL     1       2.261  -3.469   6.386  0.00  0.00    -0.236 NA
ATOM      8  C   UNL     1       3.573  -3.577   6.342  0.00  0.00    +0.113 A 
ATOM      9  C   UNL     1       4.294  -3.163   5.233  0.00  0.00    +0.022 A 
ATOM     10  C   UNL     1       3.626  -2.633   4.145  0.00  0.00    +0.031 A 
ATOM     11  H   UNL     1       1.454  -1.683   2.486  0.00  0.00    +0.167 HD
BRANCH   2  17
ATOM     12  C   UNL     1      -3.738  -5.403   6.303  0.00  0.00    +0.044 C 
ATOM     13  C   UNL     1      -2.755  -4.306   6.622  0.00  0.00    -0.048 A 
ATOM     14  C   UNL     1      -2.886  -3.578   7.790  0.00  0.00    +0.006 A 
ATOM     15  C   UNL     1      -1.986  -2.571   8.086  0.00  0.00    -0.048 A 
ATOM     16  C   UNL     1      -0.952  -2.289   7.215  0.00  0.00    +0.029 A 
ATOM     17  C   UNL     1      -0.818  -3.018   6.041  0.00  0.00    +0.050 A 
ATOM     18  C   UNL     1      -1.720  -4.032   5.749  0.00  0.00    +0.029 A 
ATOM     19  C   UNL     1      -2.133  -1.780   9.360  0.00  0.00    +0.044 C 
ENDBRANCH   2  17
ENDBRANCH   1   3
BRANCH   1  20
ATOM     20  N   UNL     1      -1.573  -0.432   3.761  0.00  0.00    -0.292 NA
ATOM     21  C   UNL     1      -0.695   0.605   3.203  0.00  0.00    +0.104 C 
ATOM     22  C   UNL     1      -1.009   1.949   3.869  0.00  0.00    +0.124 C 
ATOM     23  N   UNL     1      -2.450   2.213   3.732  0.00  0.00    -0.283 N 
ATOM     24  C   UNL     1      -3.393   1.162   4.143  0.00  0.00    +0.124 C 
ATOM     25  C   UNL     1      -2.984  -0.150   3.466  0.00  0.00    +0.104 C 
ATOM     26  C   UNL     1      -2.893   3.388   3.241  0.00  0.00    +0.307 C 
ATOM     27  O   UNL     1      -2.105   4.279   2.991  0.00  0.00    -0.252 OA
ATOM     28  N   UNL     1      -4.211   3.574   3.028  0.00  0.00    -0.269 N 
ATOM     29  H   UNL     1      -4.847   2.892   3.297  0.00  0.00    +0.156 HD
BRANCH  28  30
ATOM     30  C   UNL     1      -4.662   4.751   2.420  0.00  0.00    +0.035 A 
ATOM     31  C   UNL     1      -3.888   5.374   1.450  0.00  0.00    +0.023 A 
ATOM     32  C   UNL     1      -4.337   6.535   0.854  0.00  0.00    +0.006 A 
ATOM     33  C   UNL     1      -5.557   7.081   1.218  0.00  0.00    -0.044 A 
ATOM     34  C   UNL     1      -6.330   6.462   2.183  0.00  0.00    -0.042 A 
ATOM     35  C   UNL     1      -5.886   5.295   2.780  0.00  0.00    +0.027 A 
ATOM     36  C   UNL     1      -7.606   7.249   2.399  0.00  0.00    +0.036 C 
ATOM     37  C   UNL     1      -7.331   8.639   1.786  0.00  0.00    +0.009 C 
ATOM     38  C   UNL     1      -6.261   8.325   0.719  0.00  0.00    +0.036 C 
ENDBRANCH  28  30
ENDBRANCH   1  20
TORSDOF 4
