REMARK  Name = ZINC58116193
REMARK  7 active torsions:
REMARK  status: ('A' for Active; 'I' for Inactive)
REMARK    1  A    between atoms: C_1  and  C_2
REMARK    2  A    between atoms: C_2  and  C_3
REMARK    3  A    between atoms: C_3  and  C_4
REMARK    4  A    between atoms: C_4  and  C_6
REMARK    5  A    between atoms: C_4  and  N_19
REMARK    6  A    between atoms: C_10  and  C_13
REMARK    7  A    between atoms: C_11  and  C_12
REMARK                            x       y       z     vdW  Elec       q    Type
REMARK                         _______ _______ _______ _____ _____    ______ ____
ROOT
ATOM      1  C   UNL     1       1.334  -2.514  -2.561  0.00  0.00    -0.058 A 
ATOM      2  C   UNL     1       2.653  -2.928  -2.603  0.00  0.00    +0.007 A 
ATOM      3  C   UNL     1       3.200  -3.374  -3.789  0.00  0.00    -0.025 A 
ATOM      4  C   UNL     1       2.425  -3.409  -4.941  0.00  0.00    +0.040 A 
ATOM      5  C   UNL     1       1.101  -2.994  -4.896  0.00  0.00    -0.026 A 
ATOM      6  C   UNL     1       0.558  -2.553  -3.705  0.00  0.00    -0.044 A 
ATOM      7  C   UNL     1      -0.881  -2.107  -3.654  0.00  0.00    +0.044 C 
ATOM      8  C   UNL     1       0.257  -3.029  -6.144  0.00  0.00    +0.046 C 
ATOM      9  N   UNL     1       2.981  -3.861  -6.142  0.00  0.00    -0.285 N 
ATOM     10  C   UNL     1       4.106  -4.598  -6.138  0.00  0.00    +0.218 C 
ATOM     11  O   UNL     1       4.583  -4.970  -7.190  0.00  0.00    -0.275 OA
ATOM     12  C   UNL     1       4.780  -4.967  -4.844  0.00  0.00    +0.101 C 
ATOM     13  C   UNL     1       4.637  -3.825  -3.838  0.00  0.00    +0.046 C 
ATOM     14  H   UNL     1       2.551  -3.642  -6.984  0.00  0.00    +0.155 HD
ENDROOT
BRANCH   1  15
ATOM     15  C   UNL     1       0.739  -2.027  -1.265  0.00  0.00    -0.044 C 
BRANCH  15  16
ATOM     16  N   UNL     1       1.551  -2.512  -0.141  0.00  0.00    +0.383 N 
ATOM     17  H   UNL     1       1.152  -2.186   0.727  0.00  0.00    -0.089 HD
ATOM     18  H   UNL     1       1.564  -3.521  -0.146  0.00  0.00    -0.089 HD
ATOM     19  H   UNL     1       2.493  -2.163  -0.231  0.00  0.00    -0.089 HD
ENDBRANCH  15  16
BRANCH  15  20
ATOM     20  C   UNL     1       0.718  -0.497  -1.257  0.00  0.00    -0.012 C 
BRANCH  20  22
ATOM     21  C   UNL     1      -0.019   1.526   0.010  0.00  0.00    +0.004 C 
ATOM     22  C   UNL     1       0.002  -0.004   0.002  0.00  0.00    -0.005 C 
ENDBRANCH  20  22
ENDBRANCH  15  20
ENDBRANCH   1  15
TORSDOF 4
