REMARK  Name = ZINC20479541
REMARK  6 active torsions:
REMARK  status: ('A' for Active; 'I' for Inactive)
REMARK    1  A    between atoms: C_1  and  C_2
REMARK    2  A    between atoms: C_2  and  C_4
REMARK    3  A    between atoms: C_2  and  N_21
REMARK    4  A    between atoms: C_7  and  S_10
REMARK    5  A    between atoms: S_10  and  N_13
REMARK    6  A    between atoms: N_13  and  C_14
REMARK                            x       y       z     vdW  Elec       q    Type
REMARK                         _______ _______ _______ _____ _____    ______ ____
ROOT
ATOM      1  C   UNL     1       2.547  -1.041   3.732  0.00  0.00    -0.062 A 
ATOM      2  C   UNL     1       1.168  -1.016   3.814  0.00  0.00    +0.004 A 
ATOM      3  C   UNL     1       0.414  -0.698   2.699  0.00  0.00    +0.029 A 
ATOM      4  C   UNL     1       1.041  -0.405   1.502  0.00  0.00    +0.109 A 
ATOM      5  C   UNL     1       2.420  -0.436   1.419  0.00  0.00    +0.029 A 
ATOM      6  C   UNL     1       3.174  -0.749   2.534  0.00  0.00    +0.004 A 
ENDROOT
BRANCH   4   7
ATOM      7  S   UNL     1       0.081  -0.000   0.082  0.00  0.00    +0.072 S 
ATOM      8  O   UNL     1      -1.238  -0.465   0.337  0.00  0.00    -0.150 OA
ATOM      9  O   UNL     1       0.831  -0.421  -1.049  0.00  0.00    -0.150 OA
BRANCH   7  10
ATOM     10  N   UNL     1      -0.006   1.652   0.004  0.00  0.00    -0.216 N 
ATOM     11  H   UNL     1       0.429   2.186  -0.853  0.00  0.00    +0.174 HD
BRANCH  10  12
ATOM     12  C   UNL     1      -0.633   2.367   1.027  0.00  0.00    +0.049 A 
ATOM     13  C   UNL     1      -0.033   3.506   1.548  0.00  0.00    +0.024 A 
ATOM     14  C   UNL     1      -0.655   4.212   2.559  0.00  0.00    +0.003 A 
ATOM     15  C   UNL     1      -1.875   3.785   3.053  0.00  0.00    +0.014 A 
ATOM     16  C   UNL     1      -2.475   2.651   2.536  0.00  0.00    +0.015 A 
ATOM     17  C   UNL     1      -1.860   1.944   1.521  0.00  0.00    +0.038 A 
ATOM     18  I   UNL     1      -4.323   2.010   3.288  0.00  0.00    -0.044 I 
ENDBRANCH  10  12
ENDBRANCH   7  10
ENDBRANCH   4   7
BRANCH   1  20
ATOM     19  C   UNL     1       3.904  -0.103   5.583  0.00  0.00    -0.009 C 
ATOM     20  C   UNL     1       3.369  -1.388   4.947  0.00  0.00    -0.047 C 
BRANCH  20  21
ATOM     21  N   UNL     1       4.495  -2.243   4.549  0.00  0.00    +0.382 N 
ATOM     22  H   UNL     1       4.110  -3.166   4.091  0.00  0.00    -0.089 HD
ATOM     23  H   UNL     1       5.094  -2.496   5.436  0.00  0.00    -0.089 HD
ATOM     24  H   UNL     1       5.123  -1.708   3.822  0.00  0.00    -0.089 HD
ENDBRANCH  20  21
ENDBRANCH   1  20
TORSDOF 5
