REMARK  Name = ZINC13549420
REMARK  10 active torsions:
REMARK  status: ('A' for Active; 'I' for Inactive)
REMARK    1  A    between atoms: C_3  and  O_36
REMARK    2  A    between atoms: C_6  and  C_7
REMARK    3  A    between atoms: C_12  and  O_19
REMARK    4  A    between atoms: C_14  and  O_18
REMARK    5  A    between atoms: O_19  and  C_20
REMARK    6  A    between atoms: C_22  and  O_35
REMARK    7  A    between atoms: C_24  and  O_34
REMARK    8  A    between atoms: C_26  and  O_33
REMARK    9  A    between atoms: C_28  and  C_31
REMARK   10  A    between atoms: C_31  and  O_32
REMARK                            x       y       z     vdW  Elec       q    Type
REMARK                         _______ _______ _______ _____ _____    ______ ____
ROOT
ATOM      1  C   UNL     1       1.950   1.906  -3.721  0.00  0.00    +0.064 A 
ATOM      2  C   UNL     1       3.177   2.471  -3.588  0.00  0.00    +0.208 A 
ATOM      3  O   UNL     1       3.730   2.715  -2.397  0.00  0.00    -0.462 OA
ATOM      4  C   UNL     1       3.127   2.424  -1.228  0.00  0.00    +0.145 A 
ATOM      5  C   UNL     1       3.756   2.702  -0.022  0.00  0.00    +0.093 A 
ATOM      6  C   UNL     1       3.127   2.400   1.175  0.00  0.00    +0.131 A 
ATOM      7  C   UNL     1       1.862   1.822   1.188  0.00  0.00    +0.092 A 
ATOM      8  C   UNL     1       1.221   1.532  -0.001  0.00  0.00    +0.135 A 
ATOM      9  C   UNL     1       1.850   1.834  -1.216  0.00  0.00    +0.106 A 
ATOM     10  C   UNL     1       1.200   1.547  -2.505  0.00  0.00    +0.204 A 
ATOM     11  O   UNL     1       0.095   1.036  -2.563  0.00  0.00    -0.286 OA
ENDROOT
BRANCH   1  17
ATOM     12  C   UNL     1       0.860   0.400  -5.382  0.00  0.00    +0.012 A 
ATOM     13  C   UNL     1       0.321   0.171  -6.630  0.00  0.00    +0.046 A 
ATOM     14  C   UNL     1       0.301   1.187  -7.576  0.00  0.00    +0.117 A 
ATOM     15  C   UNL     1       0.818   2.438  -7.266  0.00  0.00    +0.046 A 
ATOM     16  C   UNL     1       1.353   2.674  -6.017  0.00  0.00    +0.012 A 
ATOM     17  C   UNL     1       1.375   1.656  -5.066  0.00  0.00    -0.011 A 
BRANCH  14  18
ATOM     18  O   UNL     1      -0.226   0.957  -8.808  0.00  0.00    -0.507 OA
ATOM     19  H   UNL     1       0.416   0.635  -9.456  0.00  0.00    +0.292 HD
ENDBRANCH  14  18
ENDBRANCH   1  17
BRANCH   8  20
ATOM     20  O   UNL     1      -0.011   0.963   0.007  0.00  0.00    -0.506 OA
ATOM     21  H   UNL     1       0.002  -0.004   0.002  0.00  0.00    +0.292 HD
ENDBRANCH   8  20
BRANCH   6  22
ATOM     22  O   UNL     1       3.751   2.677   2.349  0.00  0.00    -0.461 OA
BRANCH  22  23
ATOM     23  C   UNL     1       3.052   2.342   3.550  0.00  0.00    +0.339 C 
ATOM     24  C   UNL     1       3.785   2.943   4.752  0.00  0.00    +0.214 C 
ATOM     25  C   UNL     1       5.187   2.331   4.843  0.00  0.00    +0.180 C 
ATOM     26  C   UNL     1       5.061   0.808   4.942  0.00  0.00    +0.177 C 
ATOM     27  C   UNL     1       4.279   0.289   3.732  0.00  0.00    +0.179 C 
ATOM     28  O   UNL     1       2.998   0.920   3.689  0.00  0.00    -0.331 OA
BRANCH  26  29
ATOM     29  O   UNL     1       6.364   0.221   4.955  0.00  0.00    -0.386 OA
ATOM     30  H   UNL     1       6.916   0.506   5.696  0.00  0.00    +0.210 HD
ENDBRANCH  26  29
BRANCH  25  31
ATOM     31  O   UNL     1       5.852   2.832   6.005  0.00  0.00    -0.386 OA
ATOM     32  H   UNL     1       5.965   3.792   6.010  0.00  0.00    +0.210 HD
ENDBRANCH  25  31
BRANCH  24  33
ATOM     33  O   UNL     1       3.892   4.358   4.587  0.00  0.00    -0.383 OA
ATOM     34  H   UNL     1       3.041   4.811   4.517  0.00  0.00    +0.210 HD
ENDBRANCH  24  33
BRANCH  27  35
ATOM     35  C   UNL     1       4.097  -1.226   3.853  0.00  0.00    +0.190 C 
BRANCH  35  36
ATOM     36  O   UNL     1       3.469  -1.726   2.671  0.00  0.00    -0.392 OA
ATOM     37  H   UNL     1       3.322  -2.682   2.678  0.00  0.00    +0.210 HD
ENDBRANCH  35  36
ENDBRANCH  27  35
ENDBRANCH  22  23
ENDBRANCH   6  22
TORSDOF 10
