REMARK  Name = ZINC33857276
REMARK  6 active torsions:
REMARK  status: ('A' for Active; 'I' for Inactive)
REMARK    1  A    between atoms: C_10  and  N_11
REMARK    2  A    between atoms: N_11  and  C_12
REMARK    3  A    between atoms: C_12  and  C_13
REMARK    4  A    between atoms: C_13  and  N_14
REMARK    5  A    between atoms: C_15  and  C_17
REMARK    6  A    between atoms: C_20  and  C_22
REMARK                            x       y       z     vdW  Elec       q    Type
REMARK                         _______ _______ _______ _____ _____    ______ ____
ROOT
ATOM      1  N   UNL     1       8.576  -0.321  -0.081  0.00  0.00    -0.309 N 
ATOM      2  C   UNL     1       9.733   0.369  -0.089  0.00  0.00    +0.266 C 
ATOM      3  O   UNL     1       9.716   1.585  -0.083  0.00  0.00    -0.268 OA
ATOM      4  H   UNL     1       8.590  -1.291  -0.086  0.00  0.00    +0.149 HD
ENDROOT
BRANCH   2   5
ATOM      5  C   UNL     1      11.020  -0.349  -0.104  0.00  0.00    +0.163 A 
ATOM      6  C   UNL     1      12.260   0.212  -0.107  0.00  0.00    +0.230 A 
ATOM      7  O   UNL     1      13.146  -0.796  -0.122  0.00  0.00    -0.449 OA
ATOM      8  C   UNL     1      12.467  -1.951  -0.128  0.00  0.00    +0.182 A 
ATOM      9  N   UNL     1      11.192  -1.699  -0.112  0.00  0.00    -0.210 NA
BRANCH   8  10
ATOM     10  C   UNL     1      13.084  -3.326  -0.145  0.00  0.00    +0.016 C 
ATOM     11  C   UNL     1      13.689  -3.647   1.238  0.00  0.00    -0.008 C 
ATOM     12  C   UNL     1      14.991  -4.411   0.880  0.00  0.00    -0.020 C 
ATOM     13  C   UNL     1      15.441  -3.678  -0.408  0.00  0.00    -0.082 C 
ATOM     14  N   UNL     1      14.182  -3.371  -1.127  0.00  0.00    +0.387 N 
ATOM     15  H   UNL     1      13.996  -4.088  -1.812  0.00  0.00    -0.085 HD
ATOM     16  H   UNL     1      14.263  -2.477  -1.588  0.00  0.00    -0.085 HD
ENDBRANCH   8  10
ENDBRANCH   2   5
BRANCH   1  17
ATOM     17  C   UNL     1       7.297   0.393  -0.065  0.00  0.00    +0.123 C 
BRANCH  17  18
ATOM     18  C   UNL     1       6.148  -0.618  -0.059  0.00  0.00    +0.120 C 
BRANCH  18  19
ATOM     19  N   UNL     1       4.869   0.096  -0.044  0.00  0.00    -0.342 N 
ATOM     20  H   UNL     1       4.855   1.066  -0.039  0.00  0.00    +0.146 HD
BRANCH  19  30
ATOM     21  C   UNL     1      -0.016   1.357   0.009  0.00  0.00    +0.001 A 
ATOM     22  C   UNL     1       1.169   2.090   0.002  0.00  0.00    +0.001 A 
ATOM     23  C   UNL     1       2.378   1.466  -0.013  0.00  0.00    +0.010 A 
ATOM     24  C   UNL     1       2.437   0.064  -0.021  0.00  0.00    +0.003 A 
ATOM     25  C   UNL     1       1.233  -0.683  -0.013  0.00  0.00    -0.016 A 
ATOM     26  C   UNL     1       0.002  -0.004   0.002  0.00  0.00    +0.008 A 
ATOM     27  C   UNL     1       1.290  -2.087  -0.020  0.00  0.00    +0.008 A 
ATOM     28  C   UNL     1       2.496  -2.719  -0.034  0.00  0.00    +0.002 A 
ATOM     29  C   UNL     1       3.685  -1.997  -0.041  0.00  0.00    +0.023 A 
ATOM     30  C   UNL     1       3.673  -0.618  -0.036  0.00  0.00    +0.035 A 
ENDBRANCH  19  30
ENDBRANCH  18  19
ENDBRANCH  17  18
ENDBRANCH   1  17
TORSDOF 6
