REMARK  Name = ZINC59802568
REMARK  12 active torsions:
REMARK  status: ('A' for Active; 'I' for Inactive)
REMARK    1  A    between atoms: C_1  and  C_2
REMARK    2  A    between atoms: C_2  and  C_3
REMARK    3  A    between atoms: C_2  and  C_4
REMARK    4  A    between atoms: C_2  and  O_5
REMARK    5  A    between atoms: O_5  and  C_6
REMARK    6  A    between atoms: N_8  and  C_9
REMARK    7  A    between atoms: C_12  and  N_17
REMARK    8  A    between atoms: C_14  and  O_15
REMARK    9  A    between atoms: O_15  and  C_16
REMARK   10  A    between atoms: N_17  and  C_18
REMARK   11  A    between atoms: C_18  and  C_19
REMARK   12  A    between atoms: N_21  and  C_22
REMARK                            x       y       z     vdW  Elec       q    Type
REMARK                         _______ _______ _______ _____ _____    ______ ____
ROOT
ATOM      1  C   UNL     1       3.928   0.002  -2.708  0.00  0.00    +0.078 A 
ATOM      2  C   UNL     1       4.591   0.793  -1.781  0.00  0.00    +0.029 A 
ATOM      3  C   UNL     1       5.881   1.219  -2.033  0.00  0.00    +0.025 A 
ATOM      4  C   UNL     1       6.516   0.856  -3.214  0.00  0.00    +0.031 A 
ATOM      5  C   UNL     1       5.856   0.065  -4.143  0.00  0.00    +0.070 A 
ATOM      6  C   UNL     1       4.565  -0.368  -3.889  0.00  0.00    +0.143 A 
ENDROOT
BRANCH   1   9
ATOM      7  C   UNL     1       1.761   0.371  -1.785  0.00  0.00    +0.405 C 
ATOM      8  O   UNL     1       2.149   1.430  -1.331  0.00  0.00    -0.226 OA
ATOM      9  N   UNL     1       2.616  -0.430  -2.451  0.00  0.00    -0.248 N 
ATOM     10  H   UNL     1       2.326  -1.304  -2.753  0.00  0.00    +0.158 HD
BRANCH   7  11
ATOM     11  O   UNL     1       0.478  -0.002  -1.622  0.00  0.00    -0.444 OA
BRANCH  11  13
ATOM     12  C   UNL     1      -0.424   2.240  -1.634  0.00  0.00    +0.055 C 
ATOM     13  C   UNL     1      -0.373   0.896  -0.906  0.00  0.00    +0.107 C 
ATOM     14  C   UNL     1       0.177   1.102   0.507  0.00  0.00    +0.055 C 
ATOM     15  C   UNL     1      -1.782   0.306  -0.823  0.00  0.00    +0.055 C 
ENDBRANCH  11  13
ENDBRANCH   7  11
ENDBRANCH   1   9
BRANCH   6  16
ATOM     16  O   UNL     1       3.918  -1.148  -4.796  0.00  0.00    -0.493 OA
ATOM     17  C   UNL     1       4.632  -1.489  -5.986  0.00  0.00    +0.277 C 
ENDBRANCH   6  16
BRANCH   4  18
ATOM     18  N   UNL     1       7.822   1.289  -3.467  0.00  0.00    -0.335 N 
ATOM     19  H   UNL     1       8.266   1.036  -4.291  0.00  0.00    +0.147 HD
BRANCH  18  20
ATOM     20  C   UNL     1       8.520   2.125  -2.486  0.00  0.00    +0.198 C 
BRANCH  20  21
ATOM     21  C   UNL     1       9.900   2.451  -2.995  0.00  0.00    +0.234 C 
ATOM     22  O   UNL     1      10.265   2.027  -4.072  0.00  0.00    -0.274 OA
ATOM     23  N   UNL     1      10.729   3.214  -2.255  0.00  0.00    -0.282 N 
ATOM     24  H   UNL     1      10.469   3.486  -1.361  0.00  0.00    +0.155 HD
BRANCH  23  25
ATOM     25  C   UNL     1      11.966   3.614  -2.777  0.00  0.00    +0.069 A 
ATOM     26  C   UNL     1      12.147   3.696  -4.151  0.00  0.00    +0.027 A 
ATOM     27  C   UNL     1      13.368   4.091  -4.663  0.00  0.00    +0.017 A 
ATOM     28  C   UNL     1      14.410   4.406  -3.809  0.00  0.00    +0.021 A 
ATOM     29  C   UNL     1      14.233   4.326  -2.439  0.00  0.00    +0.055 A 
ATOM     30  C   UNL     1      13.012   3.937  -1.920  0.00  0.00    +0.146 A 
ATOM     31  F   UNL     1      12.838   3.864  -0.582  0.00  0.00    -0.204 F 
ATOM     32 BR   UNL     1      16.079   4.945  -4.516  0.00  0.00    -0.050 Br
ENDBRANCH  23  25
ENDBRANCH  20  21
ENDBRANCH  18  20
ENDBRANCH   4  18
TORSDOF 8
