REMARK  Name = ZINC09315538
REMARK  11 active torsions:
REMARK  status: ('A' for Active; 'I' for Inactive)
REMARK    1  A    between atoms: C_1  and  C_2
REMARK    2  A    between atoms: C_7  and  C_8
REMARK    3  A    between atoms: C_8  and  C_10
REMARK    4  A    between atoms: C_8  and  N_69
REMARK    5  A    between atoms: C_11  and  N_23
REMARK    6  A    between atoms: N_12  and  C_19
REMARK    7  A    between atoms: N_15  and  C_18
REMARK    8  A    between atoms: C_19  and  C_20
REMARK    9  A    between atoms: C_20  and  C_21
REMARK   10  A    between atoms: C_20  and  C_22
REMARK   11  A    between atoms: N_26  and  C_29
REMARK                            x       y       z     vdW  Elec       q    Type
REMARK                         _______ _______ _______ _____ _____    ______ ____
ROOT
ATOM      1  C   UNL     1       1.655   1.519   4.030  0.00  0.00    +0.002 C 
ENDROOT
BRANCH   1   2
ATOM      2  C   UNL     1       0.464   1.233   3.152  0.00  0.00    +0.046 A 
ATOM      3  C   UNL     1      -0.204   2.254   2.535  0.00  0.00    +0.107 A 
ATOM      4  N   UNL     1      -1.286   1.968   1.739  0.00  0.00    -0.281 N 
ATOM      5  C   UNL     1      -1.691   0.696   1.571  0.00  0.00    +0.333 A 
ATOM      6  O   UNL     1      -2.654   0.462   0.867  0.00  0.00    -0.246 OA
ATOM      7  N   UNL     1      -1.042  -0.321   2.166  0.00  0.00    -0.264 N 
ATOM      8  C   UNL     1       0.025  -0.086   2.955  0.00  0.00    +0.260 A 
ATOM      9  O   UNL     1       0.606  -1.012   3.494  0.00  0.00    -0.267 OA
ATOM     10  C   UNL     1      -1.502  -1.697   1.959  0.00  0.00    +0.157 C 
BRANCH   3  11
ATOM     11  N   UNL     1       0.203   3.552   2.710  0.00  0.00    -0.344 N 
ATOM     12  H   UNL     1      -0.342   4.281   2.375  0.00  0.00    +0.144 HD
ATOM     13  H   UNL     1       1.036   3.741   3.169  0.00  0.00    +0.144 HD
ENDBRANCH   3  11
BRANCH   4  14
ATOM     14  C   UNL     1      -2.009   3.056   1.075  0.00  0.00    +0.131 C 
BRANCH  14  15
ATOM     15  C   UNL     1      -1.389   3.315  -0.299  0.00  0.00    +0.003 C 
ATOM     16  C   UNL     1       0.042   3.828  -0.125  0.00  0.00    +0.009 C 
ATOM     17  C   UNL     1      -2.219   4.364  -1.044  0.00  0.00    +0.009 C 
ENDBRANCH  14  15
ENDBRANCH   4  14
ENDBRANCH   1   2
BRANCH   1  24
ATOM     18  C   UNL     1       0.242   3.321   5.792  0.00  0.00    +0.044 C 
ATOM     19  C   UNL     1       0.671   1.964   6.288  0.00  0.00    -0.049 A 
ATOM     20  C   UNL     1       0.384   1.579   7.585  0.00  0.00    +0.003 A 
ATOM     21  C   UNL     1       0.782   0.337   8.041  0.00  0.00    +0.000 A 
ATOM     22  C   UNL     1       1.462  -0.524   7.199  0.00  0.00    +0.000 A 
ATOM     23  C   UNL     1       1.745  -0.141   5.902  0.00  0.00    +0.002 A 
ATOM     24  C   UNL     1       1.347   1.102   5.445  0.00  0.00    -0.053 A 
ENDBRANCH   1  24
BRANCH   1  30
ATOM     25  C   UNL     1       4.027   1.114   4.297  0.00  0.00    -0.058 C 
ATOM     26  C   UNL     1       5.196   0.254   3.811  0.00  0.00    +0.086 C 
ATOM     27  N   UNL     1       5.397   0.473   2.372  0.00  0.00    -0.331 N 
ATOM     28  C   UNL     1       4.186   0.125   1.614  0.00  0.00    +0.086 C 
ATOM     29  C   UNL     1       3.018   0.986   2.101  0.00  0.00    -0.058 C 
ATOM     30  N   UNL     1       2.813   0.739   3.544  0.00  0.00    +0.389 N 
ATOM     31  H   UNL     1       2.626  -0.261   3.688  0.00  0.00    -0.080 HD
BRANCH  27  32
ATOM     32  C   UNL     1       6.503  -0.243   1.905  0.00  0.00    +0.065 A 
ATOM     33  C   UNL     1       6.909  -0.114   0.583  0.00  0.00    +0.026 A 
ATOM     34  C   UNL     1       8.005  -0.820   0.126  0.00  0.00    +0.002 A 
ATOM     35  C   UNL     1       8.693  -1.662   0.980  0.00  0.00    +0.003 A 
ATOM     36  C   UNL     1       8.290  -1.798   2.296  0.00  0.00    +0.040 A 
ATOM     37  C   UNL     1       7.197  -1.091   2.762  0.00  0.00    +0.144 A 
ATOM     38  F   UNL     1       6.802  -1.224   4.047  0.00  0.00    -0.204 F 
ENDBRANCH  27  32
ENDBRANCH   1  30
TORSDOF 7
