REMARK  Name = ZINC15418419
REMARK  2 active torsions:
REMARK  status: ('A' for Active; 'I' for Inactive)
REMARK    1  A    between atoms: C_1  and  C_2
REMARK    2  A    between atoms: C_4  and  N_9
REMARK                            x       y       z     vdW  Elec       q    Type
REMARK                         _______ _______ _______ _____ _____    ______ ____
ROOT
ATOM      1  C   UNL     1       0.408   1.477   0.028  0.00  0.00    +0.066 C 
ATOM      2  C   UNL     1       0.205  -0.016   0.010  0.00  0.00    +0.045 A 
ATOM      3  C   UNL     1       0.217  -0.708  -1.185  0.00  0.00    +0.066 A 
ATOM      4  C   UNL     1       0.026  -2.091  -1.156  0.00  0.00    +0.126 A 
ATOM      5  N   UNL     1      -0.162  -2.692   0.015  0.00  0.00    -0.200 NA
ATOM      6  C   UNL     1      -0.166  -1.992   1.139  0.00  0.00    +0.214 A 
ATOM      7  N   UNL     1       0.018  -0.680   1.142  0.00  0.00    -0.220 NA
ATOM      8  N   UNL     1      -0.364  -2.648   2.342  0.00  0.00    -0.327 N 
ATOM      9  H   UNL     1      -0.496  -3.609   2.354  0.00  0.00    +0.145 HD
ATOM     10  H   UNL     1      -0.370  -2.147   3.172  0.00  0.00    +0.145 HD
ENDROOT
BRANCH   4  11
ATOM     11  N   UNL     1       0.030  -2.826  -2.330  0.00  0.00    -0.319 N 
ATOM     12  C   UNL     1       0.044  -4.297  -2.302  0.00  0.00    +0.087 C 
ATOM     13  C   UNL     1      -1.074  -4.811  -3.216  0.00  0.00    -0.063 C 
ATOM     14  N   UNL     1      -0.917  -4.229  -4.554  0.00  0.00    +0.381 N 
ATOM     15  C   UNL     1      -1.097  -2.773  -4.491  0.00  0.00    -0.063 C 
ATOM     16  C   UNL     1       0.014  -2.158  -3.641  0.00  0.00    +0.087 C 
ATOM     17  H   UNL     1       0.006  -4.437  -4.905  0.00  0.00    -0.086 HD
ATOM     18  H   UNL     1      -1.607  -4.625  -5.175  0.00  0.00    -0.086 HD
ENDBRANCH   4  11
TORSDOF 1
