REMARK  Name = ZINC63620088
REMARK  9 active torsions:
REMARK  status: ('A' for Active; 'I' for Inactive)
REMARK    1  A    between atoms: C_1  and  C_2
REMARK    2  A    between atoms: C_7  and  C_8
REMARK    3  A    between atoms: N_9  and  C_15
REMARK    4  A    between atoms: C_12  and  C_14
REMARK    5  A    between atoms: C_15  and  C_16
REMARK    6  A    between atoms: C_19  and  C_22
REMARK    7  A    between atoms: N_24  and  C_25
REMARK    8  A    between atoms: C_25  and  C_26
REMARK    9  A    between atoms: C_26  and  C_27
REMARK                            x       y       z     vdW  Elec       q    Type
REMARK                         _______ _______ _______ _____ _____    ______ ____
ROOT
ATOM      1  C   UNL     1      -1.339  -5.178   1.719  0.00  0.00    -0.028 A 
ATOM      2  C   UNL     1      -1.999  -4.267   2.525  0.00  0.00    +0.006 A 
ATOM      3  C   UNL     1      -3.295  -4.513   2.931  0.00  0.00    +0.013 A 
ATOM      4  C   UNL     1      -3.939  -5.683   2.527  0.00  0.00    +0.037 A 
ATOM      5  C   UNL     1      -3.268  -6.598   1.714  0.00  0.00    +0.013 A 
ATOM      6  C   UNL     1      -1.975  -6.337   1.311  0.00  0.00    +0.006 A 
ENDROOT
BRANCH   4   7
ATOM      7  C   UNL     1      -5.327  -5.953   2.959  0.00  0.00    +0.244 C 
ATOM      8  O   UNL     1      -5.910  -5.154   3.667  0.00  0.00    -0.270 OA
ATOM      9  N   UNL     1      -5.947  -7.084   2.567  0.00  0.00    -0.311 N 
ATOM     10  H   UNL     1      -5.482  -7.721   2.002  0.00  0.00    +0.149 HD
BRANCH   9  11
ATOM     11  C   UNL     1      -7.322  -7.351   2.995  0.00  0.00    +0.109 C 
BRANCH  11  12
ATOM     12  C   UNL     1      -7.785  -8.690   2.417  0.00  0.00    +0.052 C 
BRANCH  12  13
ATOM     13  C   UNL     1      -9.200  -8.965   2.857  0.00  0.00    -0.040 C 
ATOM     14  C   UNL     1     -10.333  -8.694   2.170  0.00  0.00    +0.000 A 
ATOM     15  C   UNL     1     -10.577  -8.084   0.857  0.00  0.00    +0.030 A 
ATOM     16  C   UNL     1     -11.852  -7.940   0.427  0.00  0.00    +0.042 A 
ATOM     17  C   UNL     1     -12.943  -8.358   1.204  0.00  0.00    +0.022 A 
ATOM     18  C   UNL     1     -12.798  -8.927   2.419  0.00  0.00    +0.027 A 
ATOM     19  C   UNL     1     -11.501  -9.127   2.969  0.00  0.00    +0.043 A 
ATOM     20  N   UNL     1     -11.106  -9.645   4.106  0.00  0.00    -0.380 N 
ATOM     21  C   UNL     1      -9.640  -9.606   4.154  0.00  0.00    +0.144 C 
ATOM     22 CL   UNL     1     -12.146  -7.220  -1.124  0.00  0.00    -0.084 Cl
ATOM     23  H   UNL     1     -11.686 -10.000   4.799  0.00  0.00    +0.160 HD
ENDBRANCH  12  13
ENDBRANCH  11  12
ENDBRANCH   9  11
ENDBRANCH   4   7
BRANCH   1  24
ATOM     24  C   UNL     1       0.076  -4.903   1.279  0.00  0.00    +0.160 C 
BRANCH  24  33
ATOM     25  C   UNL     1      -0.018   1.503   0.010  0.00  0.00    +0.044 C 
ATOM     26  C   UNL     1       0.002  -0.004   0.002  0.00  0.00    -0.045 A 
ATOM     27  C   UNL     1       0.005  -0.673  -1.187  0.00  0.00    +0.033 A 
ATOM     28  C   UNL     1       0.025  -2.076  -1.202  0.00  0.00    +0.088 A 
ATOM     29  C   UNL     1       0.040  -2.779   0.017  0.00  0.00    +0.071 A 
ATOM     30  C   UNL     1       0.036  -2.076   1.218  0.00  0.00    +0.031 A 
ATOM     31  C   UNL     1       0.023  -0.698   1.205  0.00  0.00    -0.045 A 
ATOM     32  C   UNL     1       0.025   0.062   2.506  0.00  0.00    +0.044 C 
ATOM     33  N   UNL     1       0.059  -4.159   0.017  0.00  0.00    -0.301 N 
ATOM     34  C   UNL     1       0.063  -4.814  -1.165  0.00  0.00    +0.273 A 
ATOM     35  O   UNL     1       0.079  -6.031  -1.196  0.00  0.00    -0.266 OA
ATOM     36  C   UNL     1       0.046  -4.040  -2.411  0.00  0.00    +0.103 A 
ATOM     37  N   UNL     1       0.028  -2.738  -2.375  0.00  0.00    -0.245 NA
ATOM     38  C   UNL     1       0.051  -4.754  -3.738  0.00  0.00    +0.071 C 
ENDBRANCH  24  33
ENDBRANCH   1  24
TORSDOF 6
