REMARK  Name = ZINC57629854
REMARK  6 active torsions:
REMARK  status: ('A' for Active; 'I' for Inactive)
REMARK    1  A    between atoms: C_1  and  C_2
REMARK    2  A    between atoms: C_3  and  N_9
REMARK    3  A    between atoms: C_13  and  S_15
REMARK    4  A    between atoms: S_15  and  C_16
REMARK    5  A    between atoms: C_16  and  C_17
REMARK    6  A    between atoms: C_17  and  N_18
REMARK                            x       y       z     vdW  Elec       q    Type
REMARK                         _______ _______ _______ _____ _____    ______ ____
ROOT
ATOM      1  N   UNL     1      -0.010   0.010  -2.412  0.00  0.00    -0.292 N 
ATOM      2  C   UNL     1       0.098  -0.676  -3.617  0.00  0.00    +0.187 A 
ATOM      3  N   UNL     1       0.129  -1.976  -3.839  0.00  0.00    -0.125 NA
ATOM      4  N   UNL     1       0.243  -2.448  -5.126  0.00  0.00    -0.133 NA
ATOM      5  C   UNL     1       0.321  -1.598  -6.132  0.00  0.00    +0.160 A 
ATOM      6  S   UNL     1       0.226  -0.032  -5.278  0.00  0.00    -0.024 S 
ATOM      7  H   UNL     1      -0.090   0.976  -2.409  0.00  0.00    +0.154 HD
ENDROOT
BRANCH   1  10
ATOM      8  C   UNL     1      -0.515   1.455  -0.013  0.00  0.00    +0.047 C 
ATOM      9  C   UNL     1      -0.247  -0.028  -0.010  0.00  0.00    -0.011 A 
ATOM     10  C   UNL     1      -0.005  -0.694  -1.205  0.00  0.00    +0.037 A 
ATOM     11  C   UNL     1       0.242  -2.061  -1.197  0.00  0.00    +0.023 A 
ATOM     12  C   UNL     1       0.246  -2.754  -0.002  0.00  0.00    +0.003 A 
ATOM     13  C   UNL     1       0.005  -2.090   1.185  0.00  0.00    +0.020 A 
ATOM     14  C   UNL     1      -0.236  -0.726   1.183  0.00  0.00    +0.046 A 
ATOM     15 CL   UNL     1      -0.532   0.105   2.677  0.00  0.00    -0.083 Cl
ENDBRANCH   1  10
BRANCH   5  16
ATOM     16  S   UNL     1       0.471  -1.921  -7.858  0.00  0.00    -0.099 S 
BRANCH  16  17
ATOM     17  C   UNL     1       0.496  -3.732  -7.965  0.00  0.00    +0.057 C 
BRANCH  17  18
ATOM     18  C   UNL     1       0.625  -4.155  -9.429  0.00  0.00    -0.075 C 
BRANCH  18  19
ATOM     19  N   UNL     1       0.645  -5.621  -9.516  0.00  0.00    +0.379 N 
ATOM     20  H   UNL     1       1.430  -5.978  -8.992  0.00  0.00    -0.090 HD
ATOM     21  H   UNL     1      -0.211  -5.992  -9.133  0.00  0.00    -0.090 HD
ATOM     22  H   UNL     1       0.730  -5.900 -10.482  0.00  0.00    -0.090 HD
ENDBRANCH  18  19
ENDBRANCH  17  18
ENDBRANCH  16  17
ENDBRANCH   5  16
TORSDOF 5
