REMARK  Name = ZINC14931107
REMARK  11 active torsions:
REMARK  status: ('A' for Active; 'I' for Inactive)
REMARK    1  A    between atoms: C_1  and  C_2
REMARK    2  A    between atoms: C_6  and  N_9
REMARK    3  A    between atoms: C_7  and  C_8
REMARK    4  A    between atoms: C_10  and  C_12
REMARK    5  A    between atoms: C_12  and  N_13
REMARK    6  A    between atoms: N_13  and  C_14
REMARK    7  A    between atoms: N_13  and  C_15
REMARK    8  A    between atoms: C_15  and  C_17
REMARK    9  A    between atoms: C_15  and  C_18
REMARK   10  A    between atoms: N_20  and  C_21
REMARK   11  A    between atoms: C_26  and  C_27
REMARK                            x       y       z     vdW  Elec       q    Type
REMARK                         _______ _______ _______ _____ _____    ______ ____
ROOT
ATOM      1  C   UNL     1      -0.128  -7.064   4.686  0.00  0.00    +0.017 C 
ATOM      2  C   UNL     1       1.282  -6.807   5.223  0.00  0.00    -0.004 C 
ENDROOT
BRANCH   1   3
ATOM      3  C   UNL     1      -0.306  -8.538   4.429  0.00  0.00    +0.203 C 
ATOM      4  O   UNL     1      -0.347  -8.955   3.291  0.00  0.00    -0.277 OA
ATOM      5  N   UNL     1      -0.419  -9.394   5.464  0.00  0.00    -0.286 N 
ATOM      6  H   UNL     1      -0.456  -9.055   6.372  0.00  0.00    +0.155 HD
BRANCH   5   7
ATOM      7  C   UNL     1      -0.483 -10.772   5.229  0.00  0.00    +0.045 A 
ATOM      8  C   UNL     1      -0.970 -11.250   4.020  0.00  0.00    +0.025 A 
ATOM      9  C   UNL     1      -1.032 -12.610   3.790  0.00  0.00    +0.022 A 
ATOM     10  C   UNL     1      -0.609 -13.498   4.764  0.00  0.00    +0.042 A 
ATOM     11  C   UNL     1      -0.123 -13.024   5.970  0.00  0.00    +0.034 A 
ATOM     12  C   UNL     1      -0.053 -11.665   6.202  0.00  0.00    +0.077 A 
ATOM     13 CL   UNL     1      -0.689 -15.207   4.473  0.00  0.00    -0.084 Cl
BRANCH  12  14
ATOM     14  C   UNL     1       0.483 -11.150   7.514  0.00  0.00    +0.419 C 
ATOM     15  F   UNL     1       0.849 -12.230   8.324  0.00  0.00    -0.166 F 
ATOM     16  F   UNL     1       1.602 -10.344   7.276  0.00  0.00    -0.166 F 
ATOM     17  F   UNL     1      -0.505 -10.397   8.158  0.00  0.00    -0.166 F 
ENDBRANCH  12  14
ENDBRANCH   5   7
ENDBRANCH   1   3
BRANCH   1  18
ATOM     18  N   UNL     1      -0.317  -6.322   3.433  0.00  0.00    +0.391 N 
ATOM     19  C   UNL     1      -1.703  -6.483   2.973  0.00  0.00    -0.094 C 
ATOM     20  H   UNL     1       0.314  -6.680   2.732  0.00  0.00    -0.080 HD
BRANCH  18  21
ATOM     21  C   UNL     1      -0.039  -4.898   3.660  0.00  0.00    +0.020 C 
BRANCH  21  23
ATOM     22  N   UNL     1       0.108  -2.827   2.315  0.00  0.00    -0.287 N 
ATOM     23  C   UNL     1      -0.113  -4.156   2.350  0.00  0.00    +0.201 C 
ATOM     24  O   UNL     1      -0.372  -4.755   1.328  0.00  0.00    -0.278 OA
ATOM     25  H   UNL     1       0.388  -2.360   3.118  0.00  0.00    +0.155 HD
BRANCH  22  31
ATOM     26  C   UNL     1       1.147   1.082  -0.480  0.00  0.00    +0.044 C 
ATOM     27  C   UNL     1       0.425  -0.223  -0.261  0.00  0.00    -0.046 A 
ATOM     28  C   UNL     1      -0.412  -0.722  -1.242  0.00  0.00    +0.004 A 
ATOM     29  C   UNL     1      -1.076  -1.919  -1.046  0.00  0.00    +0.002 A 
ATOM     30  C   UNL     1      -0.906  -2.619   0.133  0.00  0.00    +0.023 A 
ATOM     31  C   UNL     1      -0.067  -2.120   1.120  0.00  0.00    +0.036 A 
ATOM     32  C   UNL     1       0.603  -0.920   0.917  0.00  0.00    -0.026 A 
ATOM     33  C   UNL     1       1.520  -0.378   1.984  0.00  0.00    +0.046 C 
ENDBRANCH  22  31
ENDBRANCH  21  23
ENDBRANCH  18  21
ENDBRANCH   1  18
TORSDOF 7
