REMARK  Name = ZINC22370871
REMARK  10 active torsions:
REMARK  status: ('A' for Active; 'I' for Inactive)
REMARK    1  A    between atoms: C_1  and  C_2
REMARK    2  A    between atoms: C_8  and  N_15
REMARK    3  A    between atoms: C_11  and  C_13
REMARK    4  A    between atoms: C_11  and  C_14
REMARK    5  A    between atoms: C_16  and  C_18
REMARK    6  A    between atoms: C_18  and  N_19
REMARK    7  A    between atoms: N_19  and  C_20
REMARK    8  A    between atoms: N_19  and  S_27
REMARK    9  A    between atoms: C_25  and  C_26
REMARK   10  A    between atoms: S_27  and  C_30
REMARK                            x       y       z     vdW  Elec       q    Type
REMARK                         _______ _______ _______ _____ _____    ______ ____
ROOT
ATOM      1  C   UNL     1      -0.598   3.085  -1.926  0.00  0.00    +0.227 C 
ENDROOT
BRANCH   1   3
ATOM      2  N   UNL     1       0.950   3.987  -3.631  0.00  0.00    -0.307 N 
ATOM      3  C   UNL     1       0.487   2.915  -2.958  0.00  0.00    +0.233 C 
ATOM      4  O   UNL     1       0.944   1.814  -3.182  0.00  0.00    -0.274 OA
ATOM      5  H   UNL     1       0.536   4.985  -3.428  0.00  0.00    +0.149 HD
BRANCH   2  13
ATOM      6  C   UNL     1       4.888   2.394  -0.820  0.00  0.00    +0.044 C 
ATOM      7  C   UNL     1       4.726   3.146  -2.116  0.00  0.00    -0.050 A 
ATOM      8  C   UNL     1       5.799   3.831  -2.656  0.00  0.00    +0.007 A 
ATOM      9  C   UNL     1       5.650   4.522  -3.842  0.00  0.00    +0.046 A 
ATOM     10  C   UNL     1       4.422   4.531  -4.496  0.00  0.00    +0.126 A 
ATOM     11  C   UNL     1       3.351   3.842  -3.955  0.00  0.00    +0.015 A 
ATOM     12  C   UNL     1       3.507   3.152  -2.764  0.00  0.00    +0.012 A 
ATOM     13  C   UNL     1       2.005   3.822  -4.634  0.00  0.00    +0.111 C 
ATOM     14  C   UNL     1       1.924   4.963  -5.651  0.00  0.00    +0.074 C 
ATOM     15  C   UNL     1       3.198   4.939  -6.505  0.00  0.00    +0.107 C 
ATOM     16  O   UNL     1       4.313   5.225  -5.659  0.00  0.00    -0.486 OA
ATOM     17  C   UNL     1       3.370   3.554  -7.134  0.00  0.00    +0.055 C 
ATOM     18  C   UNL     1       3.101   5.997  -7.606  0.00  0.00    +0.055 C 
ENDBRANCH   2  13
ENDBRANCH   1   3
BRANCH   1  19
ATOM     19  N   UNL     1      -0.923   1.782  -1.341  0.00  0.00    -0.194 N 
BRANCH  19  20
ATOM     20  C   UNL     1      -1.842   0.942  -1.974  0.00  0.00    +0.055 A 
ATOM     21  C   UNL     1      -1.414   0.055  -2.954  0.00  0.00    +0.025 A 
ATOM     22  C   UNL     1      -2.325  -0.775  -3.578  0.00  0.00    +0.002 A 
ATOM     23  C   UNL     1      -3.662  -0.724  -3.227  0.00  0.00    +0.000 A 
ATOM     24  C   UNL     1      -4.091   0.157  -2.252  0.00  0.00    +0.005 A 
ATOM     25  C   UNL     1      -3.185   0.986  -1.621  0.00  0.00    -0.028 A 
ATOM     26  C   UNL     1      -3.653   1.942  -0.554  0.00  0.00    +0.046 C 
ENDBRANCH  19  20
BRANCH  19  27
ATOM     27  S   UNL     1      -0.202   1.305   0.072  0.00  0.00    +0.075 S 
ATOM     28  O   UNL     1      -0.406  -0.097   0.179  0.00  0.00    -0.150 OA
ATOM     29  O   UNL     1       1.093   1.890   0.084  0.00  0.00    -0.150 OA
BRANCH  27  30
ATOM     30  C   UNL     1      -1.102   2.047   1.393  0.00  0.00    +0.109 A 
ATOM     31  C   UNL     1      -0.827   3.347   1.772  0.00  0.00    +0.030 A 
ATOM     32  C   UNL     1      -1.536   3.931   2.804  0.00  0.00    +0.022 A 
ATOM     33  C   UNL     1      -2.514   3.211   3.466  0.00  0.00    +0.041 A 
ATOM     34  C   UNL     1      -2.786   1.907   3.089  0.00  0.00    +0.022 A 
ATOM     35  C   UNL     1      -2.079   1.326   2.053  0.00  0.00    +0.030 A 
ATOM     36 CL   UNL     1      -3.401   3.941   4.766  0.00  0.00    -0.084 Cl
ENDBRANCH  27  30
ENDBRANCH  19  27
ENDBRANCH   1  19
TORSDOF 6
