REMARK  Name = ZINC61142463
REMARK  7 active torsions:
REMARK  status: ('A' for Active; 'I' for Inactive)
REMARK    1  A    between atoms: C_4  and  C_7
REMARK    2  A    between atoms: C_7  and  C_8
REMARK    3  A    between atoms: C_7  and  N_11
REMARK    4  A    between atoms: N_14  and  C_15
REMARK    5  A    between atoms: C_15  and  C_16
REMARK    6  A    between atoms: C_16  and  C_17
REMARK    7  A    between atoms: C_16  and  N_22
REMARK                            x       y       z     vdW  Elec       q    Type
REMARK                         _______ _______ _______ _____ _____    ______ ____
ROOT
ATOM      1  N   UNL     1       3.624  -1.803   0.930  0.00  0.00    -0.284 N 
ATOM      2  C   UNL     1       4.723  -2.246   1.573  0.00  0.00    +0.300 C 
ATOM      3  O   UNL     1       5.753  -1.600   1.532  0.00  0.00    -0.253 OA
ATOM      4  N   UNL     1       4.680  -3.404   2.261  0.00  0.00    -0.301 N 
ATOM      5  H   UNL     1       2.803  -2.318   0.963  0.00  0.00    +0.151 HD
ATOM      6  H   UNL     1       3.859  -3.918   2.294  0.00  0.00    +0.150 HD
ENDROOT
BRANCH   1   7
ATOM      7  C   UNL     1       3.670  -0.544   0.182  0.00  0.00    +0.190 C 
BRANCH   7  11
ATOM      8  C   UNL     1      -0.263   1.100  -0.085  0.00  0.00    +0.000 A 
ATOM      9  C   UNL     1       0.820   1.931   0.138  0.00  0.00    +0.000 A 
ATOM     10  C   UNL     1       2.093   1.398   0.225  0.00  0.00    +0.006 A 
ATOM     11  C   UNL     1       2.283   0.036   0.089  0.00  0.00    -0.018 A 
ATOM     12  C   UNL     1       1.200  -0.794  -0.134  0.00  0.00    +0.006 A 
ATOM     13  C   UNL     1      -0.073  -0.262  -0.222  0.00  0.00    +0.000 A 
ENDBRANCH   7  11
BRANCH   7  14
ATOM     14  C   UNL     1       4.201  -0.803  -1.204  0.00  0.00    +0.235 C 
ATOM     15  O   UNL     1       4.510  -1.929  -1.535  0.00  0.00    -0.274 OA
ATOM     16  N   UNL     1       4.332   0.215  -2.077  0.00  0.00    -0.328 N 
ATOM     17  H   UNL     1       4.085   1.115  -1.813  0.00  0.00    +0.145 HD
ATOM     18  H   UNL     1       4.673   0.049  -2.970  0.00  0.00    +0.145 HD
ENDBRANCH   7  14
ENDBRANCH   1   7
BRANCH   4  19
ATOM     19  C   UNL     1       5.875  -3.885   2.960  0.00  0.00    +0.098 C 
BRANCH  19  20
ATOM     20  C   UNL     1       5.524  -5.138   3.766  0.00  0.00    +0.016 C 
BRANCH  20  21
ATOM     21  N   UNL     1       6.747  -5.695   4.360  0.00  0.00    +0.387 N 
ATOM     22  C   UNL     1       6.425  -6.917   5.141  0.00  0.00    -0.078 C 
ATOM     23  C   UNL     1       7.781  -7.664   5.205  0.00  0.00    -0.020 C 
ATOM     24  C   UNL     1       8.389  -7.396   3.809  0.00  0.00    -0.020 C 
ATOM     25  C   UNL     1       7.678  -6.130   3.297  0.00  0.00    -0.078 C 
ATOM     26  H   UNL     1       7.190  -5.009   4.952  0.00  0.00    -0.081 HD
ENDBRANCH  20  21
BRANCH  20  27
ATOM     27  C   UNL     1       4.553  -4.776   4.860  0.00  0.00    +0.093 A 
ATOM     28  C   UNL     1       3.223  -4.970   4.826  0.00  0.00    +0.043 A 
ATOM     29  C   UNL     1       2.708  -4.488   6.052  0.00  0.00    +0.041 A 
ATOM     30  C   UNL     1       3.754  -4.029   6.761  0.00  0.00    +0.195 A 
ATOM     31  O   UNL     1       4.870  -4.211   6.036  0.00  0.00    -0.469 OA
ENDBRANCH  20  27
ENDBRANCH  19  20
ENDBRANCH   4  19
TORSDOF 7
