REMARK  Name = ZINC51146674
REMARK  7 active torsions:
REMARK  status: ('A' for Active; 'I' for Inactive)
REMARK    1  A    between atoms: C_1  and  C_2
REMARK    2  A    between atoms: C_3  and  C_22
REMARK    3  A    between atoms: C_7  and  N_20
REMARK    4  A    between atoms: C_9  and  C_11
REMARK    5  A    between atoms: C_11  and  N_12
REMARK    6  A    between atoms: C_17  and  C_19
REMARK    7  A    between atoms: N_20  and  N_21
REMARK                            x       y       z     vdW  Elec       q    Type
REMARK                         _______ _______ _______ _____ _____    ______ ____
ROOT
ATOM      1  C   UNL     1      -1.604   1.383   0.675  0.00  0.00    +0.045 C 
ATOM      2  C   UNL     1      -1.431  -0.112   0.603  0.00  0.00    -0.028 A 
ATOM      3  C   UNL     1      -2.090  -0.827  -0.321  0.00  0.00    -0.008 A 
ATOM      4  S   UNL     1      -1.564  -2.501  -0.005  0.00  0.00    -0.074 S 
ATOM      5  C   UNL     1      -0.475  -2.195   1.360  0.00  0.00    +0.114 A 
ATOM      6  C   UNL     1      -0.545  -0.795   1.529  0.00  0.00    +0.052 A 
ATOM      7  C   UNL     1       0.255  -0.267   2.579  0.00  0.00    +0.144 A 
ATOM      8  N   UNL     1       0.994  -1.091   3.304  0.00  0.00    -0.218 NA
ATOM      9  C   UNL     1       1.015  -2.394   3.086  0.00  0.00    +0.116 A 
ATOM     10  N   UNL     1       0.287  -2.944   2.134  0.00  0.00    -0.227 NA
ATOM     11  C   UNL     1      -3.046  -0.333  -1.376  0.00  0.00    +0.052 C 
ENDROOT
BRANCH   7  12
ATOM     12  N   UNL     1       0.262   1.092   2.839  0.00  0.00    -0.267 N 
ATOM     13  H   UNL     1       0.110   1.724   2.119  0.00  0.00    +0.167 HD
BRANCH  12  14
ATOM     14  N   UNL     1       0.482   1.543   4.109  0.00  0.00    -0.255 NA
ATOM     15  H   UNL     1       0.458   2.551   4.144  0.00  0.00    +0.140 HD
ATOM     16  H   UNL     1      -0.182   1.143   4.755  0.00  0.00    +0.140 HD
ENDBRANCH  12  14
ENDBRANCH   7  12
BRANCH   9  17
ATOM     17  C   UNL     1       1.880  -3.272   3.952  0.00  0.00    -0.001 C 
BRANCH  17  18
ATOM     18  N   UNL     1       1.109  -3.722   5.119  0.00  0.00    +0.386 N 
ATOM     19  C   UNL     1       0.762  -2.564   5.950  0.00  0.00    -0.078 C 
ATOM     20  C   UNL     1      -0.110  -3.016   7.124  0.00  0.00    -0.019 C 
ATOM     21  C   UNL     1       0.663  -4.037   7.964  0.00  0.00    -0.003 C 
ATOM     22  C   UNL     1       1.085  -5.206   7.069  0.00  0.00    -0.016 C 
ATOM     23  C   UNL     1       1.913  -4.672   5.898  0.00  0.00    -0.071 C 
ATOM     24  C   UNL     1       2.336  -5.837   5.001  0.00  0.00    -0.013 C 
ATOM     25  H   UNL     1       0.263  -4.175   4.807  0.00  0.00    -0.081 HD
ENDBRANCH  17  18
ENDBRANCH   9  17
TORSDOF 4
