REMARK  Name = ZINC38937590
REMARK  8 active torsions:
REMARK  status: ('A' for Active; 'I' for Inactive)
REMARK    1  A    between atoms: C_1  and  O_2
REMARK    2  A    between atoms: O_2  and  C_3
REMARK    3  A    between atoms: C_8  and  N_9
REMARK    4  A    between atoms: C_10  and  N_12
REMARK    5  A    between atoms: C_16  and  C_19
REMARK    6  A    between atoms: C_24  and  S_25
REMARK    7  A    between atoms: S_25  and  C_26
REMARK    8  A    between atoms: C_26  and  C_27
REMARK                            x       y       z     vdW  Elec       q    Type
REMARK                         _______ _______ _______ _____ _____    ______ ____
ROOT
ATOM      1  N   UNL     1      -0.570  -4.861   0.694  0.00  0.00    -0.136 NA
ATOM      2  C   UNL     1      -0.604  -6.175   0.576  0.00  0.00    +0.203 C 
ATOM      3  N   UNL     1      -0.058  -6.976  -0.404  0.00  0.00    -0.153 NA
ATOM      4  N   UNL     1      -0.140  -8.183  -0.430  0.00  0.00    -0.289 N 
ATOM      5  C   UNL     1      -0.877  -8.864   0.660  0.00  0.00    +0.194 C 
ATOM      6  S   UNL     1      -1.366  -7.388   1.653  0.00  0.00    -0.056 S 
ATOM      7  H   UNL     1       0.266  -8.692  -1.149  0.00  0.00    +0.184 HD
ENDROOT
BRANCH   5   8
ATOM      8  C   UNL     1      -2.079  -9.605   0.134  0.00  0.00    -0.000 A 
ATOM      9  C   UNL     1      -2.199  -9.856  -1.219  0.00  0.00    +0.007 A 
ATOM     10  C   UNL     1      -3.301 -10.537  -1.703  0.00  0.00    +0.000 A 
ATOM     11  C   UNL     1      -4.287 -10.969  -0.834  0.00  0.00    +0.001 A 
ATOM     12  C   UNL     1      -4.174 -10.721   0.519  0.00  0.00    +0.015 A 
ATOM     13  C   UNL     1      -3.065 -10.043   1.010  0.00  0.00    +0.014 A 
BRANCH  13  14
ATOM     14  S   UNL     1      -2.913  -9.731   2.737  0.00  0.00    -0.120 S 
BRANCH  14  15
ATOM     15  C   UNL     1      -4.406 -10.473   3.450  0.00  0.00    +0.109 C 
BRANCH  15  16
ATOM     16  C   UNL     1      -4.402 -10.275   4.944  0.00  0.00    -0.037 A 
ATOM     17  C   UNL     1      -3.814 -11.219   5.765  0.00  0.00    +0.006 A 
ATOM     18  C   UNL     1      -3.810 -11.037   7.135  0.00  0.00    +0.020 A 
ATOM     19  C   UNL     1      -4.394  -9.910   7.685  0.00  0.00    +0.041 A 
ATOM     20  C   UNL     1      -4.983  -8.966   6.863  0.00  0.00    +0.020 A 
ATOM     21  C   UNL     1      -4.981  -9.146   5.493  0.00  0.00    +0.006 A 
ATOM     22 CL   UNL     1      -4.390  -9.682   9.406  0.00  0.00    -0.084 Cl
ENDBRANCH  15  16
ENDBRANCH  14  15
ENDBRANCH  13  14
ENDBRANCH   5   8
BRANCH   1  24
ATOM     23  N   UNL     1       0.096  -2.777  -0.112  0.00  0.00    -0.265 N 
ATOM     24  C   UNL     1       0.061  -4.119  -0.233  0.00  0.00    +0.330 C 
ATOM     25  O   UNL     1       0.602  -4.660  -1.181  0.00  0.00    -0.250 OA
ATOM     26  H   UNL     1      -0.262  -2.352   0.682  0.00  0.00    +0.157 HD
BRANCH  23  32
ATOM     27  C   UNL     1       1.157  -0.731  -0.851  0.00  0.00    +0.141 A 
ATOM     28  C   UNL     1       1.709   0.034  -1.865  0.00  0.00    +0.047 A 
ATOM     29  C   UNL     1       1.750  -0.456  -3.157  0.00  0.00    +0.004 A 
ATOM     30  C   UNL     1       1.241  -1.710  -3.441  0.00  0.00    +0.002 A 
ATOM     31  C   UNL     1       0.690  -2.480  -2.435  0.00  0.00    +0.027 A 
ATOM     32  C   UNL     1       0.650  -1.997  -1.135  0.00  0.00    +0.077 A 
BRANCH  27  34
ATOM     33  C   UNL     1       1.655   1.056   0.637  0.00  0.00    +0.277 C 
ATOM     34  O   UNL     1       1.116  -0.250   0.420  0.00  0.00    -0.493 OA
ENDBRANCH  27  34
ENDBRANCH  23  32
ENDBRANCH   1  24
TORSDOF 7
