REMARK  Name = ZINC16513010
REMARK  11 active torsions:
REMARK  status: ('A' for Active; 'I' for Inactive)
REMARK    1  A    between atoms: C_1  and  C_2
REMARK    2  A    between atoms: C_5  and  N_8
REMARK    3  A    between atoms: C_9  and  C_11
REMARK    4  A    between atoms: C_11  and  N_54
REMARK    5  A    between atoms: C_12  and  N_54
REMARK    6  A    between atoms: C_13  and  C_15
REMARK    7  A    between atoms: C_13  and  C_16
REMARK    8  A    between atoms: C_13  and  N_54
REMARK    9  A    between atoms: N_18  and  C_19
REMARK   10  A    between atoms: C_19  and  C_20
REMARK   11  A    between atoms: N_22  and  C_23
REMARK                            x       y       z     vdW  Elec       q    Type
REMARK                         _______ _______ _______ _____ _____    ______ ____
ROOT
ATOM      1  C   UNL     1       3.864   7.521   0.406  0.00  0.00    +0.200 C 
ATOM      2  O   UNL     1       2.936   8.301   0.443  0.00  0.00    -0.278 OA
ATOM      3  N   UNL     1       3.629   6.200   0.272  0.00  0.00    -0.308 N 
ATOM      4  H   UNL     1       4.371   5.576   0.242  0.00  0.00    +0.149 HD
ENDROOT
BRANCH   1   5
ATOM      5  C   UNL     1       5.279   8.028   0.511  0.00  0.00    +0.016 C 
ATOM      6  C   UNL     1       5.987   7.326   1.671  0.00  0.00    -0.004 C 
BRANCH   5   8
ATOM      7  C   UNL     1       6.612  10.046   0.626  0.00  0.00    -0.094 C 
ATOM      8  N   UNL     1       5.247   9.489   0.731  0.00  0.00    +0.391 N 
ATOM      9  H   UNL     1       4.654   9.921   0.013  0.00  0.00    -0.080 HD
BRANCH   8  10
ATOM     10  C   UNL     1       4.681   9.787   2.063  0.00  0.00    +0.020 C 
BRANCH  10  12
ATOM     11  N   UNL     1       3.925  11.791   3.300  0.00  0.00    -0.287 N 
ATOM     12  C   UNL     1       4.455  11.273   2.175  0.00  0.00    +0.201 C 
ATOM     13  O   UNL     1       4.750  12.002   1.251  0.00  0.00    -0.278 OA
ATOM     14  H   UNL     1       3.761  11.220   4.067  0.00  0.00    +0.155 HD
BRANCH  11  19
ATOM     15  C   UNL     1       2.648  17.313   3.550  0.00  0.00    +0.044 C 
ATOM     16  C   UNL     1       2.987  15.847   3.484  0.00  0.00    -0.050 A 
ATOM     17  C   UNL     1       2.834  15.156   2.295  0.00  0.00    +0.005 A 
ATOM     18  C   UNL     1       3.144  13.812   2.231  0.00  0.00    +0.023 A 
ATOM     19  C   UNL     1       3.610  13.153   3.362  0.00  0.00    +0.033 A 
ATOM     20  C   UNL     1       3.757  13.848   4.555  0.00  0.00    +0.023 A 
ATOM     21  C   UNL     1       3.451  15.194   4.611  0.00  0.00    +0.005 A 
ENDBRANCH  11  19
ENDBRANCH  10  12
ENDBRANCH   8  10
ENDBRANCH   5   8
ENDBRANCH   1   5
BRANCH   3  22
ATOM     22  C   UNL     1       2.253   5.707   0.170  0.00  0.00    +0.200 C 
BRANCH  22  23
ATOM     23  C   UNL     1       2.267   4.207   0.028  0.00  0.00    +0.234 C 
ATOM     24  O   UNL     1       3.321   3.608   0.014  0.00  0.00    -0.274 OA
ATOM     25  N   UNL     1       1.106   3.530  -0.082  0.00  0.00    -0.282 N 
ATOM     26  H   UNL     1       0.268   4.013  -0.158  0.00  0.00    +0.155 HD
BRANCH  25  27
ATOM     27  C   UNL     1       1.110   2.129  -0.089  0.00  0.00    +0.072 A 
ATOM     28  C   UNL     1       2.153   1.434   0.508  0.00  0.00    +0.029 A 
ATOM     29  C   UNL     1       2.156   0.052   0.502  0.00  0.00    +0.043 A 
ATOM     30  C   UNL     1       1.121  -0.642  -0.100  0.00  0.00    +0.161 A 
ATOM     31  C   UNL     1       0.077   0.048  -0.698  0.00  0.00    +0.195 A 
ATOM     32  C   UNL     1       0.070   1.433  -0.693  0.00  0.00    +0.182 A 
ATOM     33  F   UNL     1      -0.943   2.106  -1.280  0.00  0.00    -0.200 F 
ATOM     34  F   UNL     1      -0.932  -0.631  -1.286  0.00  0.00    -0.199 F 
ATOM     35  F   UNL     1       1.128  -1.992  -0.106  0.00  0.00    -0.202 F 
ENDBRANCH  25  27
ENDBRANCH  22  23
ENDBRANCH   3  22
TORSDOF 8
