REMARK  Name = ZINC13815405
REMARK  11 active torsions:
REMARK  status: ('A' for Active; 'I' for Inactive)
REMARK    1  A    between atoms: C_1  and  C_2
REMARK    2  A    between atoms: C_2  and  O_3
REMARK    3  A    between atoms: O_3  and  C_4
REMARK    4  A    between atoms: C_9  and  C_10
REMARK    5  A    between atoms: C_18  and  O_38
REMARK    6  A    between atoms: C_21  and  C_22
REMARK    7  A    between atoms: C_21  and  N_75
REMARK    8  A    between atoms: N_24  and  C_25
REMARK    9  A    between atoms: C_26  and  C_34
REMARK   10  A    between atoms: C_34  and  O_36
REMARK   11  A    between atoms: O_36  and  C_37
REMARK                            x       y       z     vdW  Elec       q    Type
REMARK                         _______ _______ _______ _____ _____    ______ ____
ROOT
ATOM      1  C   UNL     1      -0.744   1.592  -1.236  0.00  0.00    -0.028 C 
ATOM      2  C   UNL     1      -0.013   1.086   0.008  0.00  0.00    +0.011 C 
ATOM      3  C   UNL     1      -0.723   1.579   1.270  0.00  0.00    +0.005 C 
ATOM      4  C   UNL     1       0.019   1.056   2.503  0.00  0.00    +0.000 C 
ATOM      5  C   UNL     1       1.461   1.566   2.491  0.00  0.00    +0.003 C 
ATOM      6  C   UNL     1       2.168   1.083   1.223  0.00  0.00    +0.035 C 
ATOM      7  C   UNL     1       1.424   1.616  -0.003  0.00  0.00    +0.066 C 
ATOM      8  C   UNL     1       2.120   1.146  -1.282  0.00  0.00    +0.016 C 
ATOM      9  C   UNL     1       1.329   1.644  -2.494  0.00  0.00    -0.075 C 
ATOM     10  N   UNL     1      -0.042   1.092  -2.438  0.00  0.00    +0.390 N 
ATOM     11  H   UNL     1       0.014   0.068  -2.388  0.00  0.00    -0.080 HD
ENDROOT
BRANCH   1  17
ATOM     12  C   UNL     1      -3.150   1.735  -0.544  0.00  0.00    +0.122 A 
ATOM     13  C   UNL     1      -4.449   1.246  -0.549  0.00  0.00    +0.046 A 
ATOM     14  C   UNL     1      -4.748   0.092  -1.247  0.00  0.00    +0.004 A 
ATOM     15  C   UNL     1      -3.754  -0.576  -1.939  0.00  0.00    +0.000 A 
ATOM     16  C   UNL     1      -2.461  -0.088  -1.940  0.00  0.00    +0.005 A 
ATOM     17  C   UNL     1      -2.156   1.064  -1.239  0.00  0.00    -0.019 A 
BRANCH  12  18
ATOM     18  O   UNL     1      -2.853   2.870   0.142  0.00  0.00    -0.492 OA
BRANCH  18  20
ATOM     19  C   UNL     1      -3.405   4.761   1.543  0.00  0.00    +0.048 C 
ATOM     20  C   UNL     1      -3.928   3.509   0.835  0.00  0.00    +0.225 C 
ENDBRANCH  18  20
ENDBRANCH  12  18
ENDBRANCH   1  17
BRANCH   7  21
ATOM     21  O   UNL     1       1.406   3.044   0.033  0.00  0.00    -0.388 OA
ATOM     22  H   UNL     1       2.284   3.449   0.028  0.00  0.00    +0.210 HD
ENDBRANCH   7  21
BRANCH  10  23
ATOM     23  C   UNL     1      -0.789   1.474  -3.654  0.00  0.00    +0.020 C 
BRANCH  23  24
ATOM     24  C   UNL     1      -0.184   0.763  -4.837  0.00  0.00    +0.201 C 
ATOM     25  O   UNL     1       0.775   0.036  -4.682  0.00  0.00    -0.278 OA
ATOM     26  N   UNL     1      -0.708   0.935  -6.066  0.00  0.00    -0.281 N 
ATOM     27  H   UNL     1      -1.475   1.516  -6.190  0.00  0.00    +0.155 HD
BRANCH  26  28
ATOM     28  C   UNL     1      -0.152   0.281  -7.155  0.00  0.00    +0.086 A 
ATOM     29  C   UNL     1      -0.549   0.326  -8.484  0.00  0.00    +0.091 A 
ATOM     30  C   UNL     1       0.214  -0.459  -9.440  0.00  0.00    -0.021 A 
ATOM     31  C   UNL     1       1.238  -1.166  -8.916  0.00  0.00    -0.004 A 
ATOM     32  S   UNL     1       1.205  -0.797  -7.185  0.00  0.00    -0.077 S 
ATOM     33  C   UNL     1       2.187  -2.062  -9.651  0.00  0.00    +0.043 C 
ATOM     34  C   UNL     1       1.596  -2.358 -11.038  0.00  0.00    +0.005 C 
ATOM     35  C   UNL     1       1.138  -1.040 -11.670  0.00  0.00    +0.005 C 
ATOM     36  C   UNL     1      -0.093  -0.510 -10.932  0.00  0.00    +0.037 C 
BRANCH  29  37
ATOM     37  C   UNL     1      -1.693   1.136  -8.908  0.00  0.00    +0.342 C 
ATOM     38  O   UNL     1      -1.526   2.292  -9.249  0.00  0.00    -0.245 OA
BRANCH  37  39
ATOM     39  O   UNL     1      -2.931   0.601  -8.921  0.00  0.00    -0.464 OA
ATOM     40  C   UNL     1      -4.017   1.463  -9.352  0.00  0.00    +0.280 C 
ENDBRANCH  37  39
ENDBRANCH  29  37
ENDBRANCH  26  28
ENDBRANCH  23  24
ENDBRANCH  10  23
TORSDOF 9
