REMARK  Name = ZINC27370113
REMARK  10 active torsions:
REMARK  status: ('A' for Active; 'I' for Inactive)
REMARK    1  A    between atoms: C_4  and  C_8
REMARK    2  A    between atoms: C_8  and  N_9
REMARK    3  A    between atoms: N_9  and  C_10
REMARK    4  A    between atoms: N_9  and  C_26
REMARK    5  A    between atoms: C_10  and  C_11
REMARK    6  A    between atoms: N_13  and  C_14
REMARK    7  A    between atoms: C_14  and  C_15
REMARK    8  A    between atoms: C_15  and  C_16
REMARK    9  A    between atoms: C_19  and  S_22
REMARK   10  A    between atoms: S_22  and  N_25
REMARK                            x       y       z     vdW  Elec       q    Type
REMARK                         _______ _______ _______ _____ _____    ______ ____
ROOT
ATOM      1  C   UNL     1      -0.405   1.590  -3.673  0.00  0.00    +0.196 C 
ATOM      2  O   UNL     1      -1.226   2.475  -3.790  0.00  0.00    -0.278 OA
ATOM      3  N   UNL     1       0.035   1.237  -2.449  0.00  0.00    -0.317 N 
ATOM      4  H   UNL     1       0.779   0.434  -2.343  0.00  0.00    +0.149 HD
ENDROOT
BRANCH   1   5
ATOM      5  C   UNL     1       0.123   0.886  -4.896  0.00  0.00    +0.019 C 
BRANCH   5   6
ATOM      6  N   UNL     1      -0.613   1.345  -6.082  0.00  0.00    +0.390 N 
ATOM      7  H   UNL     1      -0.682   2.442  -6.033  0.00  0.00    -0.080 HD
BRANCH   6   8
ATOM      8  C   UNL     1       0.102   0.992  -7.315  0.00  0.00    -0.068 C 
ATOM      9  C   UNL     1       1.310   0.061  -7.189  0.00  0.00    -0.017 C 
ATOM     10  C   UNL     1       1.517   1.547  -7.494  0.00  0.00    -0.017 C 
ENDBRANCH   6   8
BRANCH   6  11
ATOM     11  C   UNL     1      -1.980   0.807  -6.094  0.00  0.00    -0.038 C 
BRANCH  11  15
ATOM     12  C   UNL     1      -4.242   2.731  -9.168  0.00  0.00    +0.004 A 
ATOM     13  C   UNL     1      -3.537   1.576  -9.450  0.00  0.00    +0.038 A 
ATOM     14  C   UNL     1      -2.804   0.952  -8.455  0.00  0.00    +0.126 A 
ATOM     15  C   UNL     1      -2.778   1.485  -7.178  0.00  0.00    -0.010 A 
ATOM     16  C   UNL     1      -3.488   2.638  -6.896  0.00  0.00    +0.045 A 
ATOM     17  C   UNL     1      -4.215   3.264  -7.893  0.00  0.00    +0.020 A 
ATOM     18 CL   UNL     1      -3.461   3.304  -5.293  0.00  0.00    -0.083 Cl
ATOM     19  F   UNL     1      -2.115  -0.177  -8.730  0.00  0.00    -0.205 F 
ENDBRANCH  11  15
ENDBRANCH   6  11
ENDBRANCH   5   6
ENDBRANCH   1   5
BRANCH   3  20
ATOM     20  C   UNL     1      -0.478   1.922  -1.260  0.00  0.00    +0.109 C 
BRANCH  20  21
ATOM     21  C   UNL     1       0.179   1.335  -0.010  0.00  0.00    +0.054 C 
BRANCH  21  22
ATOM     22  C   UNL     1      -0.349   2.039   1.213  0.00  0.00    -0.046 A 
ATOM     23  C   UNL     1       0.293   3.165   1.693  0.00  0.00    +0.005 A 
ATOM     24  C   UNL     1      -0.193   3.814   2.813  0.00  0.00    +0.029 A 
ATOM     25  C   UNL     1      -1.317   3.332   3.457  0.00  0.00    +0.105 A 
ATOM     26  C   UNL     1      -1.956   2.203   2.980  0.00  0.00    +0.029 A 
ATOM     27  C   UNL     1      -1.472   1.556   1.859  0.00  0.00    +0.005 A 
BRANCH  25  28
ATOM     28  S   UNL     1      -1.935   4.156   4.887  0.00  0.00    +0.056 S 
ATOM     29  O   UNL     1      -1.479   5.500   4.809  0.00  0.00    -0.153 OA
ATOM     30  O   UNL     1      -3.313   3.824   4.983  0.00  0.00    -0.153 OA
BRANCH  28  31
ATOM     31  N   UNL     1      -1.191   3.479   6.202  0.00  0.00    -0.204 NA
ATOM     32  H   UNL     1      -1.551   3.969   7.119  0.00  0.00    +0.144 HD
ATOM     33  H   UNL     1      -0.103   3.614   6.118  0.00  0.00    +0.144 HD
ENDBRANCH  28  31
ENDBRANCH  25  28
ENDBRANCH  21  22
ENDBRANCH  20  21
ENDBRANCH   3  20
TORSDOF 10
