REMARK  Name = ZINC15947239
REMARK  5 active torsions:
REMARK  status: ('A' for Active; 'I' for Inactive)
REMARK    1  A    between atoms: C_1  and  C_2
REMARK    2  A    between atoms: C_2  and  N_3
REMARK    3  A    between atoms: C_11  and  O_25
REMARK    4  A    between atoms: C_13  and  C_16
REMARK    5  A    between atoms: C_21  and  O_22
REMARK                            x       y       z     vdW  Elec       q    Type
REMARK                         _______ _______ _______ _____ _____    ______ ____
ROOT
ATOM      1  N   UNL     1       0.713  -0.491   1.192  0.00  0.00    +0.383 N 
ATOM      2  C   UNL     1       0.840  -1.952   1.122  0.00  0.00    -0.074 C 
ATOM      3  C   UNL     1       1.836  -2.447   2.176  0.00  0.00    +0.018 C 
ATOM      4  C   UNL     1       1.420  -1.870   3.522  0.00  0.00    -0.027 A 
ATOM      5  C   UNL     1       0.567  -0.818   3.574  0.00  0.00    -0.021 A 
ATOM      6  S   UNL     1       0.364  -0.488   5.301  0.00  0.00    -0.080 S 
ATOM      7  C   UNL     1       1.352  -1.667   5.923  0.00  0.00    +0.080 A 
ATOM      8  C   UNL     1       1.862  -2.354   4.814  0.00  0.00    +0.067 A 
ATOM      9  C   UNL     1       2.780  -3.492   5.077  0.00  0.00    +0.220 C 
ATOM     10  N   UNL     1       3.250  -3.624   6.288  0.00  0.00    -0.223 NA
ATOM     11  C   UNL     1       2.987  -2.698   7.382  0.00  0.00    +0.227 C 
ATOM     12  N   UNL     1       1.695  -2.008   7.211  0.00  0.00    -0.313 N 
ATOM     13  C   UNL     1      -0.043  -0.117   2.402  0.00  0.00    -0.035 C 
ATOM     14  H   UNL     1       1.120  -1.805   7.965  0.00  0.00    +0.149 HD
ATOM     15  H   UNL     1       1.631  -0.075   1.228  0.00  0.00    -0.081 HD
ENDROOT
BRANCH  11  16
ATOM     16  C   UNL     1       4.089  -1.671   7.433  0.00  0.00    +0.038 A 
ATOM     17  C   UNL     1       3.804  -0.370   7.802  0.00  0.00    +0.031 A 
ATOM     18  C   UNL     1       4.815   0.574   7.849  0.00  0.00    +0.043 A 
ATOM     19  C   UNL     1       6.113   0.217   7.526  0.00  0.00    +0.039 A 
ATOM     20  C   UNL     1       6.401  -1.083   7.156  0.00  0.00    +0.061 A 
ATOM     21  C   UNL     1       5.389  -2.032   7.114  0.00  0.00    +0.138 A 
ATOM     22 BR   UNL     1       8.174  -1.570   6.714  0.00  0.00    -0.046 Br
ATOM     23 CL   UNL     1       4.455   2.207   8.313  0.00  0.00    -0.083 Cl
BRANCH  21  24
ATOM     24  O   UNL     1       5.671  -3.312   6.756  0.00  0.00    -0.505 OA
ATOM     25  H   UNL     1       5.602  -3.479   5.806  0.00  0.00    +0.292 HD
ENDBRANCH  21  24
ENDBRANCH  11  16
BRANCH   1  27
ATOM     26  C   UNL     1      -0.019   1.526   0.010  0.00  0.00    -0.017 C 
ATOM     27  C   UNL     1       0.002  -0.004   0.002  0.00  0.00    -0.082 C 
ENDBRANCH   1  27
BRANCH   9  28
ATOM     28  O   UNL     1       3.117  -4.361   4.096  0.00  0.00    -0.492 OA
ATOM     29  H   UNL     1       3.720  -5.061   4.382  0.00  0.00    +0.294 HD
ENDBRANCH   9  28
TORSDOF 4
