REMARK  Name = ZINC00881834
REMARK  9 active torsions:
REMARK  status: ('A' for Active; 'I' for Inactive)
REMARK    1  A    between atoms: C_1  and  C_2
REMARK    2  A    between atoms: C_4  and  O_29
REMARK    3  A    between atoms: C_8  and  C_21
REMARK    4  A    between atoms: C_14  and  C_19
REMARK    5  A    between atoms: C_14  and  C_20
REMARK    6  A    between atoms: C_24  and  O_27
REMARK    7  A    between atoms: O_27  and  C_28
REMARK    8  A    between atoms: O_29  and  C_30
REMARK    9  A    between atoms: C_30  and  C_32
REMARK                            x       y       z     vdW  Elec       q    Type
REMARK                         _______ _______ _______ _____ _____    ______ ____
ROOT
ATOM      1  C   UNL     1      -2.387  -0.205   6.747  0.00  0.00    +0.044 C 
ATOM      2  C   UNL     1      -2.216   0.800   5.638  0.00  0.00    -0.040 A 
ATOM      3  C   UNL     1      -1.508   0.456   4.503  0.00  0.00    +0.050 A 
ATOM      4  C   UNL     1      -1.343   1.381   3.483  0.00  0.00    +0.135 A 
ATOM      5  C   UNL     1      -1.898   2.645   3.602  0.00  0.00    +0.092 A 
ATOM      6  C   UNL     1      -2.615   2.988   4.742  0.00  0.00    +0.131 A 
ATOM      7  C   UNL     1      -2.774   2.062   5.760  0.00  0.00    +0.005 A 
ATOM      8  C   UNL     1      -3.550   2.392   7.010  0.00  0.00    +0.058 C 
ATOM      9  C   UNL     1      -3.701   3.910   7.139  0.00  0.00    +0.081 C 
ATOM     10  C   UNL     1      -4.170   4.462   5.788  0.00  0.00    +0.180 C 
ATOM     11  O   UNL     1      -3.143   4.237   4.824  0.00  0.00    -0.468 OA
ATOM     12  C   UNL     1      -4.442   5.963   5.916  0.00  0.00    +0.094 C 
ATOM     13  C   UNL     1      -5.019   6.470   4.590  0.00  0.00    +0.033 C 
ATOM     14  N   UNL     1      -6.202   5.678   4.246  0.00  0.00    -0.321 N 
ATOM     15  C   UNL     1      -6.328   4.402   4.640  0.00  0.00    +0.133 C 
ATOM     16  S   UNL     1      -7.731   3.534   4.182  0.00  0.00    -0.019 S 
ATOM     17  N   UNL     1      -5.396   3.779   5.378  0.00  0.00    -0.289 N 
ATOM     18  C   UNL     1      -5.413   7.941   4.732  0.00  0.00    +0.031 C 
ATOM     19  C   UNL     1      -3.969   6.326   3.487  0.00  0.00    +0.031 C 
ATOM     20  H   UNL     1      -6.910   6.085   3.723  0.00  0.00    +0.148 HD
ATOM     21  H   UNL     1      -5.539   2.858   5.644  0.00  0.00    +0.151 HD
ENDROOT
BRANCH   8  22
ATOM     22  C   UNL     1      -2.814   1.858   8.212  0.00  0.00    -0.039 A 
ATOM     23  C   UNL     1      -1.488   2.192   8.414  0.00  0.00    +0.008 A 
ATOM     24  C   UNL     1      -0.813   1.708   9.518  0.00  0.00    +0.046 A 
ATOM     25  C   UNL     1      -1.464   0.877  10.418  0.00  0.00    +0.120 A 
ATOM     26  C   UNL     1      -2.793   0.538  10.210  0.00  0.00    +0.046 A 
ATOM     27  C   UNL     1      -3.465   1.029   9.107  0.00  0.00    +0.008 A 
BRANCH  25  28
ATOM     28  O   UNL     1      -0.800   0.395  11.502  0.00  0.00    -0.495 OA
ATOM     29  C   UNL     1       0.566   0.785  11.652  0.00  0.00    +0.277 C 
ENDBRANCH  25  28
ENDBRANCH   8  22
BRANCH   4  30
ATOM     30  O   UNL     1      -0.644   1.047   2.366  0.00  0.00    -0.426 OA
BRANCH  30  31
ATOM     31  C   UNL     1       0.601   1.540   2.256  0.00  0.00    +0.309 C 
ATOM     32  O   UNL     1       1.018   2.317   3.082  0.00  0.00    -0.251 OA
ATOM     33  C   UNL     1       1.476   1.123   1.103  0.00  0.00    +0.136 C 
ENDBRANCH  30  31
ENDBRANCH   4  30
TORSDOF 4
