REMARK  Name = ZINC39006609
REMARK  6 active torsions:
REMARK  status: ('A' for Active; 'I' for Inactive)
REMARK    1  A    between atoms: C_1  and  C_2
REMARK    2  A    between atoms: C_5  and  N_9
REMARK    3  A    between atoms: C_7  and  C_8
REMARK    4  A    between atoms: C_10  and  O_34
REMARK    5  A    between atoms: C_13  and  O_33
REMARK    6  A    between atoms: C_14  and  C_18
REMARK                            x       y       z     vdW  Elec       q    Type
REMARK                         _______ _______ _______ _____ _____    ______ ____
ROOT
ATOM      1  N   UNL     1       0.059  -4.170  -0.021  0.00  0.00    -0.225 N 
ATOM      2  C   UNL     1       0.180  -4.874   1.247  0.00  0.00    +0.338 C 
ATOM      3  N   UNL     1      -0.279  -6.250   1.155  0.00  0.00    -0.204 NA
ATOM      4  C   UNL     1      -0.384  -6.900   0.062  0.00  0.00    +0.200 C 
ATOM      5  C   UNL     1      -0.044  -6.308  -1.274  0.00  0.00    +0.183 C 
ATOM      6  C   UNL     1      -0.042  -4.808  -1.194  0.00  0.00    +0.237 C 
ATOM      7  O   UNL     1      -0.128  -4.160  -2.216  0.00  0.00    -0.274 OA
ENDROOT
BRANCH   5   8
ATOM      8  C   UNL     1       1.341  -6.795  -1.706  0.00  0.00    +0.122 C 
ATOM      9  C   UNL     1       1.310  -8.290  -1.918  0.00  0.00    +0.039 A 
ATOM     10  H   UNL     1      -0.458  -8.644  -2.962  0.00  0.00    +0.166 HD
ATOM     11  C   UNL     1       2.284  -9.117  -1.477  0.00  0.00    -0.016 A 
ATOM     12  C   UNL     1       1.911 -10.460  -1.860  0.00  0.00    +0.003 A 
ATOM     13  C   UNL     1       2.521 -11.705  -1.678  0.00  0.00    +0.010 A 
ATOM     14  C   UNL     1       1.865 -12.799  -2.188  0.00  0.00    +0.001 A 
ATOM     15  C   UNL     1       0.656 -12.688  -2.853  0.00  0.00    +0.002 A 
ATOM     16  C   UNL     1       0.030 -11.468  -3.049  0.00  0.00    +0.026 A 
ATOM     17  C   UNL     1       0.672 -10.341  -2.542  0.00  0.00    +0.047 A 
ATOM     18  N   UNL     1       0.342  -9.015  -2.558  0.00  0.00    -0.356 N 
ATOM     19  C   UNL     1       3.506  -8.641  -0.732  0.00  0.00    +0.052 C 
ATOM     20  C   UNL     1       3.621  -7.123  -0.931  0.00  0.00    +0.086 C 
ATOM     21  N   UNL     1       2.323  -6.489  -0.653  0.00  0.00    -0.307 NA
ATOM     22  H   UNL     1       2.423  -5.493  -0.530  0.00  0.00    +0.123 HD
ENDBRANCH   5   8
BRANCH   1  27
ATOM     23  C   UNL     1      -0.017   1.503   0.012  0.00  0.00    +0.044 C 
ATOM     24  C   UNL     1       0.004  -0.004   0.003  0.00  0.00    -0.047 A 
ATOM     25  C   UNL     1      -1.186  -0.710  -0.002  0.00  0.00    +0.005 A 
ATOM     26  C   UNL     1      -1.171  -2.091  -0.010  0.00  0.00    +0.024 A 
ATOM     27  C   UNL     1       0.040  -2.771  -0.013  0.00  0.00    +0.041 A 
ATOM     28  C   UNL     1       1.232  -2.059  -0.009  0.00  0.00    +0.027 A 
ATOM     29  C   UNL     1       1.211  -0.678  -0.005  0.00  0.00    -0.046 A 
ATOM     30  C   UNL     1       2.504   0.095  -0.006  0.00  0.00    +0.044 C 
ENDBRANCH   1  27
BRANCH   4  31
ATOM     31  O   UNL     1      -0.819  -8.176   0.110  0.00  0.00    -0.495 OA
ATOM     32  H   UNL     1      -1.019  -8.491   1.002  0.00  0.00    +0.293 HD
ENDBRANCH   4  31
BRANCH   2  33
ATOM     33  O   UNL     1      -0.598  -4.192   2.233  0.00  0.00    -0.356 OA
ATOM     34  H   UNL     1      -0.569  -4.601   3.109  0.00  0.00    +0.214 HD
ENDBRANCH   2  33
TORSDOF 4
