REMARK  Name = ZINC63557210
REMARK  8 active torsions:
REMARK  status: ('A' for Active; 'I' for Inactive)
REMARK    1  A    between atoms: C_1  and  C_2
REMARK    2  A    between atoms: C_6  and  N_9
REMARK    3  A    between atoms: C_10  and  C_12
REMARK    4  A    between atoms: N_17  and  C_19
REMARK    5  A    between atoms: C_19  and  C_20
REMARK    6  A    between atoms: C_20  and  C_21
REMARK    7  A    between atoms: C_24  and  O_30
REMARK    8  A    between atoms: O_30  and  C_31
REMARK                            x       y       z     vdW  Elec       q    Type
REMARK                         _______ _______ _______ _____ _____    ______ ____
ROOT
ATOM      1  C   UNL     1      -0.636  -3.249   5.292  0.00  0.00    +0.101 C 
ATOM      2  C   UNL     1      -0.951  -1.905   5.989  0.00  0.00    +0.110 C 
ATOM      3  C   UNL     1      -0.586  -2.144   7.437  0.00  0.00    +0.216 C 
ATOM      4  O   UNL     1      -0.936  -1.447   8.366  0.00  0.00    -0.276 OA
ATOM      5  N   UNL     1       0.184  -3.241   7.545  0.00  0.00    -0.300 N 
ATOM      6  C   UNL     1       0.431  -3.850   6.233  0.00  0.00    +0.121 C 
ENDROOT
BRANCH   1   8
ATOM      7  N   UNL     1      -0.834  -2.445   2.961  0.00  0.00    -0.290 N 
ATOM      8  C   UNL     1      -0.074  -3.023   3.912  0.00  0.00    +0.220 C 
ATOM      9  O   UNL     1       1.063  -3.361   3.658  0.00  0.00    -0.275 OA
ATOM     10  H   UNL     1      -1.743  -2.175   3.164  0.00  0.00    +0.151 HD
BRANCH   7  15
ATOM     11  C   UNL     1      -0.019   1.526   0.010  0.00  0.00    +0.037 C 
ATOM     12  C   UNL     1       0.002  -0.004   0.002  0.00  0.00    +0.126 C 
ATOM     13  N   UNL     1      -1.375  -0.573   0.125  0.00  0.00    -0.242 NA
ATOM     14  N   UNL     1      -1.367  -1.922   0.650  0.00  0.00    -0.227 NA
ATOM     15  C   UNL     1      -0.286  -2.225   1.620  0.00  0.00    +0.216 C 
ATOM     16  S   UNL     1       0.724  -0.682   1.563  0.00  0.00    -0.102 S 
ATOM     17  H   UNL     1      -1.864  -0.531  -0.757  0.00  0.00    +0.142 HD
ATOM     18  H   UNL     1      -1.383  -2.601  -0.096  0.00  0.00    +0.143 HD
ENDBRANCH   7  15
ENDBRANCH   1   8
BRANCH   5  19
ATOM     19  C   UNL     1       0.707  -3.762   8.810  0.00  0.00    +0.112 C 
BRANCH  19  20
ATOM     20  C   UNL     1      -0.291  -4.757   9.405  0.00  0.00    +0.052 C 
BRANCH  20  21
ATOM     21  C   UNL     1       0.247  -5.293  10.706  0.00  0.00    -0.040 C 
ATOM     22  C   UNL     1      -0.027  -4.836  11.949  0.00  0.00    +0.002 A 
ATOM     23  C   UNL     1      -0.875  -3.747  12.444  0.00  0.00    +0.055 A 
ATOM     24  C   UNL     1      -0.956  -3.518  13.777  0.00  0.00    +0.121 A 
ATOM     25  C   UNL     1      -0.252  -4.292  14.716  0.00  0.00    +0.047 A 
ATOM     26  C   UNL     1       0.553  -5.314  14.357  0.00  0.00    +0.029 A 
ATOM     27  C   UNL     1       0.715  -5.651  12.939  0.00  0.00    +0.043 A 
ATOM     28  N   UNL     1       1.419  -6.574  12.332  0.00  0.00    -0.380 N 
ATOM     29  C   UNL     1       1.199  -6.454  10.886  0.00  0.00    +0.144 C 
ATOM     30  H   UNL     1       1.987  -7.229  12.767  0.00  0.00    +0.160 HD
BRANCH  24  31
ATOM     31  O   UNL     1      -1.745  -2.504  14.222  0.00  0.00    -0.495 OA
ATOM     32  C   UNL     1      -1.802  -2.298  15.635  0.00  0.00    +0.277 C 
ENDBRANCH  24  31
ENDBRANCH  20  21
ENDBRANCH  19  20
ENDBRANCH   5  19
TORSDOF 6
