REMARK  Name = ZINC40777923
REMARK  6 active torsions:
REMARK  status: ('A' for Active; 'I' for Inactive)
REMARK    1  A    between atoms: C_4  and  N_7
REMARK    2  A    between atoms: N_7  and  C_8
REMARK    3  A    between atoms: N_7  and  N_14
REMARK    4  A    between atoms: C_16  and  N_32
REMARK    5  A    between atoms: C_17  and  N_21
REMARK    6  A    between atoms: N_21  and  C_22
REMARK                            x       y       z     vdW  Elec       q    Type
REMARK                         _______ _______ _______ _____ _____    ______ ____
ROOT
ATOM      1  N   UNL     1       4.607   0.471  -0.339  0.00  0.00    -0.242 N 
ATOM      2  C   UNL     1       5.336   1.278   0.526  0.00  0.00    +0.161 A 
ATOM      3  C   UNL     1       6.527   1.875   0.105  0.00  0.00    +0.105 A 
ATOM      4  C   UNL     1       7.219   2.677   1.014  0.00  0.00    +0.126 A 
ATOM      5  N   UNL     1       6.721   2.842   2.238  0.00  0.00    -0.333 N 
ATOM      6  C   UNL     1       5.594   2.260   2.594  0.00  0.00    +0.200 A 
ATOM      7  N   UNL     1       4.907   1.500   1.766  0.00  0.00    -0.219 NA
ATOM      8  H   UNL     1       4.927   0.314  -1.242  0.00  0.00    +0.172 HD
ATOM      9  H   UNL     1       7.195   3.397   2.876  0.00  0.00    +0.168 HD
ENDROOT
BRANCH   3  10
ATOM     10  N   UNL     1       7.014   1.672  -1.196  0.00  0.00    -0.353 N 
ATOM     11  H   UNL     1       6.523   1.112  -1.816  0.00  0.00    +0.143 HD
ATOM     12  H   UNL     1       7.843   2.093  -1.474  0.00  0.00    +0.143 HD
ENDBRANCH   3  10
BRANCH   4  13
ATOM     13  N   UNL     1       8.409   3.294   0.647  0.00  0.00    -0.299 N 
ATOM     14  H   UNL     1       8.723   3.237  -0.269  0.00  0.00    +0.154 HD
BRANCH  13  15
ATOM     15  C   UNL     1       9.153   3.993   1.595  0.00  0.00    +0.042 A 
ATOM     16  C   UNL     1       9.176   5.372   1.583  0.00  0.00    +0.024 A 
ATOM     17  C   UNL     1       9.916   6.076   2.527  0.00  0.00    +0.004 A 
ATOM     18  C   UNL     1      10.634   5.428   3.486  0.00  0.00    +0.028 A 
ATOM     19  C   UNL     1      10.639   4.024   3.534  0.00  0.00    +0.073 A 
ATOM     20  C   UNL     1       9.884   3.297   2.580  0.00  0.00    +0.022 A 
ATOM     21  C   UNL     1       9.887   1.893   2.635  0.00  0.00    +0.013 A 
ATOM     22  C   UNL     1      10.619   1.286   3.617  0.00  0.00    +0.020 A 
ATOM     23  C   UNL     1      11.335   2.059   4.527  0.00  0.00    +0.111 A 
ATOM     24  N   UNL     1      11.338   3.369   4.467  0.00  0.00    -0.255 NA
ENDBRANCH  13  15
ENDBRANCH   4  13
BRANCH   1  25
ATOM     25  N   UNL     1       3.411  -0.117   0.092  0.00  0.00    -0.221 N 
BRANCH  25  29
ATOM     26  C   UNL     1      -0.032   2.196   0.459  0.00  0.00    +0.000 A 
ATOM     27  C   UNL     1       0.142   1.085   1.265  0.00  0.00    +0.002 A 
ATOM     28  C   UNL     1       1.283   0.316   1.146  0.00  0.00    +0.025 A 
ATOM     29  C   UNL     1       2.256   0.658   0.215  0.00  0.00    +0.053 A 
ATOM     30  C   UNL     1       2.077   1.775  -0.593  0.00  0.00    +0.025 A 
ATOM     31  C   UNL     1       0.934   2.540  -0.468  0.00  0.00    +0.002 A 
ENDBRANCH  25  29
BRANCH  25  32
ATOM     32  C   UNL     1       3.373  -1.480   0.399  0.00  0.00    +0.053 A 
ATOM     33  C   UNL     1       2.363  -2.282  -0.116  0.00  0.00    +0.025 A 
ATOM     34  C   UNL     1       2.329  -3.628   0.189  0.00  0.00    +0.002 A 
ATOM     35  C   UNL     1       3.299  -4.178   1.007  0.00  0.00    +0.000 A 
ATOM     36  C   UNL     1       4.306  -3.383   1.522  0.00  0.00    +0.002 A 
ATOM     37  C   UNL     1       4.350  -2.037   1.216  0.00  0.00    +0.025 A 
ENDBRANCH  25  32
ENDBRANCH   1  25
TORSDOF 6
