REMARK  Name = ZINC58093459
REMARK  7 active torsions:
REMARK  status: ('A' for Active; 'I' for Inactive)
REMARK    1  A    between atoms: C_1  and  C_2
REMARK    2  A    between atoms: C_2  and  C_3
REMARK    3  A    between atoms: C_7  and  C_9
REMARK    4  A    between atoms: C_9  and  C_11
REMARK    5  A    between atoms: C_9  and  N_12
REMARK    6  A    between atoms: C_16  and  C_18
REMARK    7  A    between atoms: C_18  and  C_19
REMARK                            x       y       z     vdW  Elec       q    Type
REMARK                         _______ _______ _______ _____ _____    ______ ____
ROOT
ATOM      1  C   UNL     1       0.707  -0.490  -1.238  0.00  0.00    -0.047 A 
ATOM      2  C   UNL     1      -0.010  -0.719  -2.400  0.00  0.00    +0.009 A 
ATOM      3  C   UNL     1       0.638  -1.163  -3.530  0.00  0.00    -0.014 A 
ATOM      4  C   UNL     1       2.009  -1.386  -3.523  0.00  0.00    +0.039 A 
ATOM      5  C   UNL     1       2.724  -1.154  -2.350  0.00  0.00    -0.040 A 
ATOM      6  C   UNL     1       2.074  -0.703  -1.220  0.00  0.00    +0.007 A 
ATOM      7  N   UNL     1       2.433  -1.829  -4.776  0.00  0.00    -0.285 N 
ATOM      8  C   UNL     1       1.417  -1.924  -5.652  0.00  0.00    +0.225 C 
ATOM      9  O   UNL     1       1.494  -2.281  -6.808  0.00  0.00    -0.275 OA
ATOM     10  C   UNL     1       0.160  -1.500  -4.923  0.00  0.00    +0.107 C 
ATOM     11  H   UNL     1       3.354  -2.044  -4.991  0.00  0.00    +0.155 HD
ENDROOT
BRANCH   1  13
ATOM     12  C   UNL     1      -0.019   1.526   0.010  0.00  0.00    +0.009 C 
ATOM     13  C   UNL     1       0.002  -0.004   0.002  0.00  0.00    +0.032 C 
ENDBRANCH   1  13
BRANCH   5  14
ATOM     14  C   UNL     1       4.213  -1.389  -2.317  0.00  0.00    -0.046 C 
ATOM     15  C   UNL     1       4.937  -0.144  -2.832  0.00  0.00    -0.009 C 
BRANCH  14  16
ATOM     16  N   UNL     1       4.634  -1.666  -0.937  0.00  0.00    +0.383 N 
ATOM     17  H   UNL     1       4.157  -2.487  -0.598  0.00  0.00    -0.089 HD
ATOM     18  H   UNL     1       5.631  -1.823  -0.915  0.00  0.00    -0.089 HD
ATOM     19  H   UNL     1       4.405  -0.877  -0.351  0.00  0.00    -0.089 HD
ENDBRANCH  14  16
ENDBRANCH   5  14
BRANCH  10  20
ATOM     20  C   UNL     1      -0.848  -2.651  -4.881  0.00  0.00    +0.014 C 
ATOM     21  C   UNL     1      -1.409  -2.889  -6.284  0.00  0.00    +0.005 C 
ENDBRANCH  10  20
TORSDOF 4
