REMARK  Name = ZINC12497186
REMARK  10 active torsions:
REMARK  status: ('A' for Active; 'I' for Inactive)
REMARK    1  A    between atoms: C_1  and  O_2
REMARK    2  A    between atoms: O_2  and  C_3
REMARK    3  A    between atoms: C_8  and  C_9
REMARK    4  A    between atoms: N_17  and  C_20
REMARK    5  A    between atoms: C_26  and  C_27
REMARK    6  A    between atoms: C_26  and  C_35
REMARK    7  A    between atoms: C_27  and  C_28
REMARK    8  A    between atoms: C_31  and  O_34
REMARK    9  A    between atoms: C_35  and  O_37
REMARK   10  A    between atoms: O_37  and  C_38
REMARK                            x       y       z     vdW  Elec       q    Type
REMARK                         _______ _______ _______ _____ _____    ______ ____
ROOT
ATOM      1  C   UNL     1       2.374  -0.933   2.296  0.00  0.00    -0.023 C 
ATOM      2  C   UNL     1       1.967  -1.840   1.209  0.00  0.00    +0.077 C 
ATOM      3  C   UNL     1       0.403  -1.910   1.410  0.00  0.00    +0.086 C 
ATOM      4  C   UNL     1       0.093  -2.650   0.147  0.00  0.00    +0.229 C 
ATOM      5  O   UNL     1      -0.895  -2.532  -0.546  0.00  0.00    -0.275 OA
ATOM      6  N   UNL     1       1.152  -3.488  -0.066  0.00  0.00    -0.210 N 
ATOM      7  C   UNL     1       2.254  -3.154   0.690  0.00  0.00    +0.229 C 
ATOM      8  O   UNL     1       3.249  -3.821   0.880  0.00  0.00    -0.275 OA
ATOM      9  C   UNL     1       0.129  -0.422   1.545  0.00  0.00    +0.048 C 
ATOM     10  N   UNL     1       1.333   0.139   2.215  0.00  0.00    +0.396 N 
ATOM     11  H   UNL     1       1.694   0.931   1.671  0.00  0.00    -0.083 HD
ATOM     12  H   UNL     1       1.088   0.456   3.160  0.00  0.00    -0.083 HD
ENDROOT
BRANCH   1  18
ATOM     13  C   UNL     1       4.387   0.376   3.018  0.00  0.00    +0.122 A 
ATOM     14  C   UNL     1       5.656   0.885   2.782  0.00  0.00    +0.046 A 
ATOM     15  C   UNL     1       6.277   0.653   1.570  0.00  0.00    +0.004 A 
ATOM     16  C   UNL     1       5.638  -0.091   0.596  0.00  0.00    +0.000 A 
ATOM     17  C   UNL     1       4.376  -0.604   0.831  0.00  0.00    +0.005 A 
ATOM     18  C   UNL     1       3.750  -0.374   2.041  0.00  0.00    -0.019 A 
BRANCH  13  20
ATOM     19  C   UNL     1       4.486   1.389   5.167  0.00  0.00    +0.277 C 
ATOM     20  O   UNL     1       3.771   0.608   4.207  0.00  0.00    -0.495 OA
ENDBRANCH  13  20
ENDBRANCH   1  18
BRANCH   6  21
ATOM     21  C   UNL     1       1.121  -4.569  -0.959  0.00  0.00    +0.044 A 
ATOM     22  C   UNL     1      -0.033  -4.840  -1.682  0.00  0.00    +0.024 A 
ATOM     23  C   UNL     1      -0.059  -5.902  -2.564  0.00  0.00    +0.002 A 
ATOM     24  C   UNL     1       1.058  -6.702  -2.720  0.00  0.00    +0.000 A 
ATOM     25  C   UNL     1       2.207  -6.437  -1.997  0.00  0.00    +0.002 A 
ATOM     26  C   UNL     1       2.241  -5.373  -1.117  0.00  0.00    +0.024 A 
ENDBRANCH   6  21
BRANCH   9  27
ATOM     27  C   UNL     1      -1.098  -0.192   2.390  0.00  0.00    +0.297 C 
ATOM     28  O   UNL     1      -1.954  -1.042   2.454  0.00  0.00    -0.252 OA
BRANCH  27  29
ATOM     29  O   UNL     1      -1.239   0.956   3.071  0.00  0.00    -0.469 OA
ATOM     30  C   UNL     1      -2.446   1.109   3.863  0.00  0.00    +0.280 C 
ENDBRANCH  27  29
ENDBRANCH   9  27
BRANCH   9  31
ATOM     31  C   UNL     1      -0.055   0.210   0.164  0.00  0.00    +0.034 C 
BRANCH  31  32
ATOM     32  C   UNL     1      -0.330   1.684   0.318  0.00  0.00    -0.048 A 
ATOM     33  C   UNL     1      -1.631   2.133   0.449  0.00  0.00    +0.007 A 
ATOM     34  C   UNL     1      -1.885   3.483   0.597  0.00  0.00    +0.045 A 
ATOM     35  C   UNL     1      -0.834   4.389   0.601  0.00  0.00    +0.117 A 
ATOM     36  C   UNL     1       0.470   3.936   0.464  0.00  0.00    +0.045 A 
ATOM     37  C   UNL     1       0.719   2.585   0.323  0.00  0.00    +0.007 A 
BRANCH  35  38
ATOM     38  O   UNL     1      -1.082   5.718   0.741  0.00  0.00    -0.507 OA
ATOM     39  H   UNL     1      -1.219   6.183  -0.096  0.00  0.00    +0.292 HD
ENDBRANCH  35  38
ENDBRANCH  31  32
ENDBRANCH   9  31
TORSDOF 8
