REMARK  Name = ZINC40620949
REMARK  8 active torsions:
REMARK  status: ('A' for Active; 'I' for Inactive)
REMARK    1  A    between atoms: C_1  and  C_2
REMARK    2  A    between atoms: C_2  and  C_3
REMARK    3  A    between atoms: C_2  and  N_4
REMARK    4  A    between atoms: C_7  and  C_10
REMARK    5  A    between atoms: C_10  and  N_11
REMARK    6  A    between atoms: N_11  and  S_12
REMARK    7  A    between atoms: S_12  and  C_15
REMARK    8  A    between atoms: C_18  and  N_22
REMARK                            x       y       z     vdW  Elec       q    Type
REMARK                         _______ _______ _______ _____ _____    ______ ____
ROOT
ATOM      1  S   UNL     1      -4.349  -5.301  -2.740  0.00  0.00    +0.060 S 
ATOM      2  O   UNL     1      -5.741  -5.355  -3.018  0.00  0.00    -0.153 OA
ATOM      3  O   UNL     1      -3.373  -5.151  -3.761  0.00  0.00    -0.153 OA
ENDROOT
BRANCH   1   4
ATOM      4  C   UNL     1      -3.950  -6.785  -1.876  0.00  0.00    +0.124 A 
ATOM      5  C   UNL     1      -4.933  -7.727  -1.634  0.00  0.00    +0.032 A 
ATOM      6  C   UNL     1      -4.625  -8.891  -0.958  0.00  0.00    +0.025 A 
ATOM      7  C   UNL     1      -3.325  -9.115  -0.521  0.00  0.00    +0.026 A 
ATOM      8  C   UNL     1      -2.340  -8.168  -0.765  0.00  0.00    +0.044 A 
ATOM      9  C   UNL     1      -2.654  -7.007  -1.447  0.00  0.00    +0.069 A 
ATOM     10 CL   UNL     1      -1.422  -5.824  -1.760  0.00  0.00    -0.081 Cl
BRANCH   7  11
ATOM     11  N   UNL     1      -3.010 -10.291   0.164  0.00  0.00    -0.358 N 
ATOM     12  H   UNL     1      -3.700 -10.952   0.335  0.00  0.00    +0.142 HD
ATOM     13  H   UNL     1      -2.103 -10.447   0.469  0.00  0.00    +0.142 HD
ENDBRANCH   7  11
ENDBRANCH   1   4
BRANCH   1  14
ATOM     14  N   UNL     1      -4.125  -4.045  -1.684  0.00  0.00    -0.190 NA
ATOM     15  H   UNL     1      -4.882  -3.510  -1.400  0.00  0.00    +0.148 HD
BRANCH  14  16
ATOM     16  C   UNL     1      -2.784  -3.742  -1.179  0.00  0.00    +0.107 C 
BRANCH  16  20
ATOM     17  N   UNL     1      -1.376  -0.512   0.012  0.00  0.00    +0.381 N 
ATOM     18  C   UNL     1      -2.080  -0.104  -1.222  0.00  0.00    -0.078 C 
ATOM     19  C   UNL     1      -3.020  -1.260  -1.611  0.00  0.00    -0.016 C 
ATOM     20  C   UNL     1      -2.780  -2.351  -0.542  0.00  0.00    -0.014 C 
ATOM     21  C   UNL     1      -1.374  -1.998   0.004  0.00  0.00    -0.074 C 
ATOM     22  H   UNL     1      -1.868  -0.170   0.824  0.00  0.00    -0.081 HD
BRANCH  17  24
ATOM     23  C   UNL     1      -0.019   1.526   0.010  0.00  0.00    -0.014 C 
ATOM     24  C   UNL     1       0.002  -0.004   0.002  0.00  0.00    -0.075 C 
ATOM     25  C   UNL     1       0.742  -0.511   1.242  0.00  0.00    -0.014 C 
ENDBRANCH  17  24
ENDBRANCH  16  20
ENDBRANCH  14  16
ENDBRANCH   1  14
TORSDOF 6
