REMARK  Name = ZINC00269211
REMARK  5 active torsions:
REMARK  status: ('A' for Active; 'I' for Inactive)
REMARK    1  A    between atoms: C_1  and  C_2
REMARK    2  A    between atoms: C_5  and  N_9
REMARK    3  A    between atoms: C_6  and  C_8
REMARK    4  A    between atoms: C_14  and  C_24
REMARK    5  A    between atoms: C_16  and  N_18
REMARK                            x       y       z     vdW  Elec       q    Type
REMARK                         _______ _______ _______ _____ _____    ______ ____
ROOT
ATOM      1  N   UNL     1      -2.352  -2.107  -0.217  0.00  0.00    -0.327 N 
ATOM      2  C   UNL     1      -1.070  -1.911  -0.678  0.00  0.00    +0.180 C 
ATOM      3  N   UNL     1      -0.771  -0.797  -1.432  0.00  0.00    -0.297 N 
ATOM      4  C   UNL     1       0.542  -0.537  -1.797  0.00  0.00    +0.232 A 
ATOM      5  N   UNL     1       1.496  -1.372  -1.412  0.00  0.00    -0.217 NA
ATOM      6  C   UNL     1       2.761  -1.158  -1.741  0.00  0.00    +0.045 A 
ATOM      7  C   UNL     1       3.085  -0.048  -2.497  0.00  0.00    +0.066 A 
ATOM      8  C   UNL     1       2.058   0.814  -2.888  0.00  0.00    +0.127 A 
ATOM      9  N   UNL     1       0.810   0.538  -2.522  0.00  0.00    -0.197 NA
ATOM     10  C   UNL     1       3.836  -2.115  -1.295  0.00  0.00    +0.066 C 
ATOM     11  H   UNL     1      -2.584  -2.935   0.232  0.00  0.00    +0.169 HD
ATOM     12  H   UNL     1      -0.264  -3.630   0.058  0.00  0.00    +0.159 HD
ATOM     13  H   UNL     1      -1.479  -0.194  -1.708  0.00  0.00    +0.172 HD
ATOM     14  N   UNL     1      -0.078  -2.752  -0.425  0.00  0.00    -0.371 N 
ATOM     15  H   UNL     1       0.879  -2.519  -0.717  0.00  0.00    +0.159 HD
ENDROOT
BRANCH   1  20
ATOM     16  C   UNL     1      -6.277   1.922  -0.951  0.00  0.00    +0.044 C 
ATOM     17  C   UNL     1      -5.234   0.851  -0.756  0.00  0.00    -0.050 A 
ATOM     18  C   UNL     1      -3.903   1.201  -0.621  0.00  0.00    +0.005 A 
ATOM     19  C   UNL     1      -2.945   0.223  -0.442  0.00  0.00    +0.026 A 
ATOM     20  C   UNL     1      -3.320  -1.114  -0.398  0.00  0.00    +0.045 A 
ATOM     21  C   UNL     1      -4.656  -1.462  -0.540  0.00  0.00    -0.027 A 
ATOM     22  C   UNL     1      -5.610  -0.478  -0.713  0.00  0.00    +0.008 A 
ATOM     23  C   UNL     1      -5.067  -2.912  -0.500  0.00  0.00    +0.046 C 
ENDBRANCH   1  20
BRANCH   8  24
ATOM     24  N   UNL     1       2.335   1.940  -3.646  0.00  0.00    -0.315 N 
ATOM     25  C   UNL     1       3.334   2.788  -2.983  0.00  0.00    +0.106 C 
ATOM     26  C   UNL     1       3.723   3.941  -3.911  0.00  0.00    +0.019 C 
ATOM     27  C   UNL     1       2.474   4.760  -4.249  0.00  0.00    +0.003 C 
ATOM     28  C   UNL     1       1.431   3.844  -4.894  0.00  0.00    +0.019 C 
ATOM     29  C   UNL     1       1.109   2.693  -3.938  0.00  0.00    +0.106 C 
ENDBRANCH   8  24
TORSDOF 2
