REMARK  Name = ZINC12779426
REMARK  17 active torsions:
REMARK  status: ('A' for Active; 'I' for Inactive)
REMARK    1  A    between atoms: C_1  and  C_2
REMARK    2  A    between atoms: C_4  and  C_35
REMARK    3  A    between atoms: C_5  and  N_9
REMARK    4  A    between atoms: C_6  and  C_8
REMARK    5  A    between atoms: C_10  and  C_12
REMARK    6  A    between atoms: C_12  and  C_14
REMARK    7  A    between atoms: C_12  and  S_15
REMARK    8  A    between atoms: S_15  and  C_16
REMARK    9  A    between atoms: N_26  and  C_27
REMARK   10  A    between atoms: C_27  and  C_28
REMARK   11  A    between atoms: C_28  and  N_73
REMARK   12  A    between atoms: C_29  and  C_30
REMARK   13  A    between atoms: C_29  and  C_31
REMARK   14  A    between atoms: C_29  and  N_73
REMARK   15  A    between atoms: C_32  and  C_33
REMARK   16  A    between atoms: C_32  and  C_34
REMARK   17  A    between atoms: C_32  and  N_73
REMARK                            x       y       z     vdW  Elec       q    Type
REMARK                         _______ _______ _______ _____ _____    ______ ____
ROOT
ATOM      1  C   UNL     1      -0.346   4.064   7.204  0.00  0.00    +0.173 A 
ATOM      2  N   UNL     1       0.813   3.776   7.743  0.00  0.00    -0.223 NA
ATOM      3  C   UNL     1       1.030   2.601   8.366  0.00  0.00    +0.079 A 
ATOM      4  C   UNL     1       2.266   2.293   8.941  0.00  0.00    +0.028 A 
ATOM      5  C   UNL     1       2.442   1.089   9.563  0.00  0.00    +0.002 A 
ATOM      6  C   UNL     1       1.409   0.164   9.634  0.00  0.00    +0.001 A 
ATOM      7  C   UNL     1       0.188   0.435   9.081  0.00  0.00    +0.015 A 
ATOM      8  C   UNL     1      -0.019   1.656   8.440  0.00  0.00    +0.065 A 
ATOM      9  C   UNL     1      -1.311   2.004   7.833  0.00  0.00    +0.262 A 
ATOM     10  O   UNL     1      -2.253   1.234   7.868  0.00  0.00    -0.267 OA
ATOM     11  N   UNL     1      -1.412   3.211   7.229  0.00  0.00    -0.289 N 
ENDROOT
BRANCH   1  12
ATOM     12  S   UNL     1      -0.538   5.625   6.409  0.00  0.00    -0.075 S 
BRANCH  12  13
ATOM     13  C   UNL     1       1.115   6.314   6.666  0.00  0.00    +0.137 C 
ATOM     14  C   UNL     1       2.142   5.474   5.903  0.00  0.00    +0.029 C 
BRANCH  13  16
ATOM     15  N   UNL     1       2.112   8.577   6.590  0.00  0.00    -0.284 N 
ATOM     16  C   UNL     1       1.152   7.733   6.160  0.00  0.00    +0.230 C 
ATOM     17  O   UNL     1       0.319   8.116   5.367  0.00  0.00    -0.274 OA
ATOM     18  H   UNL     1       2.800   8.261   7.196  0.00  0.00    +0.155 HD
BRANCH  15  23
ATOM     19  C   UNL     1       2.123  13.978   4.855  0.00  0.00    +0.044 C 
ATOM     20  C   UNL     1       2.120  12.544   5.316  0.00  0.00    -0.050 A 
ATOM     21  C   UNL     1       2.169  11.521   4.387  0.00  0.00    +0.008 A 
ATOM     22  C   UNL     1       2.166  10.204   4.806  0.00  0.00    -0.029 A 
ATOM     23  C   UNL     1       2.115   9.909   6.162  0.00  0.00    +0.039 A 
ATOM     24  C   UNL     1       2.060  10.939   7.092  0.00  0.00    -0.029 A 
ATOM     25  C   UNL     1       2.069  12.253   6.667  0.00  0.00    +0.008 A 
ATOM     26  C   UNL     1       1.997  10.623   8.564  0.00  0.00    +0.045 C 
ATOM     27  C   UNL     1       2.219   9.090   3.793  0.00  0.00    +0.045 C 
ENDBRANCH  15  23
ENDBRANCH  13  16
ENDBRANCH  12  13
ENDBRANCH   1  12
BRANCH  11  28
ATOM     28  C   UNL     1      -2.676   3.607   6.603  0.00  0.00    +0.109 C 
BRANCH  28  29
ATOM     29  C   UNL     1      -2.681   3.164   5.138  0.00  0.00    -0.056 C 
BRANCH  29  30
ATOM     30  N   UNL     1      -3.952   3.590   4.515  0.00  0.00    +0.384 N 
ATOM     31  H   UNL     1      -4.093   4.590   4.696  0.00  0.00    -0.081 HD
BRANCH  30  32
ATOM     32  C   UNL     1      -3.898   3.368   3.055  0.00  0.00    -0.074 C 
ATOM     33  C   UNL     1      -3.252   4.591   2.400  0.00  0.00    -0.014 C 
ATOM     34  C   UNL     1      -3.071   2.122   2.734  0.00  0.00    -0.014 C 
ENDBRANCH  30  32
BRANCH  30  35
ATOM     35  C   UNL     1      -5.079   2.832   5.099  0.00  0.00    -0.074 C 
ATOM     36  C   UNL     1      -6.391   3.472   4.643  0.00  0.00    -0.014 C 
ATOM     37  C   UNL     1      -5.037   1.372   4.643  0.00  0.00    -0.014 C 
ENDBRANCH  30  35
ENDBRANCH  29  30
ENDBRANCH  28  29
ENDBRANCH  11  28
TORSDOF 9
