REMARK  Name = ZINC38546517
REMARK  10 active torsions:
REMARK  status: ('A' for Active; 'I' for Inactive)
REMARK    1  A    between atoms: C_1  and  N_2
REMARK    2  A    between atoms: N_5  and  C_8
REMARK    3  A    between atoms: C_8  and  C_10
REMARK    4  A    between atoms: C_8  and  C_20
REMARK    5  A    between atoms: C_13  and  O_18
REMARK    6  A    between atoms: C_14  and  O_16
REMARK    7  A    between atoms: O_16  and  C_17
REMARK    8  A    between atoms: O_18  and  C_19
REMARK    9  A    between atoms: C_24  and  N_25
REMARK   10  A    between atoms: C_26  and  C_28
REMARK                            x       y       z     vdW  Elec       q    Type
REMARK                         _______ _______ _______ _____ _____    ______ ____
ROOT
ATOM      1  C   UNL     1       1.435  -4.035  -0.077  0.00  0.00    +0.120 C 
ENDROOT
BRANCH   1   2
ATOM      2  C   UNL     1       2.133  -4.464   1.188  0.00  0.00    +0.006 A 
ATOM      3  C   UNL     1       1.656  -5.556   1.914  0.00  0.00    -0.030 A 
ATOM      4  C   UNL     1       2.338  -5.881   3.045  0.00  0.00    -0.005 A 
ATOM      5  S   UNL     1       3.644  -4.684   3.113  0.00  0.00    -0.078 S 
ATOM      6  C   UNL     1       3.232  -3.791   1.622  0.00  0.00    +0.078 A 
ATOM      7  C   UNL     1       2.043  -6.993   3.999  0.00  0.00    +0.043 C 
ATOM      8  C   UNL     1       0.624  -7.508   3.717  0.00  0.00    +0.005 C 
ATOM      9  C   UNL     1       0.468  -7.718   2.208  0.00  0.00    +0.005 C 
ATOM     10  C   UNL     1       0.434  -6.368   1.492  0.00  0.00    +0.036 C 
BRANCH   6  11
ATOM     11  N   UNL     1       3.870  -2.689   1.051  0.00  0.00    -0.273 N 
ATOM     12  C   UNL     1       5.029  -2.237   1.571  0.00  0.00    +0.284 C 
ATOM     13  O   UNL     1       5.519  -2.791   2.538  0.00  0.00    -0.266 OA
ATOM     14  H   UNL     1       3.480  -2.247   0.281  0.00  0.00    +0.156 HD
BRANCH  12  15
ATOM     15  C   UNL     1       5.700  -1.079   0.972  0.00  0.00    +0.189 A 
ATOM     16  C   UNL     1       6.875  -0.526   1.394  0.00  0.00    +0.054 A 
ATOM     17  C   UNL     1       7.142   0.554   0.537  0.00  0.00    +0.042 A 
ATOM     18  C   UNL     1       6.132   0.611  -0.358  0.00  0.00    +0.196 A 
ATOM     19  O   UNL     1       5.267  -0.378  -0.096  0.00  0.00    -0.458 OA
ENDBRANCH  12  15
ENDBRANCH   6  11
ENDBRANCH   1   2
BRANCH   1  24
ATOM     20  C   UNL     1      -0.106   1.383  -0.209  0.00  0.00    -0.096 C 
ATOM     21  N   UNL     1      -0.067  -0.085  -0.174  0.00  0.00    +0.379 N 
ATOM     22  C   UNL     1       0.640  -0.585  -1.361  0.00  0.00    -0.064 C 
ATOM     23  C   UNL     1       0.665  -2.114  -1.334  0.00  0.00    +0.067 C 
ATOM     24  N   UNL     1       1.341  -2.570  -0.112  0.00  0.00    -0.295 NA
ATOM     25  C   UNL     1       0.658  -2.057   1.085  0.00  0.00    +0.067 C 
ATOM     26  C   UNL     1       0.634  -0.528   1.038  0.00  0.00    -0.064 C 
ATOM     27  H   UNL     1      -1.009  -0.447  -0.168  0.00  0.00    -0.082 HD
ENDBRANCH   1  24
BRANCH   1  28
ATOM     28  C   UNL     1       2.219  -4.517  -1.270  0.00  0.00    -0.022 A 
ATOM     29  C   UNL     1       3.276  -3.767  -1.750  0.00  0.00    +0.009 A 
ATOM     30  C   UNL     1       3.998  -4.204  -2.845  0.00  0.00    +0.050 A 
ATOM     31  C   UNL     1       3.662  -5.398  -3.464  0.00  0.00    +0.162 A 
ATOM     32  C   UNL     1       2.598  -6.153  -2.981  0.00  0.00    +0.162 A 
ATOM     33  C   UNL     1       1.882  -5.711  -1.880  0.00  0.00    +0.055 A 
BRANCH  32  34
ATOM     34  O   UNL     1       2.265  -7.325  -3.585  0.00  0.00    -0.491 OA
ATOM     35  C   UNL     1       1.161  -8.047  -3.036  0.00  0.00    +0.277 C 
ENDBRANCH  32  34
BRANCH  31  36
ATOM     36  O   UNL     1       4.371  -5.829  -4.541  0.00  0.00    -0.491 OA
ATOM     37  C   UNL     1       5.450  -5.002  -4.982  0.00  0.00    +0.277 C 
ENDBRANCH  31  36
ENDBRANCH   1  28
TORSDOF 7
