REMARK  Name = ZINC39639423
REMARK  11 active torsions:
REMARK  status: ('A' for Active; 'I' for Inactive)
REMARK    1  A    between atoms: C_1  and  C_2
REMARK    2  A    between atoms: C_5  and  C_8
REMARK    3  A    between atoms: C_8  and  C_10
REMARK    4  A    between atoms: C_8  and  N_11
REMARK    5  A    between atoms: C_12  and  C_14
REMARK    6  A    between atoms: C_25  and  C_27
REMARK    7  A    between atoms: C_27  and  C_29
REMARK    8  A    between atoms: C_27  and  O_32
REMARK    9  A    between atoms: C_29  and  C_30
REMARK   10  A    between atoms: C_29  and  C_31
REMARK   11  A    between atoms: O_32  and  C_33
REMARK                            x       y       z     vdW  Elec       q    Type
REMARK                         _______ _______ _______ _____ _____    ______ ____
ROOT
ATOM      1  C   UNL     1       2.456  -7.207   2.492  0.00  0.00    +0.100 C 
ATOM      2  C   UNL     1       3.624  -6.203   2.370  0.00  0.00    +0.121 C 
ATOM      3  N   UNL     1       4.842  -7.015   2.600  0.00  0.00    -0.297 N 
ATOM      4  C   UNL     1       4.570  -8.294   1.901  0.00  0.00    +0.115 C 
ATOM      5  C   UNL     1       3.081  -8.578   2.182  0.00  0.00    -0.004 C 
ATOM      6  C   UNL     1       2.421  -9.194   0.952  0.00  0.00    -0.010 C 
ATOM      7  C   UNL     1       3.017 -10.582   0.699  0.00  0.00    -0.082 C 
ATOM      8  N   UNL     1       2.798 -11.433   1.875  0.00  0.00    +0.379 N 
ATOM      9  C   UNL     1       3.514 -10.882   3.032  0.00  0.00    -0.082 C 
ATOM     10  C   UNL     1       2.939  -9.507   3.384  0.00  0.00    -0.010 C 
ATOM     11  C   UNL     1       5.948  -6.670   3.289  0.00  0.00    +0.257 C 
ATOM     12  O   UNL     1       6.870  -7.451   3.388  0.00  0.00    -0.272 OA
ATOM     13  H   UNL     1       1.811 -11.473   2.080  0.00  0.00    -0.086 HD
ATOM     14  H   UNL     1       3.138 -12.363   1.683  0.00  0.00    -0.086 HD
ENDROOT
BRANCH   1  16
ATOM     15  N   UNL     1       0.086  -7.112   1.792  0.00  0.00    -0.308 N 
ATOM     16  C   UNL     1       1.379  -6.883   1.489  0.00  0.00    +0.219 C 
ATOM     17  O   UNL     1       1.675  -6.417   0.410  0.00  0.00    -0.275 OA
ATOM     18  H   UNL     1      -0.151  -7.485   2.656  0.00  0.00    +0.149 HD
BRANCH  15  19
ATOM     19  C   UNL     1      -0.962  -6.797   0.818  0.00  0.00    +0.100 C 
ATOM     20  C   UNL     1      -1.132  -7.973  -0.146  0.00  0.00    +0.033 C 
BRANCH  19  25
ATOM     21  C   UNL     1      -5.945  -5.841   3.584  0.00  0.00    +0.044 C 
ATOM     22  C   UNL     1      -4.645  -6.090   2.863  0.00  0.00    -0.050 A 
ATOM     23  C   UNL     1      -4.291  -5.301   1.785  0.00  0.00    +0.004 A 
ATOM     24  C   UNL     1      -3.099  -5.529   1.123  0.00  0.00    +0.006 A 
ATOM     25  C   UNL     1      -2.261  -6.547   1.540  0.00  0.00    -0.027 A 
ATOM     26  C   UNL     1      -2.615  -7.336   2.618  0.00  0.00    +0.006 A 
ATOM     27  C   UNL     1      -3.805  -7.104   3.283  0.00  0.00    +0.004 A 
ENDBRANCH  19  25
ENDBRANCH  15  19
ENDBRANCH   1  16
BRANCH  11  28
ATOM     28  C   UNL     1       6.038  -5.312   3.936  0.00  0.00    +0.261 C 
BRANCH  28  29
ATOM     29  C   UNL     1       6.042  -4.230   2.854  0.00  0.00    +0.033 C 
ATOM     30  C   UNL     1       6.134  -2.851   3.511  0.00  0.00    +0.011 C 
ATOM     31  C   UNL     1       7.244  -4.436   1.931  0.00  0.00    +0.011 C 
ENDBRANCH  28  29
BRANCH  28  32
ATOM     32  O   UNL     1       7.244  -5.227   4.698  0.00  0.00    -0.479 OA
BRANCH  32  33
ATOM     33  C   UNL     1       7.187  -4.538   5.868  0.00  0.00    +0.122 A 
ATOM     34  C   UNL     1       6.026  -3.868   6.224  0.00  0.00    +0.045 A 
ATOM     35  C   UNL     1       5.971  -3.168   7.414  0.00  0.00    +0.004 A 
ATOM     36  C   UNL     1       7.071  -3.136   8.250  0.00  0.00    +0.000 A 
ATOM     37  C   UNL     1       8.230  -3.802   7.897  0.00  0.00    +0.004 A 
ATOM     38  C   UNL     1       8.289  -4.508   6.711  0.00  0.00    +0.045 A 
ENDBRANCH  32  33
ENDBRANCH  28  32
ENDBRANCH  11  28
TORSDOF 7
