REMARK  Name = ZINC20504123
REMARK  10 active torsions:
REMARK  status: ('A' for Active; 'I' for Inactive)
REMARK    1  A    between atoms: C_1  and  N_2
REMARK    2  A    between atoms: N_2  and  C_3
REMARK    3  A    between atoms: N_2  and  C_4
REMARK    4  A    between atoms: C_4  and  C_5
REMARK    5  A    between atoms: C_5  and  N_6
REMARK    6  A    between atoms: C_7  and  C_9
REMARK    7  A    between atoms: C_12  and  O_36
REMARK    8  A    between atoms: C_14  and  O_35
REMARK    9  A    between atoms: N_23  and  C_24
REMARK   10  A    between atoms: C_27  and  N_30
REMARK                            x       y       z     vdW  Elec       q    Type
REMARK                         _______ _______ _______ _____ _____    ______ ____
ROOT
ATOM      1  C   UNL     1      -5.679  -0.904  -2.314  0.00  0.00    +0.093 C 
ATOM      2  C   UNL     1      -6.407  -0.332  -1.105  0.00  0.00    +0.048 C 
ATOM      3  C   UNL     1      -7.844  -0.866  -1.098  0.00  0.00    +0.146 C 
ATOM      4  C   UNL     1      -8.568  -0.314  -2.321  0.00  0.00    +0.164 C 
ATOM      5  C   UNL     1      -7.867  -0.647  -3.606  0.00  0.00    +0.117 C 
ATOM      6  C   UNL     1      -6.353  -0.526  -3.620  0.00  0.00    +0.089 C 
ATOM      7  S   UNL     1      -5.948  -1.830  -4.865  0.00  0.00    -0.085 S 
ATOM      8  C   UNL     1      -7.495  -2.723  -4.796  0.00  0.00    +0.155 C 
ATOM      9  N   UNL     1      -8.390  -1.804  -4.294  0.00  0.00    -0.317 N 
ATOM     10  N   UNL     1      -7.726  -3.968  -5.145  0.00  0.00    -0.226 NA
ATOM     11  H   UNL     1      -9.345  -1.930  -4.401  0.00  0.00    +0.148 HD
ENDROOT
BRANCH  10  12
ATOM     12  C   UNL     1      -8.986  -4.491  -5.024  0.00  0.00    +0.067 A 
ATOM     13  C   UNL     1      -9.730  -4.262  -3.865  0.00  0.00    +0.030 A 
ATOM     14  C   UNL     1     -10.999  -4.790  -3.747  0.00  0.00    +0.030 A 
ATOM     15  C   UNL     1     -11.537  -5.547  -4.779  0.00  0.00    +0.065 A 
ATOM     16  C   UNL     1     -10.800  -5.777  -5.934  0.00  0.00    +0.030 A 
ATOM     17  C   UNL     1      -9.533  -5.248  -6.062  0.00  0.00    +0.030 A 
BRANCH  15  18
ATOM     18  N   UNL     1     -12.828  -6.082  -4.655  0.00  0.00    -0.240 N 
ATOM     19  C   UNL     1     -13.467  -6.838  -5.575  0.00  0.00    +0.114 A 
ATOM     20  C   UNL     1     -14.685  -7.153  -5.076  0.00  0.00    +0.041 A 
ATOM     21  C   UNL     1     -14.794  -6.570  -3.808  0.00  0.00    +0.135 A 
ATOM     22  N   UNL     1     -13.679  -5.933  -3.553  0.00  0.00    -0.175 NA
ENDBRANCH  15  18
ENDBRANCH  10  12
BRANCH   1  24
ATOM     23  N   UNL     1      -3.452  -0.617  -1.276  0.00  0.00    -0.317 N 
ATOM     24  C   UNL     1      -4.265  -0.382  -2.325  0.00  0.00    +0.217 C 
ATOM     25  O   UNL     1      -3.859   0.249  -3.277  0.00  0.00    -0.275 OA
ATOM     26  H   UNL     1      -3.777  -1.122  -0.514  0.00  0.00    +0.149 HD
BRANCH  23  27
ATOM     27  C   UNL     1      -2.078  -0.110  -1.286  0.00  0.00    +0.085 C 
BRANCH  27  28
ATOM     28  C   UNL     1      -1.376  -0.512   0.012  0.00  0.00    -0.061 C 
BRANCH  28  30
ATOM     29  C   UNL     1      -0.018   1.465   0.010  0.00  0.00    -0.097 C 
ATOM     30  N   UNL     1       0.002  -0.004   0.002  0.00  0.00    +0.377 N 
ATOM     31  C   UNL     1       0.713  -0.491   1.192  0.00  0.00    -0.097 C 
ATOM     32  H   UNL     1       0.474  -0.330  -0.828  0.00  0.00    -0.083 HD
ENDBRANCH  28  30
ENDBRANCH  27  28
ENDBRANCH  23  27
ENDBRANCH   1  24
BRANCH   4  33
ATOM     33  O   UNL     1      -9.888  -0.861  -2.362  0.00  0.00    -0.387 OA
ATOM     34  H   UNL     1     -10.425  -0.650  -1.586  0.00  0.00    +0.210 HD
ENDBRANCH   4  33
BRANCH   3  35
ATOM     35  O   UNL     1      -8.511  -0.437   0.091  0.00  0.00    -0.389 OA
ATOM     36  H   UNL     1      -8.091  -0.740   0.908  0.00  0.00    +0.210 HD
ENDBRANCH   3  35
TORSDOF 8
