REMARK  Name = ZINC44021025
REMARK  10 active torsions:
REMARK  status: ('A' for Active; 'I' for Inactive)
REMARK    1  A    between atoms: C_1  and  C_2
REMARK    2  A    between atoms: C_4  and  O_41
REMARK    3  A    between atoms: C_6  and  N_40
REMARK    4  A    between atoms: C_9  and  O_12
REMARK    5  A    between atoms: O_12  and  C_13
REMARK    6  A    between atoms: C_16  and  C_36
REMARK    7  A    between atoms: C_16  and  O_39
REMARK    8  A    between atoms: C_20  and  O_35
REMARK    9  A    between atoms: C_23  and  O_24
REMARK   10  A    between atoms: C_36  and  C_38
REMARK                            x       y       z     vdW  Elec       q    Type
REMARK                         _______ _______ _______ _____ _____    ______ ____
ROOT
ATOM      1  C   UNL     1      -1.365  -2.251   2.385  0.00  0.00    +0.158 C 
ATOM      2  C   UNL     1      -2.295  -3.382   2.818  0.00  0.00    +0.079 C 
ATOM      3  C   UNL     1      -3.332  -2.807   3.790  0.00  0.00    +0.130 C 
ATOM      4  C   UNL     1      -4.274  -1.897   3.004  0.00  0.00    +0.082 C 
ATOM      5  C   UNL     1      -3.491  -0.901   2.187  0.00  0.00    +0.007 A 
ATOM      6  C   UNL     1      -2.160  -1.066   1.900  0.00  0.00    +0.030 A 
ATOM      7  C   UNL     1      -1.486  -0.110   1.128  0.00  0.00    +0.134 A 
ATOM      8  C   UNL     1      -2.155   1.013   0.648  0.00  0.00    +0.078 A 
ATOM      9  C   UNL     1      -3.522   1.184   0.946  0.00  0.00    +0.078 A 
ATOM     10  C   UNL     1      -4.178   0.225   1.714  0.00  0.00    +0.132 A 
ATOM     11  C   UNL     1      -4.244   2.367   0.448  0.00  0.00    +0.198 C 
ATOM     12  O   UNL     1      -5.423   2.514   0.706  0.00  0.00    -0.286 OA
ATOM     13  C   UNL     1      -3.533   3.375  -0.366  0.00  0.00    +0.033 A 
ATOM     14  C   UNL     1      -4.207   4.497  -0.841  0.00  0.00    +0.012 A 
ATOM     15  C   UNL     1      -3.534   5.435  -1.602  0.00  0.00    +0.001 A 
ATOM     16  C   UNL     1      -2.192   5.268  -1.895  0.00  0.00    +0.001 A 
ATOM     17  C   UNL     1      -1.507   4.159  -1.431  0.00  0.00    +0.012 A 
ATOM     18  C   UNL     1      -2.170   3.205  -0.664  0.00  0.00    +0.033 A 
ATOM     19  C   UNL     1      -1.446   2.017  -0.164  0.00  0.00    +0.198 C 
ATOM     20  O   UNL     1      -0.267   1.869  -0.421  0.00  0.00    -0.286 OA
ENDROOT
BRANCH   3  21
ATOM     21  C   UNL     1      -2.636  -2.012   4.864  0.00  0.00    +0.162 C 
ATOM     22  O   UNL     1      -2.527  -0.814   4.754  0.00  0.00    -0.295 OA
ATOM     23  C   UNL     1      -2.077  -2.711   6.077  0.00  0.00    +0.089 C 
ENDBRANCH   3  21
BRANCH  10  24
ATOM     24  O   UNL     1      -5.493   0.382   2.004  0.00  0.00    -0.506 OA
ATOM     25  H   UNL     1      -5.660   0.867   2.824  0.00  0.00    +0.292 HD
ENDBRANCH  10  24
BRANCH   7  26
ATOM     26  O   UNL     1      -0.170  -0.281   0.846  0.00  0.00    -0.506 OA
ATOM     27  H   UNL     1      -0.002  -0.692  -0.013  0.00  0.00    +0.292 HD
ENDBRANCH   7  26
BRANCH   3  28
ATOM     28  O   UNL     1      -4.077  -3.872   4.385  0.00  0.00    -0.381 OA
ATOM     29  H   UNL     1      -4.752  -3.578   5.011  0.00  0.00    +0.211 HD
ENDBRANCH   3  28
BRANCH   1  30
ATOM     30  O   UNL     1      -0.519  -2.714   1.331  0.00  0.00    -0.343 OA
BRANCH  30  36
ATOM     31  C   UNL     1      -1.677  -6.715   0.826  0.00  0.00    +0.040 C 
ATOM     32  C   UNL     1      -0.911  -5.406   0.629  0.00  0.00    +0.145 C 
ATOM     33  C   UNL     1       0.084  -5.565  -0.523  0.00  0.00    +0.129 C 
ATOM     34  C   UNL     1       0.804  -4.233  -0.753  0.00  0.00    -0.039 C 
ATOM     35  C   UNL     1      -0.237  -3.144  -1.031  0.00  0.00    +0.048 C 
ATOM     36  C   UNL     1      -1.220  -3.078   0.141  0.00  0.00    +0.250 C 
ATOM     37  O   UNL     1      -1.832  -4.357   0.320  0.00  0.00    -0.346 OA
BRANCH  34  38
ATOM     38  N   UNL     1       1.708  -4.356  -1.905  0.00  0.00    +0.382 N 
ATOM     39  H   UNL     1       1.175  -4.596  -2.727  0.00  0.00    -0.090 HD
ATOM     40  H   UNL     1       2.182  -3.478  -2.055  0.00  0.00    -0.090 HD
ATOM     41  H   UNL     1       2.389  -5.078  -1.722  0.00  0.00    -0.090 HD
ENDBRANCH  34  38
BRANCH  33  42
ATOM     42  O   UNL     1       1.040  -6.575  -0.192  0.00  0.00    -0.391 OA
ATOM     43  H   UNL     1       0.652  -7.445  -0.029  0.00  0.00    +0.210 HD
ENDBRANCH  33  42
ENDBRANCH  30  36
ENDBRANCH   1  30
TORSDOF 8
