REMARK  Name = ZINC27574675
REMARK  10 active torsions:
REMARK  status: ('A' for Active; 'I' for Inactive)
REMARK    1  A    between atoms: C_1  and  N_2
REMARK    2  A    between atoms: C_3  and  C_5
REMARK    3  A    between atoms: C_8  and  C_11
REMARK    4  A    between atoms: C_11  and  N_12
REMARK    5  A    between atoms: N_12  and  C_13
REMARK    6  A    between atoms: N_12  and  C_19
REMARK    7  A    between atoms: C_13  and  C_14
REMARK    8  A    between atoms: C_19  and  C_20
REMARK    9  A    between atoms: N_22  and  C_23
REMARK   10  A    between atoms: C_24  and  C_28
REMARK                            x       y       z     vdW  Elec       q    Type
REMARK                         _______ _______ _______ _____ _____    ______ ____
ROOT
ATOM      1  N   UNL     1      -2.640   3.904   0.056  0.00  0.00    +0.393 N 
ATOM      2  H   UNL     1      -3.099   3.400   0.920  0.00  0.00    -0.080 HD
ENDROOT
BRANCH   1   3
ATOM      3  C   UNL     1      -2.818   5.351   0.231  0.00  0.00    -0.042 C 
BRANCH   3   7
ATOM      4  C   UNL     1      -6.940   6.201   0.988  0.00  0.00    +0.037 A 
ATOM      5  C   UNL     1      -6.071   5.942   2.050  0.00  0.00    +0.013 A 
ATOM      6  C   UNL     1      -4.742   5.668   1.798  0.00  0.00    +0.002 A 
ATOM      7  C   UNL     1      -4.271   5.650   0.498  0.00  0.00    -0.064 A 
ATOM      8  C   UNL     1      -5.125   5.912  -0.558  0.00  0.00    +0.002 A 
ATOM      9  C   UNL     1      -6.457   6.181  -0.321  0.00  0.00    +0.013 A 
BRANCH   4  12
ATOM     10  C   UNL     1     -10.614   7.035   0.483  0.00  0.00    +0.128 C 
ATOM     11  N   UNL     1      -9.201   6.744   0.223  0.00  0.00    -0.314 N 
ATOM     12  C   UNL     1      -8.365   6.494   1.250  0.00  0.00    +0.244 C 
ATOM     13  O   UNL     1      -8.783   6.510   2.392  0.00  0.00    -0.270 OA
ATOM     14  H   UNL     1      -8.824   6.730  -0.810  0.00  0.00    +0.149 HD
ENDBRANCH   4  12
ENDBRANCH   3   7
ENDBRANCH   1   3
BRANCH   1  15
ATOM     15  C   UNL     1      -3.322   3.432  -1.157  0.00  0.00    -0.002 C 
BRANCH  15  16
ATOM     16  C   UNL     1      -3.525   1.941  -1.071  0.00  0.00    +0.089 A 
ATOM     17  C   UNL     1      -4.550   1.321  -0.460  0.00  0.00    +0.042 A 
ATOM     18  C   UNL     1      -4.343  -0.069  -0.623  0.00  0.00    +0.041 A 
ATOM     19  C   UNL     1      -3.204  -0.213  -1.324  0.00  0.00    +0.195 A 
ATOM     20  O   UNL     1      -2.716   1.007  -1.598  0.00  0.00    -0.470 OA
ENDBRANCH  15  16
ENDBRANCH   1  15
BRANCH   1  21
ATOM     21  C   UNL     1      -1.215   3.548   0.030  0.00  0.00    +0.020 C 
BRANCH  21  22
ATOM     22  C   UNL     1      -0.663   3.583   1.432  0.00  0.00    +0.201 C 
ATOM     23  O   UNL     1      -1.363   3.956   2.350  0.00  0.00    -0.278 OA
ATOM     24  N   UNL     1       0.608   3.199   1.666  0.00  0.00    -0.281 N 
ATOM     25  H   UNL     1       1.242   2.861   0.834  0.00  0.00    +0.155 HD
BRANCH  24  26
ATOM     26  C   UNL     1       1.115   3.232   2.956  0.00  0.00    +0.084 A 
ATOM     27  C   UNL     1       2.384   2.869   3.394  0.00  0.00    +0.065 A 
ATOM     28  C   UNL     1       2.647   3.009   4.806  0.00  0.00    +0.022 A 
ATOM     29  C   UNL     1       1.643   3.466   5.576  0.00  0.00    +0.048 A 
ATOM     30  S   UNL     1       0.321   3.727   4.412  0.00  0.00    -0.081 S 
BRANCH  27  31
ATOM     31  C   UNL     1       3.405   2.373   2.466  0.00  0.00    +0.244 C 
ATOM     32  O   UNL     1       3.151   2.270   1.280  0.00  0.00    -0.270 OA
ATOM     33  N   UNL     1       4.624   2.030   2.926  0.00  0.00    -0.325 N 
ATOM     34  H   UNL     1       5.390   1.658   2.231  0.00  0.00    +0.145 HD
ATOM     35  H   UNL     1       4.853   2.123   3.998  0.00  0.00    +0.145 HD
ENDBRANCH  27  31
ENDBRANCH  24  26
ENDBRANCH  21  22
ENDBRANCH   1  21
TORSDOF 9
