REMARK  Name = ZINC24171217
REMARK  5 active torsions:
REMARK  status: ('A' for Active; 'I' for Inactive)
REMARK    1  A    between atoms: C_1  and  O_2
REMARK    2  A    between atoms: O_2  and  C_3
REMARK    3  A    between atoms: C_5  and  N_12
REMARK    4  A    between atoms: C_6  and  O_10
REMARK    5  A    between atoms: O_10  and  C_11
REMARK                            x       y       z     vdW  Elec       q    Type
REMARK                         _______ _______ _______ _____ _____    ______ ____
ROOT
ATOM      1  N   UNL     1      -5.152  -0.446  -0.157  0.00  0.00    -0.323 N 
ATOM      2  C   UNL     1      -5.906  -0.393   0.992  0.00  0.00    +0.201 C 
ATOM      3  N   UNL     1      -7.153  -0.022   0.937  0.00  0.00    -0.268 NA
ATOM      4  N   UNL     1      -5.340  -0.734   2.205  0.00  0.00    -0.299 N 
ATOM      5  C   UNL     1      -6.049  -0.554   3.367  0.00  0.00    +0.173 C 
ATOM      6  N   UNL     1      -5.562  -1.007   4.520  0.00  0.00    -0.371 N 
ATOM      7  N   UNL     1      -7.223   0.073   3.341  0.00  0.00    -0.371 N 
ATOM      8  H   UNL     1      -5.532  -0.153  -1.000  0.00  0.00    +0.169 HD
ATOM      9  H   UNL     1      -7.571   0.148   0.078  0.00  0.00    +0.190 HD
ATOM     10  H   UNL     1      -4.443  -1.100   2.236  0.00  0.00    +0.172 HD
ATOM     11  H   UNL     1      -4.706  -1.464   4.540  0.00  0.00    +0.159 HD
ATOM     12  H   UNL     1      -7.552   0.452   2.511  0.00  0.00    +0.159 HD
ATOM     13  H   UNL     1      -7.749   0.151   4.152  0.00  0.00    +0.159 HD
ATOM     14  H   UNL     1      -6.062  -0.880   5.341  0.00  0.00    +0.159 HD
ENDROOT
BRANCH   1  17
ATOM     15  C   UNL     1      -1.478  -0.559  -0.386  0.00  0.00    +0.141 A 
ATOM     16  C   UNL     1      -2.780  -0.084  -0.434  0.00  0.00    +0.076 A 
ATOM     17  C   UNL     1      -3.835  -0.924  -0.110  0.00  0.00    +0.088 A 
ATOM     18  C   UNL     1      -3.584  -2.242   0.263  0.00  0.00    +0.145 A 
ATOM     19  C   UNL     1      -2.283  -2.712   0.309  0.00  0.00    +0.071 A 
ATOM     20  C   UNL     1      -1.232  -1.875  -0.020  0.00  0.00    +0.086 A 
ATOM     21 CL   UNL     1       0.399  -2.469   0.031  0.00  0.00    -0.080 Cl
BRANCH  15  23
ATOM     22  C   UNL     1      -0.769   1.605  -1.071  0.00  0.00    +0.277 C 
ATOM     23  O   UNL     1      -0.443   0.263  -0.704  0.00  0.00    -0.494 OA
ENDBRANCH  15  23
BRANCH  18  24
ATOM     24  O   UNL     1      -4.618  -3.068   0.581  0.00  0.00    -0.493 OA
ATOM     25  C   UNL     1      -4.287  -4.407   0.954  0.00  0.00    +0.277 C 
ENDBRANCH  18  24
ENDBRANCH   1  17
TORSDOF 3
