REMARK  Name = ZINC63192152
REMARK  4 active torsions:
REMARK  status: ('A' for Active; 'I' for Inactive)
REMARK    1  A    between atoms: C_1  and  C_2
REMARK    2  A    between atoms: C_2  and  C_4
REMARK    3  A    between atoms: C_2  and  N_23
REMARK    4  A    between atoms: N_10  and  C_11
REMARK                            x       y       z     vdW  Elec       q    Type
REMARK                         _______ _______ _______ _____ _____    ______ ____
ROOT
ATOM      1  C   UNL     1       1.190  -0.528   1.158  0.00  0.00    +0.043 C 
ATOM      2  C   UNL     1       0.738  -0.035   2.535  0.00  0.00    +0.017 C 
ATOM      3  C   UNL     1       1.569  -0.728   3.618  0.00  0.00    +0.003 C 
ATOM      4  C   UNL     1       1.408  -2.245   3.481  0.00  0.00    +0.015 C 
ATOM      5  C   UNL     1       1.841  -2.674   2.077  0.00  0.00    +0.085 C 
ATOM      6  N   UNL     1       1.016  -1.984   1.077  0.00  0.00    -0.286 NA
ENDROOT
BRANCH   6   7
ATOM      7  C   UNL     1       1.309  -2.475  -0.276  0.00  0.00    +0.176 C 
ATOM      8  C   UNL     1       1.029  -3.957  -0.374  0.00  0.00    +0.001 A 
ATOM      9  C   UNL     1      -0.115  -4.706  -0.213  0.00  0.00    +0.007 A 
ATOM     10  C   UNL     1      -0.068  -6.081  -0.367  0.00  0.00    +0.002 A 
ATOM     11  C   UNL     1       1.129  -6.697  -0.682  0.00  0.00    +0.017 A 
ATOM     12  C   UNL     1       2.278  -5.949  -0.844  0.00  0.00    +0.039 A 
ATOM     13  C   UNL     1       2.237  -4.563  -0.690  0.00  0.00    +0.053 A 
ATOM     14  N   UNL     1       3.244  -3.603  -0.800  0.00  0.00    -0.283 N 
ATOM     15  C   UNL     1       2.788  -2.356  -0.575  0.00  0.00    +0.239 C 
ATOM     16  O   UNL     1       3.437  -1.332  -0.604  0.00  0.00    -0.273 OA
ATOM     17 BR   UNL     1       3.909  -6.803  -1.274  0.00  0.00    -0.048 Br
ATOM     18  H   UNL     1       4.168  -3.810  -1.014  0.00  0.00    +0.155 HD
ENDBRANCH   6   7
BRANCH   1  20
ATOM     19  C   UNL     1      -1.110  -0.294   0.211  0.00  0.00    -0.013 C 
ATOM     20  C   UNL     1       0.349   0.147   0.073  0.00  0.00    -0.061 C 
BRANCH  20  21
ATOM     21  N   UNL     1       0.435   1.606   0.223  0.00  0.00    +0.381 N 
ATOM     22  H   UNL     1      -0.013   1.882   1.084  0.00  0.00    -0.090 HD
ATOM     23  H   UNL     1       1.405   1.885   0.244  0.00  0.00    -0.090 HD
ATOM     24  H   UNL     1      -0.027   2.052  -0.555  0.00  0.00    -0.090 HD
ENDBRANCH  20  21
ENDBRANCH   1  20
TORSDOF 3
