REMARK  Name = ZINC58951336
REMARK  8 active torsions:
REMARK  status: ('A' for Active; 'I' for Inactive)
REMARK    1  A    between atoms: C_3  and  S_28
REMARK    2  A    between atoms: C_6  and  C_7
REMARK    3  A    between atoms: C_7  and  C_8
REMARK    4  A    between atoms: C_8  and  N_9
REMARK    5  A    between atoms: N_9  and  C_10
REMARK    6  A    between atoms: N_15  and  C_18
REMARK    7  A    between atoms: C_18  and  C_19
REMARK    8  A    between atoms: S_28  and  N_31
REMARK                            x       y       z     vdW  Elec       q    Type
REMARK                         _______ _______ _______ _____ _____    ______ ____
ROOT
ATOM      1  N   UNL     1      -3.007  -1.780  -1.420  0.00  0.00    +0.387 N 
ATOM      2  H   UNL     1      -2.870  -2.663  -0.951  0.00  0.00    -0.085 HD
ATOM      3  H   UNL     1      -3.713  -1.247  -0.935  0.00  0.00    -0.085 HD
ENDROOT
BRANCH   1   4
ATOM      4  C   UNL     1      -3.442  -2.023  -2.802  0.00  0.00    +0.025 C 
ATOM      5  C   UNL     1      -4.728  -2.873  -2.825  0.00  0.00    +0.090 C 
ATOM      6  C   UNL     1      -5.738  -1.969  -3.498  0.00  0.00    +0.221 C 
ATOM      7  O   UNL     1      -6.896  -2.252  -3.720  0.00  0.00    -0.275 OA
ATOM      8  N   UNL     1      -5.151  -0.808  -3.810  0.00  0.00    -0.239 N 
ATOM      9  C   UNL     1      -3.856  -0.728  -3.466  0.00  0.00    +0.209 C 
ATOM     10  O   UNL     1      -3.133   0.227  -3.654  0.00  0.00    -0.277 OA
BRANCH   8  11
ATOM     11  C   UNL     1      -5.862   0.287  -4.475  0.00  0.00    +0.151 C 
BRANCH  11  12
ATOM     12  C   UNL     1      -6.476   1.191  -3.438  0.00  0.00    -0.026 A 
ATOM     13  C   UNL     1      -7.755   0.941  -2.976  0.00  0.00    +0.009 A 
ATOM     14  C   UNL     1      -8.323   1.766  -2.024  0.00  0.00    +0.050 A 
ATOM     15  C   UNL     1      -7.611   2.848  -1.530  0.00  0.00    +0.166 A 
ATOM     16  C   UNL     1      -6.322   3.099  -1.995  0.00  0.00    +0.167 A 
ATOM     17  C   UNL     1      -5.758   2.264  -2.945  0.00  0.00    +0.054 A 
ATOM     18  O   UNL     1      -5.839   4.207  -1.362  0.00  0.00    -0.453 OA
ATOM     19  C   UNL     1      -6.992   4.868  -0.808  0.00  0.00    +0.466 C 
ATOM     20  O   UNL     1      -7.934   3.798  -0.605  0.00  0.00    -0.453 OA
ENDBRANCH  11  12
ENDBRANCH   8  11
ENDBRANCH   1   4
BRANCH   1  21
ATOM     21  C   UNL     1      -1.745  -1.028  -1.429  0.00  0.00    -0.077 C 
BRANCH  21  22
ATOM     22  C   UNL     1      -1.293  -0.775   0.011  0.00  0.00    +0.016 C 
BRANCH  22  28
ATOM     23  C   UNL     1      -0.017   1.378   0.010  0.00  0.00    +0.005 A 
ATOM     24  C   UNL     1       1.171   2.086   0.002  0.00  0.00    +0.029 A 
ATOM     25  C   UNL     1       2.377   1.411  -0.013  0.00  0.00    +0.105 A 
ATOM     26  C   UNL     1       2.396   0.029  -0.020  0.00  0.00    +0.029 A 
ATOM     27  C   UNL     1       1.208  -0.679  -0.012  0.00  0.00    +0.005 A 
ATOM     28  C   UNL     1       0.002  -0.004   0.002  0.00  0.00    -0.049 A 
BRANCH  25  29
ATOM     29  S   UNL     1       3.891   2.312  -0.024  0.00  0.00    +0.056 S 
ATOM     30  O   UNL     1       4.872   1.453  -0.588  0.00  0.00    -0.153 OA
ATOM     31  O   UNL     1       3.597   3.593  -0.566  0.00  0.00    -0.153 OA
BRANCH  29  32
ATOM     32  N   UNL     1       4.327   2.556   1.555  0.00  0.00    -0.204 NA
ATOM     33  H   UNL     1       5.265   2.623   1.794  0.00  0.00    +0.144 HD
ATOM     34  H   UNL     1       3.645   2.631   2.241  0.00  0.00    +0.144 HD
ENDBRANCH  29  32
ENDBRANCH  25  29
ENDBRANCH  22  28
ENDBRANCH  21  22
ENDBRANCH   1  21
TORSDOF 8
