REMARK  Name = ZINC35385286
REMARK  15 active torsions:
REMARK  status: ('A' for Active; 'I' for Inactive)
REMARK    1  A    between atoms: C_1  and  C_2
REMARK    2  A    between atoms: C_2  and  C_3
REMARK    3  A    between atoms: C_2  and  C_4
REMARK    4  A    between atoms: C_4  and  C_5
REMARK    5  A    between atoms: C_5  and  C_7
REMARK    6  A    between atoms: C_5  and  N_33
REMARK    7  A    between atoms: C_9  and  C_12
REMARK    8  A    between atoms: N_14  and  C_15
REMARK    9  A    between atoms: C_15  and  C_17
REMARK   10  A    between atoms: C_15  and  C_21
REMARK   11  A    between atoms: C_17  and  C_18
REMARK   12  A    between atoms: C_18  and  C_19
REMARK   13  A    between atoms: C_18  and  C_20
REMARK   14  A    between atoms: N_23  and  C_24
REMARK   15  A    between atoms: C_27  and  N_30
REMARK                            x       y       z     vdW  Elec       q    Type
REMARK                         _______ _______ _______ _____ _____    ______ ____
ROOT
ATOM      1  C   UNL     1       5.353  -3.430  -4.108  0.00  0.00    +0.266 C 
ATOM      2  O   UNL     1       5.776  -3.553  -5.242  0.00  0.00    -0.268 OA
ATOM      3  N   UNL     1       5.738  -4.295  -3.148  0.00  0.00    -0.299 N 
ATOM      4  H   UNL     1       5.400  -4.197  -2.244  0.00  0.00    +0.150 HD
ENDROOT
BRANCH   1   7
ATOM      5  C   UNL     1       3.099  -1.036  -2.677  0.00  0.00    +0.182 A 
ATOM      6  N   UNL     1       3.867  -2.078  -2.568  0.00  0.00    -0.210 NA
ATOM      7  C   UNL     1       4.419  -2.337  -3.784  0.00  0.00    +0.163 A 
ATOM      8  C   UNL     1       3.947  -1.395  -4.646  0.00  0.00    +0.230 A 
ATOM      9  O   UNL     1       3.125  -0.599  -3.944  0.00  0.00    -0.449 OA
BRANCH   5  10
ATOM     10  C   UNL     1       2.300  -0.420  -1.557  0.00  0.00    +0.013 C 
BRANCH  10  11
ATOM     11  N   UNL     1       2.451   1.041  -1.594  0.00  0.00    +0.386 N 
ATOM     12  H   UNL     1       2.168   1.385  -2.499  0.00  0.00    -0.089 HD
ATOM     13  H   UNL     1       1.872   1.457  -0.880  0.00  0.00    -0.089 HD
ATOM     14  H   UNL     1       3.416   1.284  -1.429  0.00  0.00    -0.089 HD
ENDBRANCH  10  11
BRANCH  10  15
ATOM     15  C   UNL     1       0.824  -0.785  -1.724  0.00  0.00    -0.004 C 
BRANCH  15  17
ATOM     16  C   UNL     1      -1.458  -0.534  -0.738  0.00  0.00    +0.007 C 
ATOM     17  C   UNL     1       0.033  -0.275  -0.517  0.00  0.00    -0.018 C 
ATOM     18  C   UNL     1       0.497  -1.008   0.744  0.00  0.00    +0.007 C 
ENDBRANCH  15  17
ENDBRANCH  10  15
ENDBRANCH   5  10
ENDBRANCH   1   7
BRANCH   3  19
ATOM     19  C   UNL     1       6.666  -5.381  -3.470  0.00  0.00    +0.160 C 
BRANCH  19  20
ATOM     20  C   UNL     1       6.473  -6.512  -2.493  0.00  0.00    +0.238 C 
ATOM     21  O   UNL     1       5.643  -6.419  -1.614  0.00  0.00    -0.273 OA
ATOM     22  N   UNL     1       7.224  -7.627  -2.595  0.00  0.00    -0.284 N 
ATOM     23  H   UNL     1       7.939  -7.671  -3.250  0.00  0.00    +0.155 HD
BRANCH  22  24
ATOM     24  C   UNL     1       6.974  -8.719  -1.758  0.00  0.00    +0.034 A 
ATOM     25  C   UNL     1       8.021  -9.525  -1.333  0.00  0.00    +0.025 A 
ATOM     26  C   UNL     1       7.771 -10.603  -0.506  0.00  0.00    +0.034 A 
ATOM     27  C   UNL     1       6.478 -10.879  -0.101  0.00  0.00    +0.126 A 
ATOM     28  C   UNL     1       5.432 -10.078  -0.522  0.00  0.00    +0.034 A 
ATOM     29  C   UNL     1       5.677  -8.995  -1.344  0.00  0.00    +0.025 A 
BRANCH  27  30
ATOM     30  N   UNL     1       6.212 -12.034   0.785  0.00  0.00    +0.056 N 
ATOM     31  O   UNL     1       7.125 -12.736   1.154  0.00  0.00    -0.126 OA
ATOM     32  O   UNL     1       5.082 -12.277   1.140  0.00  0.00    -0.126 OA
ENDBRANCH  27  30
ENDBRANCH  22  24
ENDBRANCH  19  20
BRANCH  19  33
ATOM     33  C   UNL     1       8.104  -4.868  -3.379  0.00  0.00    +0.034 C 
BRANCH  33  34
ATOM     34  C   UNL     1       8.335  -3.805  -4.456  0.00  0.00    -0.015 C 
ATOM     35  C   UNL     1       9.732  -3.203  -4.286  0.00  0.00    +0.007 C 
ATOM     36  C   UNL     1       8.222  -4.449  -5.840  0.00  0.00    +0.007 C 
ENDBRANCH  33  34
ENDBRANCH  19  33
ENDBRANCH   3  19
TORSDOF 11
