REMARK  Name = ZINC56604234
REMARK  8 active torsions:
REMARK  status: ('A' for Active; 'I' for Inactive)
REMARK    1  A    between atoms: C_4  and  S_22
REMARK    2  A    between atoms: C_5  and  N_7
REMARK    3  A    between atoms: N_10  and  C_11
REMARK    4  A    between atoms: C_11  and  C_12
REMARK    5  A    between atoms: C_12  and  C_13
REMARK    6  A    between atoms: N_15  and  C_16
REMARK    7  A    between atoms: S_22  and  C_23
REMARK    8  A    between atoms: C_23  and  C_24
REMARK                            x       y       z     vdW  Elec       q    Type
REMARK                         _______ _______ _______ _____ _____    ______ ____
ROOT
ATOM      1  N   UNL     1       1.233  -2.083  -0.021  0.00  0.00    -0.268 N 
ATOM      2  C   UNL     1       0.082  -2.775   0.088  0.00  0.00    +0.304 C 
ATOM      3  O   UNL     1      -0.982  -2.186   0.102  0.00  0.00    -0.253 OA
ATOM      4  N   UNL     1       0.110  -4.119   0.181  0.00  0.00    -0.299 N 
ATOM      5  H   UNL     1       2.075  -2.554  -0.115  0.00  0.00    +0.156 HD
ATOM      6  H   UNL     1       0.958  -4.588   0.170  0.00  0.00    +0.150 HD
ENDROOT
BRANCH   1  11
ATOM      7  C   UNL     1       0.154   1.372   0.642  0.00  0.00    +0.002 A 
ATOM      8  C   UNL     1       1.173   2.090   0.042  0.00  0.00    +0.001 A 
ATOM      9  C   UNL     1       2.215   1.430  -0.580  0.00  0.00    +0.016 A 
ATOM     10  C   UNL     1       2.241   0.042  -0.605  0.00  0.00    +0.030 A 
ATOM     11  C   UNL     1       1.213  -0.681   0.000  0.00  0.00    +0.048 A 
ATOM     12  C   UNL     1       0.172  -0.010   0.622  0.00  0.00    +0.024 A 
BRANCH  10  13
ATOM     13  S   UNL     1       3.568  -0.802  -1.398  0.00  0.00    -0.114 S 
BRANCH  13  14
ATOM     14  C   UNL     1       4.629   0.532  -2.019  0.00  0.00    +0.169 C 
BRANCH  14  15
ATOM     15  C   UNL     1       5.818  -0.062  -2.729  0.00  0.00    +0.221 C 
ATOM     16  O   UNL     1       5.939  -1.266  -2.809  0.00  0.00    -0.275 OA
ATOM     17  N   UNL     1       6.749   0.746  -3.276  0.00  0.00    -0.329 N 
ATOM     18  H   UNL     1       6.652   1.709  -3.213  0.00  0.00    +0.145 HD
ATOM     19  H   UNL     1       7.514   0.364  -3.733  0.00  0.00    +0.145 HD
ENDBRANCH  14  15
ENDBRANCH  13  14
ENDBRANCH  10  13
ENDBRANCH   1  11
BRANCH   4  20
ATOM     20  C   UNL     1      -1.142  -4.871   0.300  0.00  0.00    +0.115 C 
BRANCH  20  21
ATOM     21  C   UNL     1      -0.832  -6.367   0.389  0.00  0.00    +0.114 C 
BRANCH  21  22
ATOM     22  C   UNL     1      -2.119  -7.140   0.511  0.00  0.00    +0.215 C 
ATOM     23  O   UNL     1      -3.180  -6.553   0.525  0.00  0.00    -0.276 OA
ATOM     24  N   UNL     1      -2.091  -8.485   0.605  0.00  0.00    -0.312 N 
ATOM     25  H   UNL     1      -1.242  -8.954   0.594  0.00  0.00    +0.149 HD
BRANCH  24  26
ATOM     26  C   UNL     1      -3.343  -9.237   0.723  0.00  0.00    +0.073 C 
ATOM     27  C   UNL     1      -3.769  -9.290   2.192  0.00  0.00    +0.022 C 
ATOM     28  C   UNL     1      -5.076 -10.075   2.316  0.00  0.00    +0.002 C 
ATOM     29  C   UNL     1      -4.867 -11.498   1.793  0.00  0.00    +0.000 C 
ATOM     30  C   UNL     1      -4.441 -11.445   0.325  0.00  0.00    +0.002 C 
ATOM     31  C   UNL     1      -3.134 -10.660   0.201  0.00  0.00    +0.022 C 
ENDBRANCH  24  26
ENDBRANCH  21  22
ENDBRANCH  20  21
ENDBRANCH   4  20
TORSDOF 8
