REMARK  Name = ZINC40978963
REMARK  9 active torsions:
REMARK  status: ('A' for Active; 'I' for Inactive)
REMARK    1  A    between atoms: C_1  and  C_2
REMARK    2  A    between atoms: C_3  and  C_28
REMARK    3  A    between atoms: C_4  and  C_12
REMARK    4  A    between atoms: C_17  and  O_18
REMARK    5  A    between atoms: O_18  and  C_19
REMARK    6  A    between atoms: C_19  and  C_20
REMARK    7  A    between atoms: C_28  and  O_30
REMARK    8  A    between atoms: O_30  and  C_31
REMARK    9  A    between atoms: C_31  and  C_32
REMARK                            x       y       z     vdW  Elec       q    Type
REMARK                         _______ _______ _______ _____ _____    ______ ____
ROOT
ATOM      1  C   UNL     1       1.320   0.140  -0.486  0.00  0.00    +0.061 C 
ATOM      2  C   UNL     1       0.940  -1.278  -0.146  0.00  0.00    +0.020 C 
ATOM      3  C   UNL     1      -0.357  -1.579   0.019  0.00  0.00    +0.082 C 
ATOM      4  C   UNL     1      -0.843  -2.961   0.370  0.00  0.00    +0.184 C 
ATOM      5  N   UNL     1       0.251  -3.912   0.213  0.00  0.00    -0.201 N 
ATOM      6  C   UNL     1       1.548  -3.549   0.038  0.00  0.00    +0.240 A 
ATOM      7  N   UNL     1       2.247  -4.644  -0.058  0.00  0.00    -0.092 NA
ATOM      8  N   UNL     1       1.478  -5.674   0.039  0.00  0.00    -0.021 NA
ATOM      9  N   UNL     1       0.249  -5.306   0.205  0.00  0.00    -0.042 NA
ATOM     10  N   UNL     1       1.933  -2.218  -0.021  0.00  0.00    -0.286 N 
ATOM     11  H   UNL     1       2.867  -1.962   0.027  0.00  0.00    +0.155 HD
ENDROOT
BRANCH   4  12
ATOM     12  C   UNL     1      -1.322  -2.977   1.799  0.00  0.00    +0.024 A 
ATOM     13  C   UNL     1      -0.462  -2.621   2.821  0.00  0.00    +0.025 A 
ATOM     14  C   UNL     1      -0.902  -2.635   4.132  0.00  0.00    +0.018 A 
ATOM     15  C   UNL     1      -2.202  -3.006   4.424  0.00  0.00    +0.019 A 
ATOM     16  C   UNL     1      -3.065  -3.362   3.406  0.00  0.00    +0.047 A 
ATOM     17  C   UNL     1      -2.628  -3.343   2.089  0.00  0.00    +0.127 A 
ATOM     18 BR   UNL     1       0.277  -2.148   5.528  0.00  0.00    -0.050 Br
BRANCH  17  19
ATOM     19  O   UNL     1      -3.476  -3.689   1.085  0.00  0.00    -0.487 OA
BRANCH  19  20
ATOM     20  C   UNL     1      -4.767  -4.172   1.464  0.00  0.00    +0.264 C 
BRANCH  20  21
ATOM     21  C   UNL     1      -5.536  -4.571   0.231  0.00  0.00    -0.010 A 
ATOM     22  C   UNL     1      -6.364  -3.657  -0.393  0.00  0.00    +0.008 A 
ATOM     23  C   UNL     1      -7.069  -4.022  -1.524  0.00  0.00    +0.020 A 
ATOM     24  C   UNL     1      -6.947  -5.303  -2.032  0.00  0.00    +0.041 A 
ATOM     25  C   UNL     1      -6.118  -6.218  -1.407  0.00  0.00    +0.020 A 
ATOM     26  C   UNL     1      -5.408  -5.849  -0.279  0.00  0.00    +0.008 A 
ATOM     27 CL   UNL     1      -7.833  -5.763  -3.452  0.00  0.00    -0.084 Cl
ENDBRANCH  20  21
ENDBRANCH  19  20
ENDBRANCH  17  19
ENDBRANCH   4  12
BRANCH   3  28
ATOM     28  C   UNL     1      -1.313  -0.551  -0.145  0.00  0.00    +0.339 C 
ATOM     29  O   UNL     1      -0.948   0.596  -0.324  0.00  0.00    -0.245 OA
BRANCH  28  30
ATOM     30  O   UNL     1      -2.630  -0.842  -0.103  0.00  0.00    -0.457 OA
BRANCH  30  31
ATOM     31  C   UNL     1      -3.540   0.232  -0.352  0.00  0.00    +0.259 C 
BRANCH  31  32
ATOM     32  C   UNL     1      -4.955  -0.262  -0.196  0.00  0.00    +0.006 C 
ATOM     33  C   UNL     1      -5.814   0.426   0.514  0.00  0.00    +0.007 C 
ENDBRANCH  31  32
ENDBRANCH  30  31
ENDBRANCH  28  30
ENDBRANCH   3  28
TORSDOF 8
