REMARK  Name = ZINC12549557
REMARK  3 active torsions:
REMARK  status: ('A' for Active; 'I' for Inactive)
REMARK    1  A    between atoms: C_3  and  O_28
REMARK    2  A    between atoms: C_4  and  C_8
REMARK    3  A    between atoms: O_28  and  C_29
REMARK                            x       y       z     vdW  Elec       q    Type
REMARK                         _______ _______ _______ _____ _____    ______ ____
ROOT
ATOM      1  C   UNL     1       3.711  -0.716  -0.038  0.00  0.00    +0.212 C 
ATOM      2  N   UNL     1       3.523  -2.066  -0.599  0.00  0.00    -0.294 N 
ATOM      3  C   UNL     1       3.061  -3.079   0.200  0.00  0.00    +0.160 C 
ATOM      4  N   UNL     1       3.309  -3.101   1.498  0.00  0.00    -0.302 N 
ATOM      5  C   UNL     1       3.983  -2.060   2.042  0.00  0.00    +0.213 A 
ATOM      6  N   UNL     1       4.205  -0.893   1.332  0.00  0.00    -0.286 N 
ATOM      7  C   UNL     1       4.918  -0.037   2.138  0.00  0.00    +0.076 A 
ATOM      8  C   UNL     1       5.435   1.242   1.978  0.00  0.00    +0.077 A 
ATOM      9  C   UNL     1       6.122   1.842   3.015  0.00  0.00    +0.164 A 
ATOM     10  C   UNL     1       6.303   1.173   4.222  0.00  0.00    +0.164 A 
ATOM     11  C   UNL     1       5.798  -0.098   4.399  0.00  0.00    +0.079 A 
ATOM     12  C   UNL     1       5.099  -0.717   3.358  0.00  0.00    +0.095 A 
ATOM     13  N   UNL     1       4.497  -1.940   3.238  0.00  0.00    -0.212 NA
ATOM     14  O   UNL     1       6.984   1.784   5.236  0.00  0.00    -0.488 OA
ATOM     15  C   UNL     1       8.382   1.985   5.018  0.00  0.00    +0.232 C 
ATOM     16  C   UNL     1       8.627   3.265   4.234  0.00  0.00    +0.082 C 
ATOM     17  C   UNL     1       8.055   3.200   2.826  0.00  0.00    +0.232 C 
ATOM     18  O   UNL     1       6.630   3.101   2.861  0.00  0.00    -0.488 OA
ATOM     19  N   UNL     1       2.326  -4.089  -0.359  0.00  0.00    -0.332 N 
ATOM     20  H   UNL     1       2.137  -4.083  -1.310  0.00  0.00    +0.145 HD
ATOM     21  H   UNL     1       1.993  -4.811   0.197  0.00  0.00    +0.145 HD
ATOM     22  H   UNL     1       3.727  -2.238  -1.531  0.00  0.00    +0.151 HD
ATOM     23  H   UNL     1       3.015  -3.845   2.047  0.00  0.00    +0.171 HD
ENDROOT
BRANCH   1  27
ATOM     24  C   UNL     1      -0.017   1.379   0.010  0.00  0.00    +0.019 A 
ATOM     25  C   UNL     1       1.170   2.087   0.002  0.00  0.00    +0.047 A 
ATOM     26  C   UNL     1       2.380   1.410  -0.013  0.00  0.00    +0.134 A 
ATOM     27  C   UNL     1       2.397   0.022  -0.021  0.00  0.00    +0.036 A 
ATOM     28  C   UNL     1       1.208  -0.681  -0.013  0.00  0.00    +0.026 A 
ATOM     29  C   UNL     1       0.002  -0.004   0.002  0.00  0.00    +0.018 A 
ATOM     30 BR   UNL     1      -1.623  -0.971   0.012  0.00  0.00    -0.050 Br
BRANCH  26  31
ATOM     31  O   UNL     1       3.548   2.104  -0.021  0.00  0.00    -0.434 OA
BRANCH  31  32
ATOM     32  C   UNL     1       3.455   3.530  -0.013  0.00  0.00    +0.541 C 
ATOM     33  F   UNL     1       2.756   3.959  -1.146  0.00  0.00    -0.166 F 
ATOM     34  F   UNL     1       2.778   3.947   1.138  0.00  0.00    -0.166 F 
ENDBRANCH  31  32
ENDBRANCH  26  31
ENDBRANCH   1  27
TORSDOF 3
