REMARK  Name = ZINC59669750
REMARK  6 active torsions:
REMARK  status: ('A' for Active; 'I' for Inactive)
REMARK    1  A    between atoms: C_1  and  C_2
REMARK    2  A    between atoms: C_5  and  N_9
REMARK    3  A    between atoms: C_6  and  C_8
REMARK    4  A    between atoms: C_10  and  C_12
REMARK    5  A    between atoms: C_14  and  C_31
REMARK    6  A    between atoms: C_22  and  C_24
REMARK                            x       y       z     vdW  Elec       q    Type
REMARK                         _______ _______ _______ _____ _____    ______ ____
ROOT
ATOM      1  C   UNL     1      -0.148  -6.317  -1.198  0.00  0.00    +0.124 C 
ATOM      2  C   UNL     1      -1.441  -6.772  -0.510  0.00  0.00    +0.084 C 
ATOM      3  N   UNL     1      -1.455  -8.247  -0.464  0.00  0.00    -0.310 N 
ATOM      4  C   UNL     1      -1.058  -8.902  -1.623  0.00  0.00    +0.214 A 
ATOM      5  N   UNL     1      -1.180 -10.159  -1.953  0.00  0.00    -0.202 NA
ATOM      6  C   UNL     1      -0.658 -10.353  -3.169  0.00  0.00    +0.247 A 
ATOM      7  N   UNL     1      -0.196  -9.216  -3.626  0.00  0.00    -0.156 NA
ATOM      8  N   UNL     1      -0.441  -8.258  -2.642  0.00  0.00    -0.225 N 
ATOM      9  C   UNL     1      -0.123  -6.830  -2.643  0.00  0.00    +0.154 C 
ATOM     10  C   UNL     1      -1.492  -6.210   0.912  0.00  0.00    +0.028 C 
ATOM     11  H   UNL     1      -1.727  -8.732   0.331  0.00  0.00    +0.149 HD
ENDROOT
BRANCH   9  12
ATOM     12  C   UNL     1       1.248  -6.619  -3.230  0.00  0.00    -0.022 A 
ATOM     13  C   UNL     1       2.349  -7.222  -2.649  0.00  0.00    +0.007 A 
ATOM     14  C   UNL     1       3.607  -7.029  -3.188  0.00  0.00    +0.015 A 
ATOM     15  C   UNL     1       3.765  -6.233  -4.308  0.00  0.00    +0.018 A 
ATOM     16  C   UNL     1       2.664  -5.630  -4.889  0.00  0.00    +0.015 A 
ATOM     17  C   UNL     1       1.405  -5.828  -4.353  0.00  0.00    +0.007 A 
ATOM     18 BR   UNL     1       5.487  -5.968  -5.045  0.00  0.00    -0.050 Br
ENDBRANCH   9  12
BRANCH   1  20
ATOM     19  N   UNL     1       0.423  -4.157  -0.136  0.00  0.00    -0.285 N 
ATOM     20  C   UNL     1      -0.085  -4.811  -1.199  0.00  0.00    +0.224 C 
ATOM     21  O   UNL     1      -0.492  -4.188  -2.157  0.00  0.00    -0.275 OA
ATOM     22  H   UNL     1       0.765  -4.656   0.623  0.00  0.00    +0.155 HD
BRANCH  19  27
ATOM     23  C   UNL     1       0.566   1.514  -0.099  0.00  0.00    +0.044 C 
ATOM     24  C   UNL     1       0.528   0.007  -0.109  0.00  0.00    -0.050 A 
ATOM     25  C   UNL     1       0.529  -0.675  -1.312  0.00  0.00    +0.005 A 
ATOM     26  C   UNL     1       0.494  -2.055  -1.324  0.00  0.00    +0.024 A 
ATOM     27  C   UNL     1       0.459  -2.759  -0.127  0.00  0.00    +0.036 A 
ATOM     28  C   UNL     1       0.459  -2.071   1.079  0.00  0.00    -0.029 A 
ATOM     29  C   UNL     1       0.499  -0.690   1.085  0.00  0.00    +0.008 A 
ATOM     30  C   UNL     1       0.422  -2.829   2.381  0.00  0.00    +0.045 C 
ENDBRANCH  19  27
ENDBRANCH   1  20
TORSDOF 3
