REMARK  Name = ZINC67624903
REMARK  8 active torsions:
REMARK  status: ('A' for Active; 'I' for Inactive)
REMARK    1  A    between atoms: C_1  and  C_2
REMARK    2  A    between atoms: N_5  and  C_8
REMARK    3  A    between atoms: C_8  and  C_9
REMARK    4  A    between atoms: C_9  and  C_11
REMARK    5  A    between atoms: C_9  and  O_23
REMARK    6  A    between atoms: C_11  and  N_12
REMARK    7  A    between atoms: N_15  and  C_16
REMARK    8  A    between atoms: C_16  and  C_17
REMARK                            x       y       z     vdW  Elec       q    Type
REMARK                         _______ _______ _______ _____ _____    ______ ____
ROOT
ATOM      1  C   UNL     1       3.028  -5.812   0.905  0.00  0.00    +0.135 C 
ENDROOT
BRANCH   1   2
ATOM      2  N   UNL     1       3.964  -6.214   1.958  0.00  0.00    -0.297 N 
ATOM      3  C   UNL     1       4.412  -7.484   2.013  0.00  0.00    +0.300 C 
ATOM      4  O   UNL     1       4.039  -8.296   1.188  0.00  0.00    -0.253 OA
ATOM      5  N   UNL     1       5.272  -7.854   2.982  0.00  0.00    -0.295 N 
ATOM      6  H   UNL     1       4.261  -5.566   2.617  0.00  0.00    +0.150 HD
ATOM      7  H   UNL     1       5.570  -7.207   3.640  0.00  0.00    +0.151 HD
BRANCH   5   8
ATOM      8  C   UNL     1       5.759  -9.235   3.041  0.00  0.00    +0.148 C 
BRANCH   8   9
ATOM      9  C   UNL     1       6.701  -9.386   4.207  0.00  0.00    +0.008 A 
ATOM     10  C   UNL     1       6.426  -9.735   5.487  0.00  0.00    +0.014 A 
ATOM     11  C   UNL     1       7.461  -9.812   6.400  0.00  0.00    +0.023 A 
ATOM     12  C   UNL     1       8.723  -9.533   5.987  0.00  0.00    +0.055 A 
ATOM     13  S   UNL     1       8.471  -9.157   4.260  0.00  0.00    -0.085 S 
ATOM     14 BR   UNL     1      10.332  -9.548   6.980  0.00  0.00    -0.043 Br
ENDBRANCH   8   9
ENDBRANCH   5   8
ENDBRANCH   1   2
BRANCH   1  15
ATOM     15  C   UNL     1       2.681  -4.331   1.070  0.00  0.00    +0.115 C 
BRANCH  15  16
ATOM     16  O   UNL     1       2.077  -4.123   2.349  0.00  0.00    -0.392 OA
ATOM     17  H   UNL     1       1.262  -4.624   2.485  0.00  0.00    +0.210 HD
ENDBRANCH  15  16
BRANCH  15  18
ATOM     18  C   UNL     1       1.704  -3.911  -0.029  0.00  0.00    -0.046 C 
BRANCH  18  23
ATOM     19  C   UNL     1       0.801   1.694  -0.579  0.00  0.00    +0.007 C 
ATOM     20  C   UNL     1       1.167   0.235  -0.859  0.00  0.00    -0.018 C 
ATOM     21  C   UNL     1       2.284  -0.205   0.093  0.00  0.00    -0.016 C 
ATOM     22  C   UNL     1       2.590  -1.686  -0.138  0.00  0.00    -0.078 C 
ATOM     23  N   UNL     1       1.385  -2.484   0.118  0.00  0.00    +0.381 N 
ATOM     24  C   UNL     1       0.333  -2.118  -0.839  0.00  0.00    -0.078 C 
ATOM     25  C   UNL     1      -0.060  -0.654  -0.635  0.00  0.00    -0.016 C 
ATOM     26  H   UNL     1       1.060  -2.309   1.057  0.00  0.00    -0.082 HD
ENDBRANCH  18  23
ENDBRANCH  15  18
ENDBRANCH   1  15
TORSDOF 7
