REMARK  Name = ZINC57840392
REMARK  9 active torsions:
REMARK  status: ('A' for Active; 'I' for Inactive)
REMARK    1  A    between atoms: C_1  and  C_2
REMARK    2  A    between atoms: C_2  and  C_12
REMARK    3  A    between atoms: N_5  and  C_9
REMARK    4  A    between atoms: C_9  and  C_10
REMARK    5  A    between atoms: C_10  and  N_11
REMARK    6  A    between atoms: C_15  and  O_20
REMARK    7  A    between atoms: C_16  and  O_18
REMARK    8  A    between atoms: O_18  and  C_19
REMARK    9  A    between atoms: O_20  and  C_21
REMARK                            x       y       z     vdW  Elec       q    Type
REMARK                         _______ _______ _______ _____ _____    ______ ____
ROOT
ATOM      1  C   UNL     1      -0.019   1.526   0.010  0.00  0.00    +0.047 C 
ATOM      2  C   UNL     1       0.002  -0.004   0.002  0.00  0.00    +0.135 C 
ATOM      3  C   UNL     1       0.815  -0.520  -1.169  0.00  0.00    +0.251 C 
ATOM      4  O   UNL     1       0.595  -0.342  -2.348  0.00  0.00    -0.272 OA
ATOM      5  N   UNL     1       1.833  -1.217  -0.627  0.00  0.00    -0.226 N 
ATOM      6  C   UNL     1       1.777  -1.214   0.710  0.00  0.00    +0.310 C 
ATOM      7  O   UNL     1       2.586  -1.776   1.421  0.00  0.00    -0.252 OA
ATOM      8  N   UNL     1       0.724  -0.519   1.178  0.00  0.00    -0.281 N 
ATOM      9  H   UNL     1       0.487  -0.383   2.109  0.00  0.00    +0.152 HD
ENDROOT
BRANCH   2  10
ATOM     10  C   UNL     1      -1.401  -0.551  -0.040  0.00  0.00    -0.012 A 
ATOM     11  C   UNL     1      -2.003  -0.814  -1.257  0.00  0.00    +0.010 A 
ATOM     12  C   UNL     1      -3.290  -1.316  -1.300  0.00  0.00    +0.050 A 
ATOM     13  C   UNL     1      -3.980  -1.558  -0.123  0.00  0.00    +0.162 A 
ATOM     14  C   UNL     1      -3.374  -1.294   1.101  0.00  0.00    +0.162 A 
ATOM     15  C   UNL     1      -2.082  -0.795   1.138  0.00  0.00    +0.055 A 
BRANCH  14  16
ATOM     16  O   UNL     1      -4.047  -1.530   2.259  0.00  0.00    -0.491 OA
ATOM     17  C   UNL     1      -3.363  -1.236   3.479  0.00  0.00    +0.277 C 
ENDBRANCH  14  16
BRANCH  13  18
ATOM     18  O   UNL     1      -5.247  -2.052  -0.165  0.00  0.00    -0.491 OA
ATOM     19  C   UNL     1      -5.805  -2.298  -1.457  0.00  0.00    +0.277 C 
ENDBRANCH  13  18
ENDBRANCH   2  10
BRANCH   5  20
ATOM     20  C   UNL     1       2.871  -1.896  -1.406  0.00  0.00    +0.098 C 
BRANCH  20  21
ATOM     21  C   UNL     1       4.037  -0.936  -1.647  0.00  0.00    -0.067 C 
BRANCH  21  22
ATOM     22  N   UNL     1       5.079  -1.616  -2.428  0.00  0.00    +0.379 N 
ATOM     23  H   UNL     1       5.408  -2.423  -1.919  0.00  0.00    -0.090 HD
ATOM     24  H   UNL     1       4.697  -1.911  -3.314  0.00  0.00    -0.090 HD
ATOM     25  H   UNL     1       5.848  -0.983  -2.587  0.00  0.00    -0.090 HD
ENDBRANCH  21  22
ENDBRANCH  20  21
ENDBRANCH   5  20
TORSDOF 6
