REMARK  Name = ZINC41070093
REMARK  6 active torsions:
REMARK  status: ('A' for Active; 'I' for Inactive)
REMARK    1  A    between atoms: C_1  and  C_2
REMARK    2  A    between atoms: N_5  and  S_11
REMARK    3  A    between atoms: C_6  and  C_10
REMARK    4  A    between atoms: S_11  and  C_14
REMARK    5  A    between atoms: C_19  and  N_20
REMARK    6  A    between atoms: N_20  and  N_21
REMARK                            x       y       z     vdW  Elec       q    Type
REMARK                         _______ _______ _______ _____ _____    ______ ____
ROOT
ATOM      1  C   UNL     1       2.374  -3.806  -2.564  0.00  0.00    +0.147 A 
ATOM      2  C   UNL     1       2.495  -5.180  -2.456  0.00  0.00    +0.048 A 
ATOM      3  C   UNL     1       3.738  -5.757  -2.683  0.00  0.00    +0.038 A 
ATOM      4  C   UNL     1       4.810  -4.947  -3.007  0.00  0.00    +0.128 A 
ATOM      5  N   UNL     1       4.665  -3.639  -3.102  0.00  0.00    -0.236 NA
ATOM      6  C   UNL     1       3.495  -3.054  -2.900  0.00  0.00    +0.159 A 
ATOM      7 BR   UNL     1       3.962  -7.630  -2.549  0.00  0.00    -0.049 Br
ENDROOT
BRANCH   1   8
ATOM      8  S   UNL     1       0.821  -3.022  -2.288  0.00  0.00    +0.065 S 
ATOM      9  O   UNL     1      -0.098  -4.049  -1.944  0.00  0.00    -0.153 OA
ATOM     10  O   UNL     1       0.608  -2.145  -3.385  0.00  0.00    -0.153 OA
BRANCH   8  14
ATOM     11  C   UNL     1       0.453   1.584  -0.111  0.00  0.00    +0.039 C 
ATOM     12  C   UNL     1       0.158   0.083  -0.153  0.00  0.00    +0.131 C 
ATOM     13  C   UNL     1       1.173  -0.612  -1.068  0.00  0.00    +0.141 C 
ATOM     14  N   UNL     1       0.988  -2.067  -0.945  0.00  0.00    -0.169 NA
ATOM     15  C   UNL     1       0.954  -2.648   0.407  0.00  0.00    +0.102 C 
ATOM     16  C   UNL     1      -0.050  -1.853   1.250  0.00  0.00    +0.180 C 
ATOM     17  O   UNL     1       0.262  -0.461   1.165  0.00  0.00    -0.374 OA
ATOM     18  C   UNL     1       0.516  -4.112   0.327  0.00  0.00    +0.028 C 
ENDBRANCH   8  14
ENDBRANCH   1   8
BRANCH   6  19
ATOM     19  N   UNL     1       3.386  -1.672  -3.018  0.00  0.00    -0.266 N 
ATOM     20  H   UNL     1       2.519  -1.246  -2.941  0.00  0.00    +0.167 HD
BRANCH  19  21
ATOM     21  N   UNL     1       4.502  -0.916  -3.241  0.00  0.00    -0.255 NA
ATOM     22  H   UNL     1       4.989  -1.225  -4.069  0.00  0.00    +0.140 HD
ATOM     23  H   UNL     1       4.268   0.063  -3.303  0.00  0.00    +0.140 HD
ENDBRANCH  19  21
ENDBRANCH   6  19
TORSDOF 4
