REMARK  Name = ZINC38990337
REMARK  11 active torsions:
REMARK  status: ('A' for Active; 'I' for Inactive)
REMARK    1  A    between atoms: C_1  and  C_2
REMARK    2  A    between atoms: N_4  and  C_5
REMARK    3  A    between atoms: C_8  and  S_11
REMARK    4  A    between atoms: S_11  and  N_14
REMARK    5  A    between atoms: N_14  and  C_15
REMARK    6  A    between atoms: N_14  and  C_30
REMARK    7  A    between atoms: C_15  and  C_16
REMARK    8  A    between atoms: C_21  and  O_28
REMARK    9  A    between atoms: O_28  and  C_29
REMARK   10  A    between atoms: C_33  and  O_36
REMARK   11  A    between atoms: O_36  and  C_37
REMARK                            x       y       z     vdW  Elec       q    Type
REMARK                         _______ _______ _______ _____ _____    ______ ____
ROOT
ATOM      1  N   UNL     1      -2.036  -7.048  -1.109  0.00  0.00    -0.202 N 
ENDROOT
BRANCH   1   2
ATOM      2  C   UNL     1      -3.016  -7.344  -0.155  0.00  0.00    +0.052 A 
ATOM      3  C   UNL     1      -4.021  -8.255  -0.452  0.00  0.00    +0.028 A 
ATOM      4  C   UNL     1      -4.988  -8.547   0.490  0.00  0.00    +0.047 A 
ATOM      5  C   UNL     1      -4.955  -7.931   1.732  0.00  0.00    +0.120 A 
ATOM      6  C   UNL     1      -3.952  -7.020   2.029  0.00  0.00    +0.047 A 
ATOM      7  C   UNL     1      -2.981  -6.731   1.091  0.00  0.00    +0.028 A 
BRANCH   5   8
ATOM      8  O   UNL     1      -5.908  -8.219   2.659  0.00  0.00    -0.495 OA
ATOM      9  C   UNL     1      -5.813  -7.548   3.917  0.00  0.00    +0.277 C 
ENDBRANCH   5   8
ENDBRANCH   1   2
BRANCH   1  10
ATOM     10  S   UNL     1      -0.579  -6.421  -0.631  0.00  0.00    +0.075 S 
ATOM     11  O   UNL     1       0.319  -6.607  -1.717  0.00  0.00    -0.150 OA
ATOM     12  O   UNL     1      -0.321  -6.936   0.667  0.00  0.00    -0.150 OA
BRANCH  10  16
ATOM     13  C   UNL     1      -1.133  -1.950  -0.163  0.00  0.00    +0.033 A 
ATOM     14  C   UNL     1      -1.207  -2.781   0.948  0.00  0.00    +0.025 A 
ATOM     15  C   UNL     1      -1.038  -4.144   0.801  0.00  0.00    +0.030 A 
ATOM     16  C   UNL     1      -0.795  -4.682  -0.449  0.00  0.00    +0.109 A 
ATOM     17  C   UNL     1      -0.720  -3.857  -1.557  0.00  0.00    +0.030 A 
ATOM     18  C   UNL     1      -0.895  -2.494  -1.418  0.00  0.00    +0.025 A 
BRANCH  13  22
ATOM     19  C   UNL     1      -2.207   1.605  -0.779  0.00  0.00    +0.109 C 
ATOM     20  C   UNL     1      -1.932   0.136  -0.979  0.00  0.00    +0.214 C 
ATOM     21  O   UNL     1      -2.276  -0.410  -2.006  0.00  0.00    -0.276 OA
ATOM     22  N   UNL     1      -1.304  -0.569  -0.018  0.00  0.00    -0.286 N 
ATOM     23  H   UNL     1      -0.971  -0.120   0.774  0.00  0.00    +0.155 HD
ENDBRANCH  13  22
ENDBRANCH  10  16
ENDBRANCH   1  10
BRANCH   1  24
ATOM     24  C   UNL     1      -2.298  -7.292  -2.529  0.00  0.00    +0.148 C 
BRANCH  24  25
ATOM     25  C   UNL     1      -2.124  -8.781  -2.831  0.00  0.00    +0.118 C 
ATOM     26  C   UNL     1      -2.645  -9.036  -4.232  0.00  0.00    -0.003 C 
ATOM     27  C   UNL     1      -1.777  -9.576  -5.133  0.00  0.00    -0.004 A 
ATOM     28  C   UNL     1      -2.199  -9.854  -6.507  0.00  0.00    +0.055 A 
ATOM     29  C   UNL     1      -1.298 -10.395  -7.373  0.00  0.00    +0.121 A 
ATOM     30  C   UNL     1       0.012 -10.685  -6.972  0.00  0.00    +0.047 A 
ATOM     31  C   UNL     1       0.461 -10.450  -5.713  0.00  0.00    +0.027 A 
ATOM     32  C   UNL     1      -0.392  -9.892  -4.741  0.00  0.00    +0.041 A 
ATOM     33  N   UNL     1       0.062  -9.666  -3.509  0.00  0.00    -0.284 N 
ATOM     34  C   UNL     1      -0.684  -9.147  -2.549  0.00  0.00    +0.226 C 
ATOM     35  O   UNL     1      -0.213  -8.963  -1.442  0.00  0.00    -0.275 OA
ATOM     36  H   UNL     1       0.983  -9.893  -3.307  0.00  0.00    +0.155 HD
BRANCH  29  37
ATOM     37  O   UNL     1      -1.677 -10.658  -8.652  0.00  0.00    -0.495 OA
ATOM     38  C   UNL     1      -0.692 -11.225  -9.517  0.00  0.00    +0.277 C 
ENDBRANCH  29  37
ENDBRANCH  24  25
ENDBRANCH   1  24
TORSDOF 8
