REMARK  Name = ZINC43759578
REMARK  9 active torsions:
REMARK  status: ('A' for Active; 'I' for Inactive)
REMARK    1  A    between atoms: C_4  and  C_7
REMARK    2  A    between atoms: C_15  and  O_35
REMARK    3  A    between atoms: C_17  and  O_18
REMARK    4  A    between atoms: O_18  and  C_19
REMARK    5  A    between atoms: C_21  and  O_34
REMARK    6  A    between atoms: C_23  and  O_33
REMARK    7  A    between atoms: C_25  and  O_32
REMARK    8  A    between atoms: C_27  and  C_30
REMARK    9  A    between atoms: C_30  and  O_31
REMARK                            x       y       z     vdW  Elec       q    Type
REMARK                         _______ _______ _______ _____ _____    ______ ____
ROOT
ATOM      1  C   UNL     1       3.711  -0.707  -0.038  0.00  0.00    +0.211 C 
ATOM      2  C   UNL     1       4.081  -1.062  -1.485  0.00  0.00    +0.129 C 
ATOM      3  C   UNL     1       5.391  -1.827  -1.439  0.00  0.00    +0.174 C 
ATOM      4  O   UNL     1       6.267  -1.643  -2.260  0.00  0.00    -0.292 OA
ATOM      5  C   UNL     1       5.545  -2.800  -0.352  0.00  0.00    +0.101 A 
ATOM      6  C   UNL     1       4.623  -2.789   0.711  0.00  0.00    +0.139 A 
ATOM      7  C   UNL     1       4.770  -3.697   1.744  0.00  0.00    +0.092 A 
ATOM      8  C   UNL     1       5.815  -4.613   1.726  0.00  0.00    +0.124 A 
ATOM      9  C   UNL     1       6.724  -4.631   0.675  0.00  0.00    +0.092 A 
ATOM     10  C   UNL     1       6.596  -3.731  -0.367  0.00  0.00    +0.141 A 
ATOM     11  O   UNL     1       3.596  -1.906   0.728  0.00  0.00    -0.483 OA
ENDROOT
BRANCH   1  15
ATOM     12  C   UNL     1      -0.017   1.378   0.010  0.00  0.00    +0.000 A 
ATOM     13  C   UNL     1       1.171   2.086   0.002  0.00  0.00    +0.000 A 
ATOM     14  C   UNL     1       2.377   1.411  -0.013  0.00  0.00    +0.007 A 
ATOM     15  C   UNL     1       2.396   0.029  -0.020  0.00  0.00    -0.007 A 
ATOM     16  C   UNL     1       1.208  -0.679  -0.012  0.00  0.00    +0.007 A 
ATOM     17  C   UNL     1       0.002  -0.004   0.002  0.00  0.00    +0.000 A 
ENDBRANCH   1  15
BRANCH   8  18
ATOM     18  O   UNL     1       5.950  -5.498   2.746  0.00  0.00    -0.507 OA
ATOM     19  H   UNL     1       5.477  -6.330   2.609  0.00  0.00    +0.292 HD
ENDBRANCH   8  18
BRANCH  10  20
ATOM     20  O   UNL     1       7.479  -3.747  -1.396  0.00  0.00    -0.460 OA
BRANCH  20  21
ATOM     21  C   UNL     1       8.521  -4.723  -1.341  0.00  0.00    +0.339 C 
ATOM     22  C   UNL     1       9.550  -4.434  -2.437  0.00  0.00    +0.214 C 
ATOM     23  C   UNL     1      10.632  -5.518  -2.410  0.00  0.00    +0.180 C 
ATOM     24  C   UNL     1       9.970  -6.888  -2.581  0.00  0.00    +0.177 C 
ATOM     25  C   UNL     1       8.925  -7.083  -1.479  0.00  0.00    +0.179 C 
ATOM     26  O   UNL     1       7.967  -6.024  -1.541  0.00  0.00    -0.331 OA
BRANCH  24  27
ATOM     27  O   UNL     1      10.962  -7.913  -2.486  0.00  0.00    -0.386 OA
ATOM     28  H   UNL     1      11.659  -7.848  -3.153  0.00  0.00    +0.210 HD
ENDBRANCH  24  27
BRANCH  23  29
ATOM     29  O   UNL     1      11.558  -5.296  -3.476  0.00  0.00    -0.386 OA
ATOM     30  H   UNL     1      12.009  -4.442  -3.433  0.00  0.00    +0.210 HD
ENDBRANCH  23  29
BRANCH  22  31
ATOM     31  O   UNL     1      10.147  -3.156  -2.207  0.00  0.00    -0.383 OA
ATOM     32  H   UNL     1       9.517  -2.422  -2.206  0.00  0.00    +0.210 HD
ENDBRANCH  22  31
BRANCH  25  33
ATOM     33  C   UNL     1       8.217  -8.425  -1.678  0.00  0.00    +0.190 C 
BRANCH  33  34
ATOM     34  O   UNL     1       7.325  -8.659  -0.586  0.00  0.00    -0.392 OA
ATOM     35  H   UNL     1       6.841  -9.494  -0.646  0.00  0.00    +0.210 HD
ENDBRANCH  33  34
ENDBRANCH  25  33
ENDBRANCH  20  21
ENDBRANCH  10  20
TORSDOF 9
