REMARK  Name = ZINC65192720
REMARK  9 active torsions:
REMARK  status: ('A' for Active; 'I' for Inactive)
REMARK    1  A    between atoms: C_1  and  O_2
REMARK    2  A    between atoms: O_2  and  C_3
REMARK    3  A    between atoms: C_5  and  C_15
REMARK    4  A    between atoms: C_8  and  O_9
REMARK    5  A    between atoms: O_9  and  C_10
REMARK    6  A    between atoms: C_10  and  C_11
REMARK    7  A    between atoms: N_17  and  N_18
REMARK    8  A    between atoms: N_21  and  C_22
REMARK    9  A    between atoms: C_22  and  C_23
REMARK                            x       y       z     vdW  Elec       q    Type
REMARK                         _______ _______ _______ _____ _____    ______ ____
ROOT
ATOM      1  C   UNL     1      -1.201  -0.638   0.010  0.00  0.00    +0.164 A 
ATOM      2  C   UNL     1      -2.370   0.099   0.019  0.00  0.00    +0.062 A 
ATOM      3  C   UNL     1      -3.605  -0.555   0.028  0.00  0.00    +0.043 A 
ATOM      4  C   UNL     1      -3.652  -1.951   0.026  0.00  0.00    +0.037 A 
ATOM      5  C   UNL     1      -2.483  -2.681   0.017  0.00  0.00    +0.087 A 
ATOM      6  C   UNL     1      -1.255  -2.030   0.003  0.00  0.00    +0.181 A 
ATOM      7 CL   UNL     1      -2.544  -4.416   0.016  0.00  0.00    -0.080 Cl
ENDROOT
BRANCH   3   8
ATOM      8  C   UNL     1      -4.856   0.228   0.038  0.00  0.00    +0.260 C 
ATOM      9  O   UNL     1      -4.813   1.443   0.040  0.00  0.00    -0.269 OA
ATOM     10  N   UNL     1      -6.046  -0.404   0.046  0.00  0.00    -0.229 N 
ATOM     11  H   UNL     1      -6.081  -1.374   0.045  0.00  0.00    +0.173 HD
BRANCH  10  12
ATOM     12  N   UNL     1      -7.234   0.339   0.056  0.00  0.00    -0.218 N 
ATOM     13  C   UNL     1      -8.424  -0.293   0.064  0.00  0.00    +0.316 C 
ATOM     14  O   UNL     1      -9.455   0.351   0.073  0.00  0.00    -0.251 OA
ATOM     15  N   UNL     1      -8.472  -1.640   0.063  0.00  0.00    -0.298 N 
ATOM     16  H   UNL     1      -7.200   1.308   0.058  0.00  0.00    +0.174 HD
ATOM     17  H   UNL     1      -7.650  -2.155   0.056  0.00  0.00    +0.150 HD
BRANCH  15  18
ATOM     18  C   UNL     1      -9.766  -2.327   0.071  0.00  0.00    +0.109 C 
BRANCH  18  19
ATOM     19  C   UNL     1      -9.540  -3.841   0.068  0.00  0.00    +0.006 C 
ATOM     20  C   UNL     1     -10.041  -4.627  -1.146  0.00  0.00    +0.005 C 
ATOM     21  C   UNL     1     -10.772  -4.739   0.194  0.00  0.00    +0.005 C 
ENDBRANCH  18  19
ENDBRANCH  15  18
ENDBRANCH  10  12
ENDBRANCH   3   8
BRANCH   1  23
ATOM     22  C   UNL     1      -0.017   1.425   0.010  0.00  0.00    +0.277 C 
ATOM     23  O   UNL     1       0.002  -0.004   0.002  0.00  0.00    -0.491 OA
ENDBRANCH   1  23
BRANCH   6  24
ATOM     24  O   UNL     1      -0.105  -2.753  -0.012  0.00  0.00    -0.478 OA
BRANCH  24  25
ATOM     25  C   UNL     1       0.457  -3.105   1.254  0.00  0.00    +0.324 C 
BRANCH  25  26
ATOM     26  C   UNL     1       1.720  -3.899   1.039  0.00  0.00    +0.248 C 
ATOM     27  O   UNL     1       2.101  -4.140  -0.086  0.00  0.00    -0.272 OA
ATOM     28  N   UNL     1       2.425  -4.342   2.099  0.00  0.00    -0.327 N 
ATOM     29  H   UNL     1       2.120  -4.149   2.999  0.00  0.00    +0.145 HD
ATOM     30  H   UNL     1       3.238  -4.853   1.961  0.00  0.00    +0.145 HD
ENDBRANCH  25  26
ENDBRANCH  24  25
ENDBRANCH   6  24
TORSDOF 8
