REMARK  Name = ZINC32793436
REMARK  11 active torsions:
REMARK  status: ('A' for Active; 'I' for Inactive)
REMARK    1  A    between atoms: C_1  and  C_2
REMARK    2  A    between atoms: C_2  and  C_4
REMARK    3  A    between atoms: C_2  and  N_12
REMARK    4  A    between atoms: C_9  and  O_10
REMARK    5  A    between atoms: O_10  and  C_11
REMARK    6  A    between atoms: N_12  and  C_13
REMARK    7  A    between atoms: C_13  and  C_15
REMARK    8  A    between atoms: C_13  and  C_16
REMARK    9  A    between atoms: N_18  and  C_19
REMARK   10  A    between atoms: C_22  and  S_25
REMARK   11  A    between atoms: S_25  and  N_28
REMARK                            x       y       z     vdW  Elec       q    Type
REMARK                         _______ _______ _______ _____ _____    ______ ____
ROOT
ATOM      1  C   UNL     1       2.417  -2.729  -0.143  0.00  0.00    +0.203 C 
ATOM      2  O   UNL     1       3.461  -2.112  -0.157  0.00  0.00    -0.277 OA
ATOM      3  N   UNL     1       1.246  -2.071  -0.027  0.00  0.00    -0.287 N 
ATOM      4  H   UNL     1       0.305  -2.633   0.059  0.00  0.00    +0.155 HD
ENDROOT
BRANCH   3   5
ATOM      5  C   UNL     1       1.229  -0.672  -0.014  0.00  0.00    +0.033 A 
ATOM      6  C   UNL     1       0.176   0.017  -0.603  0.00  0.00    +0.025 A 
ATOM      7  C   UNL     1       0.162   1.397  -0.588  0.00  0.00    +0.030 A 
ATOM      8  C   UNL     1       1.194   2.095   0.012  0.00  0.00    +0.105 A 
ATOM      9  C   UNL     1       2.244   1.413   0.599  0.00  0.00    +0.030 A 
ATOM     10  C   UNL     1       2.264   0.032   0.588  0.00  0.00    +0.025 A 
BRANCH   8  11
ATOM     11  S   UNL     1       1.172   3.857   0.028  0.00  0.00    +0.056 S 
ATOM     12  O   UNL     1       2.521   4.279   0.171  0.00  0.00    -0.153 OA
ATOM     13  O   UNL     1       0.358   4.263  -1.063  0.00  0.00    -0.153 OA
BRANCH  11  14
ATOM     14  N   UNL     1       0.382   4.324   1.407  0.00  0.00    -0.204 NA
ATOM     15  H   UNL     1       0.346   5.422   1.455  0.00  0.00    +0.144 HD
ATOM     16  H   UNL     1       0.918   3.935   2.286  0.00  0.00    +0.144 HD
ENDBRANCH  11  14
ENDBRANCH   8  11
ENDBRANCH   3   5
BRANCH   1  17
ATOM     17  C   UNL     1       2.428  -4.232  -0.257  0.00  0.00    +0.014 C 
ATOM     18  C   UNL     1       1.783  -4.843   0.988  0.00  0.00    -0.004 C 
BRANCH  17  19
ATOM     19  N   UNL     1       3.814  -4.704  -0.372  0.00  0.00    +0.391 N 
ATOM     20  H   UNL     1       3.883  -5.707   0.073  0.00  0.00    -0.084 HD
ATOM     21  H   UNL     1       4.469  -4.013   0.179  0.00  0.00    -0.084 HD
BRANCH  19  23
ATOM     22  C   UNL     1       3.697  -6.042  -2.420  0.00  0.00    -0.009 C 
ATOM     23  C   UNL     1       4.236  -4.762  -1.778  0.00  0.00    -0.039 C 
BRANCH  23  24
ATOM     24  C   UNL     1       5.741  -4.757  -1.852  0.00  0.00    -0.020 A 
ATOM     25  C   UNL     1       6.487  -5.213  -0.783  0.00  0.00    +0.005 A 
ATOM     26  C   UNL     1       7.868  -5.209  -0.850  0.00  0.00    +0.000 A 
ATOM     27  C   UNL     1       8.506  -4.749  -1.987  0.00  0.00    +0.004 A 
ATOM     28  C   UNL     1       7.764  -4.292  -3.059  0.00  0.00    +0.046 A 
ATOM     29  C   UNL     1       6.378  -4.300  -2.996  0.00  0.00    +0.122 A 
BRANCH  29  30
ATOM     30  O   UNL     1       5.646  -3.855  -4.052  0.00  0.00    -0.495 OA
ATOM     31  C   UNL     1       6.370  -3.399  -5.197  0.00  0.00    +0.277 C 
ENDBRANCH  29  30
ENDBRANCH  23  24
ENDBRANCH  19  23
ENDBRANCH  17  19
ENDBRANCH   1  17
TORSDOF 8
