REMARK  Name = ZINC64166365
REMARK  4 active torsions:
REMARK  status: ('A' for Active; 'I' for Inactive)
REMARK    1  A    between atoms: C_6  and  C_12
REMARK    2  A    between atoms: C_12  and  N_13
REMARK    3  A    between atoms: C_17  and  C_19
REMARK    4  A    between atoms: C_22  and  C_24
REMARK                            x       y       z     vdW  Elec       q    Type
REMARK                         _______ _______ _______ _____ _____    ______ ____
ROOT
ATOM      1  N   UNL     1       5.117  -2.679   1.392  0.00  0.00    -0.293 NA
ATOM      2  C   UNL     1       5.507  -1.316   1.810  0.00  0.00    +0.085 C 
ATOM      3  C   UNL     1       5.660  -1.401   3.349  0.00  0.00    +0.017 C 
ATOM      4  C   UNL     1       6.274  -2.815   3.524  0.00  0.00    +0.025 C 
ATOM      5  C   UNL     1       5.584  -3.634   2.414  0.00  0.00    +0.094 C 
ENDROOT
BRANCH   5   6
ATOM      6  C   UNL     1       6.567  -4.599   1.802  0.00  0.00    +0.008 A 
ATOM      7  C   UNL     1       6.673  -5.932   2.023  0.00  0.00    +0.013 A 
ATOM      8  C   UNL     1       7.645  -6.644   1.361  0.00  0.00    +0.021 A 
ATOM      9  C   UNL     1       8.450  -5.910   0.504  0.00  0.00    +0.074 A 
ATOM     10  S   UNL     1       7.777  -4.269   0.685  0.00  0.00    -0.087 S 
BRANCH   9  11
ATOM     11  C   UNL     1       9.562  -6.365  -0.337  0.00  0.00    +0.248 C 
ATOM     12  O   UNL     1       9.884  -7.539  -0.337  0.00  0.00    -0.270 OA
ATOM     13  N   UNL     1      10.227  -5.484  -1.110  0.00  0.00    -0.325 N 
ATOM     14  H   UNL     1       9.971  -4.548  -1.110  0.00  0.00    +0.145 HD
ATOM     15  H   UNL     1      10.963  -5.785  -1.666  0.00  0.00    +0.145 HD
ENDBRANCH   9  11
ENDBRANCH   5   6
BRANCH   1  16
ATOM     16  C   UNL     1       3.663  -2.777   1.206  0.00  0.00    +0.115 C 
BRANCH  16  22
ATOM     17  C   UNL     1       0.958  -4.068  -3.591  0.00  0.00    +0.001 A 
ATOM     18  C   UNL     1       2.271  -4.046  -4.079  0.00  0.00    +0.002 A 
ATOM     19  C   UNL     1       3.350  -4.030  -3.267  0.00  0.00    +0.026 A 
ATOM     20  C   UNL     1       3.187  -4.035  -1.855  0.00  0.00    +0.044 A 
ATOM     21  N   UNL     1       4.061  -4.022  -0.875  0.00  0.00    -0.375 N 
ATOM     22  C   UNL     1       3.335  -4.035   0.400  0.00  0.00    +0.135 C 
ATOM     23  C   UNL     1       1.866  -4.059   0.041  0.00  0.00    +0.051 C 
ATOM     24  C   UNL     1       1.811  -4.058  -1.315  0.00  0.00    +0.014 A 
ATOM     25  C   UNL     1       0.693  -4.074  -2.263  0.00  0.00    +0.011 A 
ATOM     26 CL   UNL     1       0.523  -4.082   1.141  0.00  0.00    -0.085 Cl
ATOM     27  H   UNL     1       5.025  -4.006  -0.977  0.00  0.00    +0.160 HD
ENDBRANCH  16  22
ENDBRANCH   1  16
TORSDOF 4
