REMARK  Name = ZINC42944048
REMARK  8 active torsions:
REMARK  status: ('A' for Active; 'I' for Inactive)
REMARK    1  A    between atoms: C_1  and  C_2
REMARK    2  A    between atoms: C_2  and  C_3
REMARK    3  A    between atoms: C_3  and  C_5
REMARK    4  A    between atoms: C_3  and  N_23
REMARK    5  A    between atoms: C_5  and  C_7
REMARK    6  A    between atoms: C_5  and  S_14
REMARK    7  A    between atoms: S_14  and  C_15
REMARK    8  A    between atoms: C_19  and  N_21
REMARK                            x       y       z     vdW  Elec       q    Type
REMARK                         _______ _______ _______ _____ _____    ______ ____
ROOT
ATOM      1  C   UNL     1      -1.699  -2.122   0.122  0.00  0.00    +0.070 C 
ENDROOT
BRANCH   1   2
ATOM      2  C   UNL     1      -3.080  -2.725   0.119  0.00  0.00    -0.035 A 
ATOM      3  C   UNL     1      -3.956  -2.451   1.154  0.00  0.00    +0.007 A 
ATOM      4  C   UNL     1      -5.223  -3.003   1.152  0.00  0.00    +0.038 A 
ATOM      5  C   UNL     1      -5.615  -3.830   0.114  0.00  0.00    +0.123 A 
ATOM      6  C   UNL     1      -4.738  -4.104  -0.922  0.00  0.00    +0.038 A 
ATOM      7  C   UNL     1      -3.473  -3.547  -0.921  0.00  0.00    +0.007 A 
ATOM      8  F   UNL     1      -6.854  -4.371   0.111  0.00  0.00    -0.205 F 
ENDBRANCH   1   2
BRANCH   1   9
ATOM      9  C   UNL     1      -1.809  -0.596   0.127  0.00  0.00    -0.057 C 
BRANCH   9  10
ATOM     10  N   UNL     1      -2.562  -0.156  -1.054  0.00  0.00    +0.381 N 
ATOM     11  H   UNL     1      -2.635   0.851  -1.051  0.00  0.00    -0.090 HD
ATOM     12  H   UNL     1      -2.083  -0.456  -1.890  0.00  0.00    -0.090 HD
ATOM     13  H   UNL     1      -3.487  -0.559  -1.033  0.00  0.00    -0.090 HD
ENDBRANCH   9  10
BRANCH   9  15
ATOM     14  C   UNL     1      -0.511   1.536   0.236  0.00  0.00    +0.002 C 
ATOM     15  C   UNL     1      -0.407   0.016   0.095  0.00  0.00    -0.018 C 
ENDBRANCH   9  15
ENDBRANCH   1   9
BRANCH   1  16
ATOM     16  S   UNL     1      -0.804  -2.669   1.603  0.00  0.00    -0.079 S 
BRANCH  16  17
ATOM     17  C   UNL     1      -0.559  -4.394   1.340  0.00  0.00    +0.192 A 
ATOM     18  N   UNL     1      -0.917  -4.927   0.181  0.00  0.00    -0.207 NA
ATOM     19  C   UNL     1      -0.746  -6.226  -0.053  0.00  0.00    +0.122 A 
ATOM     20  C   UNL     1      -0.183  -7.025   0.938  0.00  0.00    +0.086 A 
ATOM     21  C   UNL     1       0.181  -6.429   2.142  0.00  0.00    +0.122 A 
ATOM     22  N   UNL     1      -0.015  -5.122   2.304  0.00  0.00    -0.207 NA
ATOM     23  N   UNL     1      -1.124  -6.777  -1.268  0.00  0.00    -0.343 N 
ATOM     24  H   UNL     1      -1.516  -6.214  -1.954  0.00  0.00    +0.144 HD
ATOM     25  H   UNL     1      -0.997  -7.724  -1.431  0.00  0.00    +0.144 HD
BRANCH  21  26
ATOM     26  N   UNL     1       0.744  -7.185   3.158  0.00  0.00    -0.343 N 
ATOM     27  H   UNL     1       0.887  -8.136   3.032  0.00  0.00    +0.144 HD
ATOM     28  H   UNL     1       0.996  -6.763   3.995  0.00  0.00    +0.144 HD
ENDBRANCH  21  26
ENDBRANCH  16  17
ENDBRANCH   1  16
TORSDOF 7
