REMARK  Name = ZINC63112128
REMARK  11 active torsions:
REMARK  status: ('A' for Active; 'I' for Inactive)
REMARK    1  A    between atoms: C_1  and  N_2
REMARK    2  A    between atoms: N_2  and  C_3
REMARK    3  A    between atoms: N_2  and  C_4
REMARK    4  A    between atoms: C_7  and  C_10
REMARK    5  A    between atoms: C_10  and  C_12
REMARK    6  A    between atoms: C_10  and  C_30
REMARK    7  A    between atoms: C_12  and  N_13
REMARK    8  A    between atoms: C_14  and  C_16
REMARK    9  A    between atoms: C_16  and  C_17
REMARK   10  A    between atoms: C_17  and  C_19
REMARK   11  A    between atoms: C_17  and  N_26
REMARK                            x       y       z     vdW  Elec       q    Type
REMARK                         _______ _______ _______ _____ _____    ______ ____
ROOT
ATOM      1  C   UNL     1      -5.968  -2.164   1.036  0.00  0.00    +0.116 C 
ENDROOT
BRANCH   1   2
ATOM      2  N   UNL     1      -7.125  -3.056   1.142  0.00  0.00    -0.314 N 
ATOM      3  C   UNL     1      -7.894  -3.035   2.248  0.00  0.00    +0.215 C 
ATOM      4  O   UNL     1      -7.627  -2.278   3.158  0.00  0.00    -0.276 OA
ATOM      5  H   UNL     1      -7.338  -3.662   0.414  0.00  0.00    +0.149 HD
BRANCH   3   6
ATOM      6  C   UNL     1      -9.084  -3.953   2.357  0.00  0.00    +0.123 C 
BRANCH   6   7
ATOM      7  C   UNL     1      -9.779  -3.731   3.701  0.00  0.00    +0.116 C 
BRANCH   7   8
ATOM      8  C   UNL     1     -10.894  -4.731   3.862  0.00  0.00    +0.008 A 
ATOM      9  C   UNL     1     -11.336  -5.455   2.771  0.00  0.00    +0.008 A 
ATOM     10  C   UNL     1     -12.359  -6.373   2.918  0.00  0.00    +0.000 A 
ATOM     11  C   UNL     1     -12.941  -6.568   4.157  0.00  0.00    +0.003 A 
ATOM     12  C   UNL     1     -12.501  -5.846   5.249  0.00  0.00    +0.039 A 
ATOM     13  C   UNL     1     -11.473  -4.930   5.104  0.00  0.00    +0.128 A 
ATOM     14  F   UNL     1     -11.039  -4.226   6.172  0.00  0.00    -0.205 F 
ENDBRANCH   7   8
BRANCH   7  15
ATOM     15  N   UNL     1     -10.330  -2.374   3.748  0.00  0.00    -0.292 N 
ATOM     16  C   UNL     1     -11.291  -2.006   2.877  0.00  0.00    +0.298 C 
ATOM     17  O   UNL     1     -11.766  -2.826   2.115  0.00  0.00    -0.253 OA
ATOM     18  N   UNL     1     -11.725  -0.731   2.852  0.00  0.00    -0.313 N 
ATOM     19  H   UNL     1     -10.003  -1.740   4.405  0.00  0.00    +0.151 HD
ATOM     20  H   UNL     1     -11.347  -0.077   3.460  0.00  0.00    +0.146 HD
ATOM     21  H   UNL     1     -12.417  -0.467   2.225  0.00  0.00    +0.146 HD
ENDBRANCH   7  15
ENDBRANCH   6   7
ENDBRANCH   3   6
ENDBRANCH   1   2
BRANCH   1  22
ATOM     22  C   UNL     1      -5.273  -2.387  -0.308  0.00  0.00    +0.064 C 
BRANCH  22  23
ATOM     23  C   UNL     1      -6.196  -1.975  -1.425  0.00  0.00    -0.033 C 
ATOM     24  C   UNL     1      -6.667  -2.758  -2.422  0.00  0.00    -0.000 A 
ATOM     25  C   UNL     1      -6.467  -4.174  -2.752  0.00  0.00    +0.010 A 
ATOM     26  C   UNL     1      -7.086  -4.688  -3.840  0.00  0.00    +0.001 A 
ATOM     27  C   UNL     1      -7.910  -3.903  -4.658  0.00  0.00    +0.002 A 
ATOM     28  C   UNL     1      -8.142  -2.595  -4.419  0.00  0.00    +0.026 A 
ATOM     29  C   UNL     1      -7.543  -1.952  -3.301  0.00  0.00    +0.043 A 
ATOM     30  N   UNL     1      -7.611  -0.717  -2.865  0.00  0.00    -0.380 N 
ATOM     31  C   UNL     1      -6.790  -0.603  -1.655  0.00  0.00    +0.145 C 
ATOM     32  H   UNL     1      -8.122  -0.000  -3.273  0.00  0.00    +0.160 HD
ENDBRANCH  22  23
BRANCH  22  36
ATOM     33  C   UNL     1      -1.703  -0.042  -0.474  0.00  0.00    +0.029 A 
ATOM     34  C   UNL     1      -1.634  -1.424  -0.590  0.00  0.00    +0.023 A 
ATOM     35  C   UNL     1      -2.789  -2.179  -0.535  0.00  0.00    +0.006 A 
ATOM     36  C   UNL     1      -4.014  -1.560  -0.366  0.00  0.00    -0.039 A 
ATOM     37  C   UNL     1      -4.087  -0.184  -0.251  0.00  0.00    +0.006 A 
ATOM     38  C   UNL     1      -2.935   0.577  -0.299  0.00  0.00    +0.023 A 
BRANCH  33  40
ATOM     39  C   UNL     1      -0.612   2.182  -0.400  0.00  0.00    +0.129 C 
ATOM     40  N   UNL     1      -0.537   0.725  -0.528  0.00  0.00    -0.336 N 
ATOM     41  C   UNL     1       0.761   0.071  -0.713  0.00  0.00    +0.129 C 
ENDBRANCH  33  40
ENDBRANCH  22  36
ENDBRANCH   1  22
TORSDOF 9
