REMARK  Name = ZINC67469638
REMARK  9 active torsions:
REMARK  status: ('A' for Active; 'I' for Inactive)
REMARK    1  A    between atoms: C_1  and  C_2
REMARK    2  A    between atoms: C_2  and  C_4
REMARK    3  A    between atoms: C_2  and  N_15
REMARK    4  A    between atoms: C_8  and  S_10
REMARK    5  A    between atoms: S_10  and  N_13
REMARK    6  A    between atoms: N_13  and  C_14
REMARK    7  A    between atoms: N_18  and  N_19
REMARK    8  A    between atoms: C_20  and  C_22
REMARK    9  A    between atoms: C_27  and  O_28
REMARK                            x       y       z     vdW  Elec       q    Type
REMARK                         _______ _______ _______ _____ _____    ______ ____
ROOT
ATOM      1  N   UNL     1       0.688  -0.476  -1.203  0.00  0.00    -0.292 N 
ATOM      2  C   UNL     1       0.006  -0.608  -2.358  0.00  0.00    +0.316 C 
ATOM      3  O   UNL     1      -1.178  -0.335  -2.400  0.00  0.00    -0.251 OA
ATOM      4  N   UNL     1       0.637  -1.043  -3.467  0.00  0.00    -0.218 N 
ATOM      5  H   UNL     1       1.632  -0.695  -1.170  0.00  0.00    +0.151 HD
ATOM      6  H   UNL     1       0.146  -1.137  -4.299  0.00  0.00    +0.174 HD
ENDROOT
BRANCH   4   7
ATOM      7  N   UNL     1       2.001  -1.358  -3.419  0.00  0.00    -0.229 N 
ATOM      8  C   UNL     1       2.632  -1.792  -4.528  0.00  0.00    +0.264 C 
ATOM      9  O   UNL     1       2.017  -1.911  -5.570  0.00  0.00    -0.269 OA
ATOM     10  H   UNL     1       2.492  -1.263  -2.588  0.00  0.00    +0.173 HD
BRANCH   8  11
ATOM     11  C   UNL     1       4.069  -2.124  -4.477  0.00  0.00    +0.079 A 
ATOM     12  C   UNL     1       4.778  -1.995  -3.280  0.00  0.00    +0.017 A 
ATOM     13  C   UNL     1       6.119  -2.307  -3.240  0.00  0.00    +0.001 A 
ATOM     14  C   UNL     1       6.769  -2.748  -4.381  0.00  0.00    +0.004 A 
ATOM     15  C   UNL     1       6.081  -2.880  -5.570  0.00  0.00    +0.046 A 
ATOM     16  C   UNL     1       4.729  -2.576  -5.628  0.00  0.00    +0.129 A 
BRANCH  16  17
ATOM     17  O   UNL     1       4.050  -2.712  -6.794  0.00  0.00    -0.506 OA
ATOM     18  H   UNL     1       4.053  -1.917  -7.346  0.00  0.00    +0.292 HD
ENDBRANCH  16  17
ENDBRANCH   8  11
ENDBRANCH   4   7
BRANCH   1  20
ATOM     19  C   UNL     1      -0.019   1.526   0.010  0.00  0.00    +0.033 C 
ATOM     20  C   UNL     1       0.002  -0.004   0.002  0.00  0.00    +0.102 C 
BRANCH  20  21
ATOM     21  C   UNL     1       0.731  -0.503   1.223  0.00  0.00    -0.026 A 
ATOM     22  C   UNL     1       2.113  -0.514   1.247  0.00  0.00    +0.005 A 
ATOM     23  C   UNL     1       2.782  -0.972   2.366  0.00  0.00    +0.002 A 
ATOM     24  C   UNL     1       2.068  -1.419   3.463  0.00  0.00    +0.028 A 
ATOM     25  C   UNL     1       0.686  -1.407   3.439  0.00  0.00    +0.106 A 
ATOM     26  C   UNL     1       0.018  -0.945   2.321  0.00  0.00    +0.034 A 
BRANCH  25  27
ATOM     27  S   UNL     1      -0.223  -1.978   4.837  0.00  0.00    +0.058 S 
ATOM     28  O   UNL     1      -1.500  -2.374   4.356  0.00  0.00    -0.153 OA
ATOM     29  O   UNL     1       0.633  -2.864   5.545  0.00  0.00    -0.153 OA
BRANCH  27  30
ATOM     30  N   UNL     1      -0.474  -0.672   5.824  0.00  0.00    -0.193 NA
ATOM     31  C   UNL     1      -1.305   0.444   5.365  0.00  0.00    +0.127 C 
ATOM     32  H   UNL     1      -0.071  -0.646   6.706  0.00  0.00    +0.148 HD
ENDBRANCH  27  30
ENDBRANCH  25  27
ENDBRANCH  20  21
ENDBRANCH   1  20
TORSDOF 7
