REMARK  Name = ZINC35599254
REMARK  8 active torsions:
REMARK  status: ('A' for Active; 'I' for Inactive)
REMARK    1  A    between atoms: C_1  and  C_2
REMARK    2  A    between atoms: C_2  and  C_3
REMARK    3  A    between atoms: C_3  and  C_5
REMARK    4  A    between atoms: C_3  and  N_7
REMARK    5  A    between atoms: C_5  and  O_6
REMARK    6  A    between atoms: N_7  and  S_8
REMARK    7  A    between atoms: S_8  and  C_11
REMARK    8  A    between atoms: C_12  and  N_19
REMARK                            x       y       z     vdW  Elec       q    Type
REMARK                         _______ _______ _______ _____ _____    ______ ____
ROOT
ATOM      1  S   UNL     1      -4.717   0.335  -1.283  0.00  0.00    +0.062 S 
ATOM      2  O   UNL     1      -5.406   0.829  -2.423  0.00  0.00    -0.153 OA
ATOM      3  O   UNL     1      -5.273  -0.650  -0.424  0.00  0.00    -0.153 OA
ENDROOT
BRANCH   1   4
ATOM      4  C   UNL     1      -4.347   1.732  -0.274  0.00  0.00    +0.140 A 
ATOM      5  C   UNL     1      -4.228   1.583   1.102  0.00  0.00    +0.053 A 
ATOM      6  C   UNL     1      -3.936   2.686   1.894  0.00  0.00    +0.040 A 
ATOM      7  C   UNL     1      -3.764   3.928   1.312  0.00  0.00    +0.021 A 
ATOM      8  C   UNL     1      -3.884   4.072  -0.059  0.00  0.00    +0.032 A 
ATOM      9  C   UNL     1      -4.169   2.974  -0.851  0.00  0.00    +0.047 A 
ATOM     10 BR   UNL     1      -4.322   3.176  -2.725  0.00  0.00    -0.048 Br
ATOM     11 BR   UNL     1      -3.367   5.430   2.389  0.00  0.00    -0.050 Br
BRANCH   5  12
ATOM     12  N   UNL     1      -4.403   0.327   1.688  0.00  0.00    -0.356 N 
ATOM     13  H   UNL     1      -4.229  -0.476   1.174  0.00  0.00    +0.142 HD
ATOM     14  H   UNL     1      -4.698   0.259   2.610  0.00  0.00    +0.142 HD
ENDBRANCH   5  12
ENDBRANCH   1   4
BRANCH   1  15
ATOM     15  N   UNL     1      -3.275  -0.271  -1.827  0.00  0.00    -0.185 NA
ATOM     16  H   UNL     1      -3.067  -0.251  -2.775  0.00  0.00    +0.148 HD
BRANCH  15  17
ATOM     17  C   UNL     1      -2.314  -0.838  -0.878  0.00  0.00    +0.102 C 
BRANCH  17  19
ATOM     18  C   UNL     1      -0.659   0.985  -1.302  0.00  0.00    +0.005 C 
ATOM     19  C   UNL     1      -0.891  -0.526  -1.346  0.00  0.00    +0.019 C 
ENDBRANCH  17  19
BRANCH  17  20
ATOM     20  C   UNL     1      -2.505  -2.354  -0.803  0.00  0.00    +0.176 C 
BRANCH  20  21
ATOM     21  O   UNL     1      -2.180  -2.939  -2.066  0.00  0.00    -0.393 OA
ATOM     22  H   UNL     1      -2.278  -3.900  -2.092  0.00  0.00    +0.209 HD
ENDBRANCH  20  21
ENDBRANCH  17  20
ENDBRANCH  15  17
ENDBRANCH   1  15
TORSDOF 7
