REMARK  Name = ZINC40172182
REMARK  7 active torsions:
REMARK  status: ('A' for Active; 'I' for Inactive)
REMARK    1  A    between atoms: C_1  and  C_2
REMARK    2  A    between atoms: C_2  and  C_4
REMARK    3  A    between atoms: C_2  and  N_19
REMARK    4  A    between atoms: N_6  and  C_7
REMARK    5  A    between atoms: C_8  and  C_16
REMARK    6  A    between atoms: C_23  and  S_24
REMARK    7  A    between atoms: S_24  and  C_25
REMARK                            x       y       z     vdW  Elec       q    Type
REMARK                         _______ _______ _______ _____ _____    ______ ____
ROOT
ATOM      1  C   UNL     1       0.707  -0.490  -1.238  0.00  0.00    +0.240 C 
ATOM      2  O   UNL     1       1.704  -1.174  -1.140  0.00  0.00    -0.273 OA
ATOM      3  N   UNL     1       0.231  -0.164  -2.456  0.00  0.00    -0.278 N 
ATOM      4  H   UNL     1      -0.566   0.383  -2.534  0.00  0.00    +0.155 HD
ENDROOT
BRANCH   3   5
ATOM      5  C   UNL     1       0.880  -0.611  -3.597  0.00  0.00    +0.084 A 
ATOM      6  C   UNL     1       0.540  -0.373  -4.919  0.00  0.00    +0.068 A 
ATOM      7  C   UNL     1       1.391  -0.960  -5.939  0.00  0.00    -0.023 A 
ATOM      8  C   UNL     1       2.425  -1.679  -5.451  0.00  0.00    -0.004 A 
ATOM      9  S   UNL     1       2.262  -1.560  -3.693  0.00  0.00    -0.077 S 
ATOM     10  C   UNL     1       3.470  -2.404  -6.241  0.00  0.00    +0.043 C 
ATOM     11  C   UNL     1       2.979  -2.525  -7.691  0.00  0.00    +0.005 C 
ATOM     12  C   UNL     1       2.476  -1.157  -8.161  0.00  0.00    +0.005 C 
ATOM     13  C   UNL     1       1.174  -0.805  -7.438  0.00  0.00    +0.037 C 
BRANCH   6  14
ATOM     14  C   UNL     1      -0.629   0.438  -5.273  0.00  0.00    +0.244 C 
ATOM     15  O   UNL     1      -0.514   1.641  -5.418  0.00  0.00    -0.270 OA
ATOM     16  N   UNL     1      -1.831  -0.149  -5.438  0.00  0.00    -0.325 N 
ATOM     17  H   UNL     1      -1.923  -1.107  -5.322  0.00  0.00    +0.145 HD
ATOM     18  H   UNL     1      -2.604   0.388  -5.672  0.00  0.00    +0.145 HD
ENDBRANCH   6  14
ENDBRANCH   3   5
BRANCH   1  20
ATOM     19  C   UNL     1      -0.019   1.526   0.010  0.00  0.00    +0.041 C 
ATOM     20  C   UNL     1       0.002  -0.004   0.002  0.00  0.00    +0.175 C 
BRANCH  20  21
ATOM     21  N   UNL     1       0.711  -0.489   1.189  0.00  0.00    -0.279 N 
ATOM     22  C   UNL     1       2.008  -0.215   1.518  0.00  0.00    +0.216 A 
ATOM     23  N   UNL     1       2.278  -0.825   2.645  0.00  0.00    -0.113 NA
ATOM     24  N   UNL     1       1.126  -1.510   3.054  0.00  0.00    -0.121 NA
ATOM     25  C   UNL     1       0.188  -1.291   2.165  0.00  0.00    +0.193 A 
ATOM     26  N   UNL     1       2.887   0.571   0.784  0.00  0.00    -0.328 N 
ATOM     27  H   UNL     1       2.594   0.984  -0.043  0.00  0.00    +0.145 HD
ATOM     28  H   UNL     1       3.794   0.709   1.100  0.00  0.00    +0.145 HD
BRANCH  25  29
ATOM     29  S   UNL     1      -1.456  -1.923   2.216  0.00  0.00    -0.089 S 
ATOM     30  C   UNL     1      -1.504  -2.897   3.745  0.00  0.00    +0.093 C 
ENDBRANCH  25  29
ENDBRANCH  20  21
ENDBRANCH   1  20
TORSDOF 5
