REMARK  Name = ZINC67483773
REMARK  10 active torsions:
REMARK  status: ('A' for Active; 'I' for Inactive)
REMARK    1  A    between atoms: C_1  and  C_2
REMARK    2  A    between atoms: C_2  and  C_3
REMARK    3  A    between atoms: C_2  and  C_4
REMARK    4  A    between atoms: C_4  and  C_5
REMARK    5  A    between atoms: C_5  and  C_7
REMARK    6  A    between atoms: C_5  and  N_24
REMARK    7  A    between atoms: N_9  and  C_10
REMARK    8  A    between atoms: C_10  and  C_11
REMARK    9  A    between atoms: N_16  and  C_17
REMARK   10  A    between atoms: C_17  and  C_18
REMARK                            x       y       z     vdW  Elec       q    Type
REMARK                         _______ _______ _______ _____ _____    ______ ____
ROOT
ATOM      1  C   UNL     1      -3.653  -0.788  -1.137  0.00  0.00    +0.233 C 
ATOM      2  O   UNL     1      -4.096  -1.649  -1.868  0.00  0.00    -0.274 OA
ATOM      3  N   UNL     1      -4.493  -0.010  -0.426  0.00  0.00    -0.315 N 
ATOM      4  H   UNL     1      -4.138   0.678   0.159  0.00  0.00    +0.149 HD
ENDROOT
BRANCH   1   5
ATOM      5  C   UNL     1      -2.164  -0.589  -1.025  0.00  0.00    +0.161 C 
BRANCH   5   6
ATOM      6  N   UNL     1      -1.502  -1.179  -2.191  0.00  0.00    -0.288 N 
ATOM      7  C   UNL     1      -1.636  -2.495  -2.448  0.00  0.00    +0.298 C 
ATOM      8  O   UNL     1      -2.306  -3.193  -1.712  0.00  0.00    -0.253 OA
ATOM      9  N   UNL     1      -1.028  -3.038  -3.522  0.00  0.00    -0.313 N 
ATOM     10  H   UNL     1      -0.968  -0.622  -2.779  0.00  0.00    +0.151 HD
ATOM     11  H   UNL     1      -0.494  -2.481  -4.109  0.00  0.00    +0.146 HD
ATOM     12  H   UNL     1      -1.125  -3.985  -3.706  0.00  0.00    +0.146 HD
ENDBRANCH   5   6
BRANCH   5  13
ATOM     13  C   UNL     1      -1.653  -1.268   0.248  0.00  0.00    +0.034 C 
BRANCH  13  15
ATOM     14  C   UNL     1       0.021   0.538   0.667  0.00  0.00    +0.007 C 
ATOM     15  C   UNL     1      -0.165  -0.961   0.428  0.00  0.00    -0.015 C 
ATOM     16  C   UNL     1       0.374  -1.740   1.630  0.00  0.00    +0.007 C 
ENDBRANCH  13  15
ENDBRANCH   5  13
ENDBRANCH   1   5
BRANCH   3  17
ATOM     17  C   UNL     1      -5.941  -0.204  -0.536  0.00  0.00    +0.089 C 
BRANCH  17  18
ATOM     18  C   UNL     1      -6.657   0.752   0.420  0.00  0.00    -0.051 C 
ATOM     19  C   UNL     1      -8.161   0.410   0.476  0.00  0.00    -0.016 C 
ATOM     20  C   UNL     1      -8.834   1.806   0.551  0.00  0.00    -0.020 C 
ATOM     21  C   UNL     1      -7.899   2.653  -0.348  0.00  0.00    -0.078 C 
ATOM     22  N   UNL     1      -6.538   2.137  -0.072  0.00  0.00    +0.383 N 
ATOM     23  H   UNL     1      -6.091   2.709   0.628  0.00  0.00    -0.081 HD
BRANCH  22  24
ATOM     24  C   UNL     1      -5.741   2.156  -1.306  0.00  0.00    -0.075 C 
BRANCH  24  25
ATOM     25  C   UNL     1      -5.450   3.604  -1.703  0.00  0.00    -0.028 C 
ATOM     26  C   UNL     1      -6.736   4.266  -2.200  0.00  0.00    +0.002 C 
ATOM     27  C   UNL     1      -6.445   5.714  -2.597  0.00  0.00    +0.000 C 
ATOM     28  C   UNL     1      -5.396   5.737  -3.711  0.00  0.00    +0.000 C 
ATOM     29  C   UNL     1      -4.109   5.075  -3.213  0.00  0.00    +0.000 C 
ATOM     30  C   UNL     1      -4.401   3.627  -2.817  0.00  0.00    +0.002 C 
ENDBRANCH  24  25
ENDBRANCH  22  24
ENDBRANCH  17  18
ENDBRANCH   3  17
TORSDOF 8
