REMARK  Name = ZINC37804614
REMARK  11 active torsions:
REMARK  status: ('A' for Active; 'I' for Inactive)
REMARK    1  A    between atoms: C_1  and  C_2
REMARK    2  A    between atoms: C_2  and  C_3
REMARK    3  A    between atoms: C_2  and  N_4
REMARK    4  A    between atoms: C_7  and  N_10
REMARK    5  A    between atoms: N_10  and  C_11
REMARK    6  A    between atoms: C_12  and  C_14
REMARK    7  A    between atoms: C_14  and  C_16
REMARK    8  A    between atoms: C_14  and  N_22
REMARK    9  A    between atoms: C_16  and  C_17
REMARK   10  A    between atoms: C_17  and  S_18
REMARK   11  A    between atoms: S_18  and  C_21
REMARK                            x       y       z     vdW  Elec       q    Type
REMARK                         _______ _______ _______ _____ _____    ______ ____
ROOT
ATOM      1  N   UNL     1       1.705  -2.396   4.818  0.00  0.00    -0.303 N 
ATOM      2  C   UNL     1       3.101  -1.965   4.925  0.00  0.00    +0.132 C 
ATOM      3  C   UNL     1       1.167  -3.180   5.773  0.00  0.00    +0.201 C 
ATOM      4  O   UNL     1       0.011  -3.537   5.685  0.00  0.00    -0.277 OA
ENDROOT
BRANCH   1   8
ATOM      5  N   UNL     1       0.713  -0.491   1.192  0.00  0.00    +0.381 N 
ATOM      6  C   UNL     1       0.030  -0.009   2.399  0.00  0.00    -0.077 C 
ATOM      7  C   UNL     1       0.811  -0.445   3.640  0.00  0.00    +0.004 C 
ATOM      8  C   UNL     1       0.893  -1.974   3.674  0.00  0.00    +0.072 C 
ATOM      9  C   UNL     1       1.540  -2.469   2.377  0.00  0.00    +0.004 C 
ATOM     10  C   UNL     1       0.732  -1.958   1.183  0.00  0.00    -0.077 C 
ATOM     11  H   UNL     1       1.660  -0.143   1.183  0.00  0.00    -0.081 HD
BRANCH   5  13
ATOM     12  C   UNL     1      -0.019   1.526   0.010  0.00  0.00    -0.014 C 
ATOM     13  C   UNL     1       0.002  -0.004   0.002  0.00  0.00    -0.075 C 
ATOM     14  C   UNL     1       0.718  -0.497  -1.257  0.00  0.00    -0.014 C 
ENDBRANCH   5  13
ENDBRANCH   1   8
BRANCH   3  15
ATOM     15  C   UNL     1       2.002  -3.614   6.950  0.00  0.00    +0.014 C 
BRANCH  15  16
ATOM     16  N   UNL     1       1.120  -4.029   8.050  0.00  0.00    +0.386 N 
ATOM     17  H   UNL     1       1.679  -4.319   8.838  0.00  0.00    -0.089 HD
ATOM     18  H   UNL     1       0.533  -3.253   8.321  0.00  0.00    -0.089 HD
ATOM     19  H   UNL     1       0.542  -4.798   7.746  0.00  0.00    -0.089 HD
ENDBRANCH  15  16
BRANCH  15  20
ATOM     20  C   UNL     1       2.891  -4.790   6.540  0.00  0.00    +0.015 C 
BRANCH  20  21
ATOM     21  C   UNL     1       3.827  -5.149   7.695  0.00  0.00    +0.164 C 
BRANCH  21  22
ATOM     22  S   UNL     1       4.881  -6.543   7.208  0.00  0.00    -0.034 S 
ATOM     23  O   UNL     1       4.057  -7.684   7.016  0.00  0.00    -0.175 OA
ATOM     24  O   UNL     1       5.729  -6.117   6.151  0.00  0.00    -0.175 OA
ATOM     25  C   UNL     1       5.898  -6.812   8.686  0.00  0.00    +0.194 C 
ENDBRANCH  21  22
ENDBRANCH  20  21
ENDBRANCH  15  20
ENDBRANCH   3  15
TORSDOF 7
