REMARK  Name = ZINC05945319
REMARK  13 active torsions:
REMARK  status: ('A' for Active; 'I' for Inactive)
REMARK    1  A    between atoms: C_1  and  C_2
REMARK    2  A    between atoms: C_2  and  C_32
REMARK    3  A    between atoms: C_4  and  N_9
REMARK    4  A    between atoms: C_6  and  C_7
REMARK    5  A    between atoms: C_6  and  C_8
REMARK    6  A    between atoms: N_9  and  C_10
REMARK    7  A    between atoms: N_9  and  C_19
REMARK    8  A    between atoms: C_10  and  C_11
REMARK    9  A    between atoms: C_16  and  O_17
REMARK   10  A    between atoms: O_17  and  C_18
REMARK   11  A    between atoms: C_19  and  N_21
REMARK   12  A    between atoms: N_21  and  C_22
REMARK   13  A    between atoms: C_27  and  C_28
REMARK                            x       y       z     vdW  Elec       q    Type
REMARK                         _______ _______ _______ _____ _____    ______ ____
ROOT
ATOM      1  N   UNL     1      -1.028   0.752  -1.973  0.00  0.00    -0.305 N 
ENDROOT
BRANCH   1   5
ATOM      2  C   UNL     1      -3.419   4.368  -1.188  0.00  0.00    -0.010 C 
ATOM      3  C   UNL     1      -1.927   4.264  -0.848  0.00  0.00    -0.072 C 
ATOM      4  C   UNL     1      -1.533   2.794  -0.730  0.00  0.00    +0.009 C 
ATOM      5  C   UNL     1      -1.430   2.157  -2.116  0.00  0.00    +0.073 C 
ATOM      6  C   UNL     1      -0.366   2.907  -2.917  0.00  0.00    +0.009 C 
ATOM      7  C   UNL     1      -0.749   4.377  -3.063  0.00  0.00    -0.072 C 
ATOM      8  C   UNL     1       0.482   5.126  -3.620  0.00  0.00    -0.010 C 
ATOM      9  C   UNL     1      -1.870   4.515  -4.100  0.00  0.00    -0.010 C 
ATOM     10  C   UNL     1      -1.729   4.912   0.540  0.00  0.00    -0.010 C 
ATOM     11  N   UNL     1      -1.098   5.063  -1.790  0.00  0.00    +0.386 N 
ATOM     12  H   UNL     1      -0.223   5.309  -1.312  0.00  0.00    -0.084 HD
ATOM     13  H   UNL     1      -1.615   5.919  -2.021  0.00  0.00    -0.084 HD
ENDBRANCH   1   5
BRANCH   1  14
ATOM     14  C   UNL     1       0.142   0.443  -1.380  0.00  0.00    +0.138 C 
ATOM     15  S   UNL     1       0.596  -1.196  -1.186  0.00  0.00    -0.018 S 
BRANCH  14  16
ATOM     16  N   UNL     1       0.954   1.424  -0.938  0.00  0.00    -0.296 N 
ATOM     17  H   UNL     1       0.756   2.349  -1.151  0.00  0.00    +0.154 HD
BRANCH  16  18
ATOM     18  C   UNL     1       2.082   1.108  -0.174  0.00  0.00    +0.044 A 
ATOM     19  C   UNL     1       2.813  -0.040  -0.454  0.00  0.00    +0.024 A 
ATOM     20  C   UNL     1       3.929  -0.347   0.300  0.00  0.00    +0.002 A 
ATOM     21  C   UNL     1       4.312   0.481   1.339  0.00  0.00    +0.001 A 
ATOM     22  C   UNL     1       3.584   1.621   1.624  0.00  0.00    +0.014 A 
ATOM     23  C   UNL     1       2.470   1.937   0.870  0.00  0.00    +0.076 A 
BRANCH  23  24
ATOM     24  C   UNL     1       1.676   3.179   1.181  0.00  0.00    +0.419 C 
ATOM     25  F   UNL     1       2.257   3.845   2.266  0.00  0.00    -0.166 F 
ATOM     26  F   UNL     1       1.672   4.022   0.065  0.00  0.00    -0.166 F 
ATOM     27  F   UNL     1       0.361   2.825   1.503  0.00  0.00    -0.166 F 
ENDBRANCH  23  24
ENDBRANCH  16  18
ENDBRANCH  14  16
ENDBRANCH   1  14
BRANCH   1  28
ATOM     28  C   UNL     1      -1.898  -0.313  -2.477  0.00  0.00    +0.145 C 
BRANCH  28  29
ATOM     29  C   UNL     1      -2.563   0.141  -3.751  0.00  0.00    +0.011 A 
ATOM     30  C   UNL     1      -3.671   0.965  -3.696  0.00  0.00    +0.009 A 
ATOM     31  C   UNL     1      -4.281   1.383  -4.864  0.00  0.00    +0.001 A 
ATOM     32  C   UNL     1      -3.785   0.976  -6.090  0.00  0.00    +0.004 A 
ATOM     33  C   UNL     1      -2.678   0.153  -6.149  0.00  0.00    +0.046 A 
ATOM     34  C   UNL     1      -2.061  -0.264  -4.979  0.00  0.00    +0.125 A 
BRANCH  34  35
ATOM     35  O   UNL     1      -0.968  -1.070  -5.035  0.00  0.00    -0.495 OA
ATOM     36  C   UNL     1      -0.506  -1.447  -6.333  0.00  0.00    +0.277 C 
ENDBRANCH  34  35
ENDBRANCH  28  29
ENDBRANCH   1  28
TORSDOF 8
