REMARK  Name = ZINC12602769
REMARK  8 active torsions:
REMARK  status: ('A' for Active; 'I' for Inactive)
REMARK    1  A    between atoms: C_1  and  N_2
REMARK    2  A    between atoms: C_3  and  C_12
REMARK    3  A    between atoms: C_5  and  C_7
REMARK    4  A    between atoms: C_20  and  C_22
REMARK    5  A    between atoms: C_22  and  O_23
REMARK    6  A    between atoms: O_23  and  C_24
REMARK    7  A    between atoms: N_26  and  C_27
REMARK    8  A    between atoms: C_31  and  C_33
REMARK                            x       y       z     vdW  Elec       q    Type
REMARK                         _______ _______ _______ _____ _____    ______ ____
ROOT
ATOM      1  C   UNL     1      -5.654   0.387   2.603  0.00  0.00    +0.024 C 
ATOM      2  C   UNL     1      -4.305   1.027   2.945  0.00  0.00    -0.068 C 
ATOM      3  C   UNL     1      -4.824   2.972   1.599  0.00  0.00    -0.078 C 
ATOM      4  C   UNL     1      -6.188   2.389   1.219  0.00  0.00    -0.015 C 
ATOM      5  C   UNL     1      -6.086   0.858   1.209  0.00  0.00    -0.007 C 
ATOM      6  C   UNL     1      -5.010   0.446   0.197  0.00  0.00    -0.008 C 
ATOM      7  C   UNL     1      -3.678   1.083   0.605  0.00  0.00    -0.030 C 
ATOM      8  N   UNL     1      -3.846   1.889   1.834  0.00  0.00    +0.384 N 
ATOM      9  H   UNL     1      -2.942   2.304   2.087  0.00  0.00    -0.081 HD
ENDROOT
BRANCH   1  12
ATOM     10  C   UNL     1      -7.197  -1.625   0.820  0.00  0.00    +0.172 C 
ATOM     11  N   UNL     1      -6.196  -1.979   1.830  0.00  0.00    -0.271 N 
ATOM     12  C   UNL     1      -5.518  -1.113   2.612  0.00  0.00    +0.041 A 
ATOM     13  C   UNL     1      -4.689  -1.835   3.403  0.00  0.00    +0.048 A 
ATOM     14  C   UNL     1      -4.874  -3.187   3.098  0.00  0.00    +0.066 A 
ATOM     15  N   UNL     1      -5.774  -3.275   2.153  0.00  0.00    -0.176 NA
BRANCH  14  16
ATOM     16  C   UNL     1      -4.155  -4.344   3.743  0.00  0.00    +0.040 C 
ATOM     17  C   UNL     1      -3.838  -4.014   5.217  0.00  0.00    +0.010 C 
ATOM     18  C   UNL     1      -2.447  -4.650   5.458  0.00  0.00    +0.001 C 
ATOM     19  C   UNL     1      -1.713  -4.386   4.120  0.00  0.00    +0.001 C 
ATOM     20  C   UNL     1      -2.804  -4.580   3.046  0.00  0.00    +0.010 C 
ENDBRANCH  14  16
ENDBRANCH   1  12
BRANCH   7  21
ATOM     21  C   UNL     1      -2.646  -0.015   0.868  0.00  0.00    +0.219 C 
BRANCH  21  22
ATOM     22  O   UNL     1      -1.355   0.590   1.141  0.00  0.00    -0.452 OA
BRANCH  22  23
ATOM     23  C   UNL     1      -0.330  -0.245   1.395  0.00  0.00    +0.404 C 
ATOM     24  O   UNL     1      -0.509  -1.447   1.388  0.00  0.00    -0.226 OA
ATOM     25  N   UNL     1       0.897   0.251   1.651  0.00  0.00    -0.251 N 
ATOM     26  H   UNL     1       1.060   1.204   1.574  0.00  0.00    +0.158 HD
BRANCH  25  27
ATOM     27  C   UNL     1       1.935  -0.608   2.029  0.00  0.00    +0.037 A 
ATOM     28  C   UNL     1       1.648  -1.807   2.668  0.00  0.00    +0.023 A 
ATOM     29  C   UNL     1       2.675  -2.655   3.035  0.00  0.00    +0.002 A 
ATOM     30  C   UNL     1       3.987  -2.307   2.775  0.00  0.00    +0.012 A 
ATOM     31  C   UNL     1       4.277  -1.112   2.143  0.00  0.00    +0.057 A 
ATOM     32  C   UNL     1       3.254  -0.261   1.770  0.00  0.00    +0.035 A 
BRANCH  31  33
ATOM     33  C   UNL     1       5.709  -0.736   1.863  0.00  0.00    +0.417 C 
ATOM     34  F   UNL     1       6.224  -0.018   2.948  0.00  0.00    -0.166 F 
ATOM     35  F   UNL     1       6.466  -1.896   1.669  0.00  0.00    -0.166 F 
ATOM     36  F   UNL     1       5.766   0.056   0.711  0.00  0.00    -0.166 F 
ENDBRANCH  31  33
ENDBRANCH  25  27
ENDBRANCH  22  23
ENDBRANCH  21  22
ENDBRANCH   7  21
TORSDOF 7
