REMARK  Name = ZINC24716703
REMARK  7 active torsions:
REMARK  status: ('A' for Active; 'I' for Inactive)
REMARK    1  A    between atoms: C_1  and  C_2
REMARK    2  A    between atoms: C_2  and  C_4
REMARK    3  A    between atoms: C_2  and  N_18
REMARK    4  A    between atoms: N_10  and  C_11
REMARK    5  A    between atoms: N_18  and  C_19
REMARK    6  A    between atoms: N_18  and  C_20
REMARK    7  A    between atoms: C_20  and  C_21
REMARK                            x       y       z     vdW  Elec       q    Type
REMARK                         _______ _______ _______ _____ _____    ______ ____
ROOT
ATOM      1  C   UNL     1       1.897   1.282  -0.048  0.00  0.00    +0.123 A 
ATOM      2  N   UNL     1       1.979  -0.016   0.190  0.00  0.00    -0.201 NA
ATOM      3  C   UNL     1       0.896  -0.783   0.090  0.00  0.00    +0.217 A 
ATOM      4  N   UNL     1      -0.269  -0.242  -0.249  0.00  0.00    -0.181 NA
ATOM      5  C   UNL     1      -0.348   1.062  -0.488  0.00  0.00    +0.224 A 
ATOM      6  N   UNL     1       0.740   1.823  -0.387  0.00  0.00    -0.201 NA
ATOM      7  N   UNL     1      -1.556   1.628  -0.848  0.00  0.00    -0.284 N 
ATOM      8  N   UNL     1       0.983  -2.137   0.339  0.00  0.00    -0.327 N 
ATOM      9  H   UNL     1      -1.639   2.719  -0.964  0.00  0.00    +0.155 HD
ATOM     10  H   UNL     1       0.087  -2.770   0.257  0.00  0.00    +0.145 HD
ATOM     11  H   UNL     1       1.948  -2.584   0.620  0.00  0.00    +0.145 HD
ENDROOT
BRANCH   7  12
ATOM     12  C   UNL     1      -2.672   0.814  -1.063  0.00  0.00    +0.034 A 
ATOM     13  C   UNL     1      -2.515  -0.454  -1.608  0.00  0.00    +0.023 A 
ATOM     14  C   UNL     1      -3.619  -1.257  -1.814  0.00  0.00    +0.002 A 
ATOM     15  C   UNL     1      -4.882  -0.796  -1.490  0.00  0.00    +0.000 A 
ATOM     16  C   UNL     1      -5.043   0.468  -0.953  0.00  0.00    +0.002 A 
ATOM     17  C   UNL     1      -3.942   1.274  -0.739  0.00  0.00    +0.023 A 
ENDBRANCH   7  12
BRANCH   1  19
ATOM     18  C   UNL     1       4.014   1.933  -1.162  0.00  0.00    -0.005 C 
ATOM     19  C   UNL     1       3.126   2.146   0.065  0.00  0.00    -0.002 C 
BRANCH  19  20
ATOM     20  N   UNL     1       3.871   1.781   1.278  0.00  0.00    +0.387 N 
ATOM     21  C   UNL     1       5.074   2.611   1.426  0.00  0.00    -0.095 C 
ATOM     22  H   UNL     1       4.193   0.734   1.174  0.00  0.00    -0.081 HD
BRANCH  20  23
ATOM     23  C   UNL     1       3.017   1.875   2.469  0.00  0.00    -0.040 C 
BRANCH  23  24
ATOM     24  C   UNL     1       3.730   1.264   3.648  0.00  0.00    -0.029 A 
ATOM     25  C   UNL     1       3.417  -0.018   4.057  0.00  0.00    +0.004 A 
ATOM     26  C   UNL     1       4.075  -0.580   5.135  0.00  0.00    +0.000 A 
ATOM     27  C   UNL     1       5.039   0.144   5.812  0.00  0.00    +0.003 A 
ATOM     28  C   UNL     1       5.349   1.429   5.409  0.00  0.00    +0.038 A 
ATOM     29  C   UNL     1       4.695   1.990   4.325  0.00  0.00    +0.125 A 
ATOM     30  F   UNL     1       4.997   3.247   3.930  0.00  0.00    -0.205 F 
ENDBRANCH  23  24
ENDBRANCH  20  23
ENDBRANCH  19  20
ENDBRANCH   1  19
TORSDOF 5
