REMARK  Name = ZINC37663889
REMARK  7 active torsions:
REMARK  status: ('A' for Active; 'I' for Inactive)
REMARK    1  A    between atoms: C_1  and  N_2
REMARK    2  A    between atoms: N_2  and  C_3
REMARK    3  A    between atoms: N_2  and  C_16
REMARK    4  A    between atoms: C_3  and  C_4
REMARK    5  A    between atoms: N_6  and  C_7
REMARK    6  A    between atoms: C_8  and  N_15
REMARK    7  A    between atoms: C_16  and  C_17
REMARK                            x       y       z     vdW  Elec       q    Type
REMARK                         _______ _______ _______ _____ _____    ______ ____
ROOT
ATOM      1  C   UNL     1       2.082   0.006   1.122  0.00  0.00    +0.201 C 
ATOM      2  O   UNL     1       2.317   0.875   0.309  0.00  0.00    -0.278 OA
ATOM      3  N   UNL     1       3.087  -0.739   1.621  0.00  0.00    -0.284 N 
ATOM      4  H   UNL     1       2.892  -1.486   2.209  0.00  0.00    +0.155 HD
ENDROOT
BRANCH   3   5
ATOM      5  C   UNL     1       4.416  -0.436   1.290  0.00  0.00    +0.073 A 
ATOM      6  C   UNL     1       5.369  -0.278   2.296  0.00  0.00    +0.049 A 
ATOM      7  C   UNL     1       6.681   0.021   1.963  0.00  0.00    +0.044 A 
ATOM      8  C   UNL     1       7.043   0.162   0.635  0.00  0.00    +0.044 A 
ATOM      9  C   UNL     1       6.098   0.005  -0.364  0.00  0.00    +0.042 A 
ATOM     10  C   UNL     1       4.788  -0.299  -0.040  0.00  0.00    +0.065 A 
ATOM     11 CL   UNL     1       3.607  -0.502  -1.296  0.00  0.00    -0.082 Cl
ATOM     12 CL   UNL     1       8.686   0.537   0.220  0.00  0.00    -0.083 Cl
BRANCH   6  13
ATOM     13  N   UNL     1       5.001  -0.420   3.638  0.00  0.00    -0.356 N 
ATOM     14  H   UNL     1       4.083  -0.629   3.870  0.00  0.00    +0.142 HD
ATOM     15  H   UNL     1       5.665  -0.310   4.337  0.00  0.00    +0.142 HD
ENDBRANCH   6  13
ENDBRANCH   3   5
BRANCH   1  16
ATOM     16  C   UNL     1       0.665  -0.239   1.575  0.00  0.00    +0.019 C 
BRANCH  16  18
ATOM     17  C   UNL     1       0.072   2.070   1.309  0.00  0.00    -0.095 C 
ATOM     18  N   UNL     1      -0.237   0.696   0.890  0.00  0.00    +0.389 N 
ATOM     19  H   UNL     1      -0.113   0.613  -0.108  0.00  0.00    -0.081 HD
BRANCH  18  20
ATOM     20  C   UNL     1      -1.628   0.379   1.239  0.00  0.00    +0.036 C 
BRANCH  20  21
ATOM     21  C   UNL     1      -2.572   1.277   0.437  0.00  0.00    +0.376 C 
ATOM     22  F   UNL     1      -2.272   1.171  -0.925  0.00  0.00    -0.173 F 
ATOM     23  F   UNL     1      -3.895   0.876   0.656  0.00  0.00    -0.173 F 
ATOM     24  F   UNL     1      -2.413   2.605   0.848  0.00  0.00    -0.173 F 
ENDBRANCH  20  21
ENDBRANCH  18  20
ENDBRANCH  16  18
ENDBRANCH   1  16
TORSDOF 6
