REMARK  Name = ZINC64981610
REMARK  8 active torsions:
REMARK  status: ('A' for Active; 'I' for Inactive)
REMARK    1  A    between atoms: C_1  and  N_2
REMARK    2  A    between atoms: N_15  and  N_16
REMARK    3  A    between atoms: C_17  and  C_18
REMARK    4  A    between atoms: C_20  and  O_33
REMARK    5  A    between atoms: C_21  and  O_25
REMARK    6  A    between atoms: O_25  and  C_26
REMARK    7  A    between atoms: C_26  and  C_27
REMARK    8  A    between atoms: O_33  and  C_34
REMARK                            x       y       z     vdW  Elec       q    Type
REMARK                         _______ _______ _______ _____ _____    ______ ____
ROOT
ATOM      1  N   UNL     1       0.091  -2.294   5.583  0.00  0.00    -0.187 NA
ATOM      2  C   UNL     1       0.101  -2.033   6.854  0.00  0.00    +0.138 C 
ENDROOT
BRANCH   1  17
ATOM      3  C   UNL     1      -0.018   1.461   0.010  0.00  0.00    +0.151 C 
ATOM      4  N   UNL     1       0.002  -0.004   0.002  0.00  0.00    -0.326 N 
ATOM      5  C   UNL     1       0.007  -0.788  -1.140  0.00  0.00    +0.053 A 
ATOM      6  C   UNL     1      -0.003  -0.470  -2.494  0.00  0.00    +0.026 A 
ATOM      7  C   UNL     1       0.006  -1.474  -3.439  0.00  0.00    +0.002 A 
ATOM      8  C   UNL     1       0.025  -2.805  -3.054  0.00  0.00    +0.001 A 
ATOM      9  C   UNL     1       0.036  -3.141  -1.717  0.00  0.00    +0.012 A 
ATOM     10  C   UNL     1       0.028  -2.137  -0.752  0.00  0.00    +0.029 A 
ATOM     11  C   UNL     1       0.035  -2.145   0.721  0.00  0.00    +0.138 A 
ATOM     12  C   UNL     1       0.024  -0.794   1.125  0.00  0.00    +0.165 A 
ATOM     13  N   UNL     1       0.034  -0.524   2.427  0.00  0.00    -0.192 NA
ATOM     14  C   UNL     1       0.056  -1.526   3.296  0.00  0.00    +0.256 A 
ATOM     15  N   UNL     1       0.070  -2.791   2.892  0.00  0.00    -0.111 NA
ATOM     16  N   UNL     1       0.052  -3.099   1.640  0.00  0.00    -0.142 NA
ATOM     17  N   UNL     1       0.067  -1.247   4.652  0.00  0.00    -0.204 N 
ATOM     18  H   UNL     1       0.058  -0.326   4.958  0.00  0.00    +0.177 HD
ENDBRANCH   1  17
BRANCH   2  19
ATOM     19  C   UNL     1       0.126  -3.135   7.833  0.00  0.00    -0.001 A 
ATOM     20  C   UNL     1       0.131  -2.855   9.203  0.00  0.00    +0.059 A 
ATOM     21  C   UNL     1       0.154  -3.892  10.117  0.00  0.00    +0.163 A 
ATOM     22  C   UNL     1       0.173  -5.212   9.672  0.00  0.00    +0.176 A 
ATOM     23  C   UNL     1       0.168  -5.491   8.313  0.00  0.00    +0.064 A 
ATOM     24  C   UNL     1       0.139  -4.461   7.395  0.00  0.00    +0.028 A 
ATOM     25 BR   UNL     1       0.195  -7.285   7.718  0.00  0.00    -0.046 Br
BRANCH  21  26
ATOM     26  O   UNL     1       0.159  -3.623  11.450  0.00  0.00    -0.491 OA
ATOM     27  C   UNL     1       0.139  -2.247  11.834  0.00  0.00    +0.277 C 
ENDBRANCH  21  26
BRANCH  22  28
ATOM     28  O   UNL     1       0.196  -6.231  10.573  0.00  0.00    -0.483 OA
BRANCH  28  29
ATOM     29  C   UNL     1      -1.066  -6.737  11.012  0.00  0.00    +0.264 C 
BRANCH  29  30
ATOM     30  C   UNL     1      -0.843  -7.853  12.000  0.00  0.00    -0.010 A 
ATOM     31  C   UNL     1      -0.728  -9.157  11.556  0.00  0.00    +0.007 A 
ATOM     32  C   UNL     1      -0.524 -10.180  12.463  0.00  0.00    +0.000 A 
ATOM     33  C   UNL     1      -0.434  -9.900  13.813  0.00  0.00    +0.000 A 
ATOM     34  C   UNL     1      -0.548  -8.595  14.257  0.00  0.00    +0.000 A 
ATOM     35  C   UNL     1      -0.748  -7.572  13.350  0.00  0.00    +0.007 A 
ENDBRANCH  29  30
ENDBRANCH  28  29
ENDBRANCH  22  28
ENDBRANCH   2  19
TORSDOF 6
