REMARK  Name = ZINC22074857
REMARK  11 active torsions:
REMARK  status: ('A' for Active; 'I' for Inactive)
REMARK    1  A    between atoms: C_1  and  C_2
REMARK    2  A    between atoms: C_2  and  C_4
REMARK    3  A    between atoms: C_2  and  O_20
REMARK    4  A    between atoms: C_4  and  N_5
REMARK    5  A    between atoms: N_5  and  C_6
REMARK    6  A    between atoms: C_6  and  C_7
REMARK    7  A    between atoms: C_7  and  N_8
REMARK    8  A    between atoms: N_8  and  C_9
REMARK    9  A    between atoms: C_9  and  C_10
REMARK   10  A    between atoms: C_15  and  O_16
REMARK   11  A    between atoms: O_16  and  C_17
REMARK                            x       y       z     vdW  Elec       q    Type
REMARK                         _______ _______ _______ _____ _____    ______ ____
ROOT
ATOM      1  N   UNL     1      -0.169   1.187  -4.858  0.00  0.00    -0.314 NA
ATOM      2  H   UNL     1       0.863   1.568  -4.883  0.00  0.00    +0.122 HD
ENDROOT
BRANCH   1   3
ATOM      3  C   UNL     1      -0.829   1.643  -3.628  0.00  0.00    +0.062 C 
BRANCH   3   4
ATOM      4  C   UNL     1      -0.062   1.117  -2.413  0.00  0.00    -0.067 C 
BRANCH   4   5
ATOM      5  N   UNL     1      -0.723   1.572  -1.182  0.00  0.00    +0.382 N 
ATOM      6  H   UNL     1      -1.755   1.192  -1.174  0.00  0.00    -0.086 HD
ATOM      7  H   UNL     1      -0.738   2.672  -1.176  0.00  0.00    -0.086 HD
BRANCH   5   8
ATOM      8  C   UNL     1      -0.013   1.086   0.008  0.00  0.00    -0.051 C 
BRANCH   8  10
ATOM      9  C   UNL     1       0.011   1.072   2.506  0.00  0.00    +0.035 C 
ATOM     10  C   UNL     1      -0.729   1.579   1.267  0.00  0.00    +0.095 C 
BRANCH  10  11
ATOM     11  O   UNL     1      -0.748   3.008   1.275  0.00  0.00    -0.394 OA
ATOM     12  H   UNL     1      -1.240   3.556   0.457  0.00  0.00    +0.210 HD
ENDBRANCH  10  11
ENDBRANCH   8  10
ENDBRANCH   5   8
ENDBRANCH   4   5
ENDBRANCH   3   4
ENDBRANCH   1   3
BRANCH   1  13
ATOM     13  C   UNL     1      -0.879   1.674  -6.048  0.00  0.00    +0.120 C 
BRANCH  13  14
ATOM     14  C   UNL     1      -0.174   1.188  -7.288  0.00  0.00    +0.010 A 
ATOM     15  C   UNL     1       0.676   2.033  -7.976  0.00  0.00    +0.023 A 
ATOM     16  C   UNL     1       1.324   1.588  -9.114  0.00  0.00    +0.019 A 
ATOM     17  C   UNL     1       1.123   0.295  -9.566  0.00  0.00    +0.034 A 
ATOM     18  C   UNL     1       0.274  -0.553  -8.882  0.00  0.00    +0.061 A 
ATOM     19  C   UNL     1      -0.373  -0.109  -7.736  0.00  0.00    +0.138 A 
ATOM     20 BR   UNL     1       0.000  -2.319  -9.500  0.00  0.00    -0.046 Br
ATOM     21 BR   UNL     1       2.486   2.747 -10.053  0.00  0.00    -0.050 Br
BRANCH  19  22
ATOM     22  O   UNL     1      -1.204  -0.944  -7.057  0.00  0.00    -0.494 OA
ATOM     23  C   UNL     1      -2.579  -0.946  -7.445  0.00  0.00    +0.277 C 
ENDBRANCH  19  22
ENDBRANCH  13  14
ENDBRANCH   1  13
TORSDOF 9
