REMARK  Name = ZINC52830885
REMARK  9 active torsions:
REMARK  status: ('A' for Active; 'I' for Inactive)
REMARK    1  A    between atoms: C_1  and  C_2
REMARK    2  A    between atoms: C_2  and  C_3
REMARK    3  A    between atoms: C_2  and  N_19
REMARK    4  A    between atoms: N_5  and  C_6
REMARK    5  A    between atoms: C_11  and  S_12
REMARK    6  A    between atoms: S_12  and  C_13
REMARK    7  A    between atoms: N_19  and  C_20
REMARK    8  A    between atoms: N_19  and  C_21
REMARK    9  A    between atoms: C_21  and  C_22
REMARK                            x       y       z     vdW  Elec       q    Type
REMARK                         _______ _______ _______ _____ _____    ______ ____
ROOT
ATOM      1  C   UNL     1      -0.957  -1.355   0.082  0.00  0.00    +0.203 C 
ATOM      2  O   UNL     1      -0.883  -2.280  -0.699  0.00  0.00    -0.277 OA
ATOM      3  N   UNL     1      -2.115  -1.106   0.725  0.00  0.00    -0.286 N 
ATOM      4  H   UNL     1      -2.182  -0.349   1.327  0.00  0.00    +0.155 HD
ENDROOT
BRANCH   3   5
ATOM      5  C   UNL     1      -3.221  -1.941   0.523  0.00  0.00    +0.047 A 
ATOM      6  C   UNL     1      -3.334  -2.676  -0.647  0.00  0.00    +0.024 A 
ATOM      7  C   UNL     1      -4.426  -3.499  -0.845  0.00  0.00    +0.002 A 
ATOM      8  C   UNL     1      -5.410  -3.594   0.123  0.00  0.00    +0.001 A 
ATOM      9  C   UNL     1      -5.308  -2.865   1.292  0.00  0.00    +0.017 A 
ATOM     10  C   UNL     1      -4.211  -2.040   1.501  0.00  0.00    +0.034 A 
BRANCH  10  11
ATOM     11  S   UNL     1      -4.073  -1.114   2.994  0.00  0.00    -0.088 S 
BRANCH  11  12
ATOM     12  C   UNL     1      -5.452  -1.646   3.954  0.00  0.00    +0.013 A 
ATOM     13  C   UNL     1      -5.337  -2.756   4.784  0.00  0.00    +0.015 A 
ATOM     14  C   UNL     1      -6.419  -3.170   5.535  0.00  0.00    +0.001 A 
ATOM     15  C   UNL     1      -7.617  -2.482   5.462  0.00  0.00    +0.000 A 
ATOM     16  C   UNL     1      -7.735  -1.377   4.638  0.00  0.00    +0.001 A 
ATOM     17  C   UNL     1      -6.655  -0.954   3.888  0.00  0.00    +0.015 A 
ENDBRANCH  11  12
ENDBRANCH  10  11
ENDBRANCH   3   5
BRANCH   1  19
ATOM     18  C   UNL     1       0.197   0.735  -0.588  0.00  0.00    -0.004 C 
ATOM     19  C   UNL     1       0.248  -0.484   0.334  0.00  0.00    +0.017 C 
BRANCH  19  20
ATOM     20  N   UNL     1       1.471  -1.251   0.065  0.00  0.00    +0.391 N 
ATOM     21  C   UNL     1       1.550  -2.389   0.991  0.00  0.00    -0.094 C 
ATOM     22  H   UNL     1       1.453  -1.592  -0.885  0.00  0.00    -0.080 HD
BRANCH  20  23
ATOM     23  C   UNL     1       2.643  -0.385   0.253  0.00  0.00    +0.019 C 
BRANCH  23  24
ATOM     24  C   UNL     1       3.890  -1.135  -0.141  0.00  0.00    +0.194 C 
ATOM     25  O   UNL     1       3.810  -2.278  -0.539  0.00  0.00    -0.278 OA
ATOM     26  N   UNL     1       5.093  -0.535  -0.052  0.00  0.00    -0.331 N 
ATOM     27  H   UNL     1       5.157   0.379   0.266  0.00  0.00    +0.145 HD
ATOM     28  H   UNL     1       5.896  -1.017  -0.305  0.00  0.00    +0.145 HD
ENDBRANCH  23  24
ENDBRANCH  20  23
ENDBRANCH  19  20
ENDBRANCH   1  19
TORSDOF 7
