REMARK  Name = ZINC62014742
REMARK  6 active torsions:
REMARK  status: ('A' for Active; 'I' for Inactive)
REMARK    1  A    between atoms: C_1  and  C_2
REMARK    2  A    between atoms: C_2  and  C_4
REMARK    3  A    between atoms: C_2  and  N_11
REMARK    4  A    between atoms: N_11  and  C_12
REMARK    5  A    between atoms: N_11  and  C_13
REMARK    6  A    between atoms: C_18  and  C_19
REMARK                            x       y       z     vdW  Elec       q    Type
REMARK                         _______ _______ _______ _____ _____    ______ ____
ROOT
ATOM      1  C   UNL     1      -0.285  -0.866   2.067  0.00  0.00    +0.040 A 
ATOM      2  C   UNL     1      -0.299  -2.250   2.186  0.00  0.00    +0.025 A 
ATOM      3  C   UNL     1      -0.973  -2.847   3.232  0.00  0.00    +0.022 A 
ATOM      4  C   UNL     1      -1.640  -2.073   4.169  0.00  0.00    +0.042 A 
ATOM      5  C   UNL     1      -1.637  -0.698   4.066  0.00  0.00    +0.033 A 
ATOM      6  C   UNL     1      -0.954  -0.080   3.016  0.00  0.00    +0.034 A 
ATOM      7 CL   UNL     1      -2.485  -2.839   5.478  0.00  0.00    -0.084 Cl
ENDROOT
BRANCH   6   8
ATOM      8  C   UNL     1      -0.941   1.392   2.903  0.00  0.00    +0.096 C 
ATOM      9  N   UNL     1      -2.089   2.063   2.816  0.00  0.00    -0.387 N 
ATOM     10  N   UNL     1       0.218   2.049   2.889  0.00  0.00    -0.345 N 
ATOM     11  H   UNL     1      -2.934   1.593   2.899  0.00  0.00    +0.157 HD
ATOM     12  H   UNL     1       1.055   1.558   2.901  0.00  0.00    +0.144 HD
ATOM     13  H   UNL     1       0.226   3.019   2.866  0.00  0.00    +0.144 HD
ATOM     14  H   UNL     1      -2.080   3.022   2.669  0.00  0.00    +0.157 HD
ENDBRANCH   6   8
BRANCH   1  15
ATOM     15  N   UNL     1       0.394  -0.263   1.014  0.00  0.00    -0.326 N 
ATOM     16  C   UNL     1       1.839  -0.040   1.107  0.00  0.00    +0.130 C 
BRANCH  15  18
ATOM     17  C   UNL     1       0.597   0.948  -1.101  0.00  0.00    +0.033 C 
ATOM     18  C   UNL     1      -0.335   0.149  -0.187  0.00  0.00    +0.102 C 
BRANCH  18  19
ATOM     19  C   UNL     1      -0.831  -1.072  -0.918  0.00  0.00    -0.009 A 
ATOM     20  C   UNL     1      -0.124  -2.257  -0.842  0.00  0.00    +0.007 A 
ATOM     21  C   UNL     1      -0.578  -3.378  -1.512  0.00  0.00    +0.000 A 
ATOM     22  C   UNL     1      -1.739  -3.313  -2.259  0.00  0.00    +0.001 A 
ATOM     23  C   UNL     1      -2.447  -2.129  -2.337  0.00  0.00    +0.020 A 
ATOM     24  C   UNL     1      -1.996  -1.008  -1.661  0.00  0.00    +0.046 A 
ATOM     25 CL   UNL     1      -2.888   0.478  -1.752  0.00  0.00    -0.083 Cl
ENDBRANCH  18  19
ENDBRANCH  15  18
ENDBRANCH   1  15
TORSDOF 4
