REMARK  Name = ZINC39976909
REMARK  8 active torsions:
REMARK  status: ('A' for Active; 'I' for Inactive)
REMARK    1  A    between atoms: C_1  and  C_2
REMARK    2  A    between atoms: N_4  and  C_5
REMARK    3  A    between atoms: C_8  and  S_11
REMARK    4  A    between atoms: S_11  and  N_14
REMARK    5  A    between atoms: C_16  and  N_26
REMARK    6  A    between atoms: N_26  and  C_27
REMARK    7  A    between atoms: C_32  and  O_33
REMARK    8  A    between atoms: O_33  and  C_34
REMARK                            x       y       z     vdW  Elec       q    Type
REMARK                         _______ _______ _______ _____ _____    ______ ____
ROOT
ATOM      1  N   UNL     1      -1.980  -6.902  -1.086  0.00  0.00    -0.110 NA
ATOM      2  C   UNL     1      -2.270  -8.169  -1.024  0.00  0.00    +0.192 C 
ATOM      3  C   UNL     1      -3.711  -8.627  -1.031  0.00  0.00    +0.237 C 
ATOM      4  N   UNL     1      -3.971 -10.073  -0.958  0.00  0.00    -0.359 N 
ATOM      5  C   UNL     1      -2.954 -10.887  -0.891  0.00  0.00    +0.063 A 
ATOM      6  C   UNL     1      -3.161 -12.341  -0.817  0.00  0.00    +0.027 A 
ATOM      7  C   UNL     1      -2.083 -13.151  -0.750  0.00  0.00    +0.002 A 
ATOM      8  C   UNL     1      -0.774 -12.641  -0.748  0.00  0.00    +0.002 A 
ATOM      9  C   UNL     1      -0.505 -11.319  -0.814  0.00  0.00    +0.030 A 
ATOM     10  C   UNL     1      -1.562 -10.375  -0.888  0.00  0.00    +0.089 A 
ATOM     11  N   UNL     1      -1.294  -9.088  -0.957  0.00  0.00    -0.226 NA
ATOM     12  H   UNL     1      -4.880 -10.414  -0.960  0.00  0.00    +0.162 HD
ENDROOT
BRANCH   1  13
ATOM     13  S   UNL     1      -0.398  -6.414  -1.085  0.00  0.00    +0.100 S 
ATOM     14  O   UNL     1       0.174  -6.886  -2.296  0.00  0.00    -0.146 OA
ATOM     15  O   UNL     1       0.130  -6.753   0.190  0.00  0.00    -0.146 OA
BRANCH  13  19
ATOM     16  C   UNL     1      -0.392  -1.891  -1.327  0.00  0.00    +0.033 A 
ATOM     17  C   UNL     1      -0.414  -2.522  -0.090  0.00  0.00    +0.025 A 
ATOM     18  C   UNL     1      -0.416  -3.901  -0.019  0.00  0.00    +0.031 A 
ATOM     19  C   UNL     1      -0.396  -4.654  -1.179  0.00  0.00    +0.113 A 
ATOM     20  C   UNL     1      -0.373  -4.030  -2.412  0.00  0.00    +0.031 A 
ATOM     21  C   UNL     1      -0.378  -2.651  -2.490  0.00  0.00    +0.025 A 
BRANCH  16  25
ATOM     22  C   UNL     1      -1.138   1.632  -2.420  0.00  0.00    +0.109 C 
ATOM     23  C   UNL     1      -1.051   0.128  -2.398  0.00  0.00    +0.214 C 
ATOM     24  O   UNL     1      -1.575  -0.523  -3.277  0.00  0.00    -0.276 OA
ATOM     25  N   UNL     1      -0.391  -0.494  -1.402  0.00  0.00    -0.286 N 
ATOM     26  H   UNL     1       0.086   0.026  -0.736  0.00  0.00    +0.155 HD
ENDBRANCH  16  25
ENDBRANCH  13  19
ENDBRANCH   1  13
BRANCH   3  27
ATOM     27  N   UNL     1      -4.387  -7.994   0.104  0.00  0.00    -0.315 N 
ATOM     28  H   UNL     1      -3.950  -7.955   0.969  0.00  0.00    +0.149 HD
BRANCH  27  29
ATOM     29  C   UNL     1      -5.664  -7.445  -0.060  0.00  0.00    +0.071 A 
ATOM     30  C   UNL     1      -6.253  -7.417  -1.316  0.00  0.00    +0.026 A 
ATOM     31  C   UNL     1      -7.514  -6.875  -1.476  0.00  0.00    +0.002 A 
ATOM     32  C   UNL     1      -8.191  -6.359  -0.386  0.00  0.00    +0.004 A 
ATOM     33  C   UNL     1      -7.611  -6.383   0.868  0.00  0.00    +0.048 A 
ATOM     34  C   UNL     1      -6.349  -6.930   1.038  0.00  0.00    +0.148 A 
BRANCH  34  35
ATOM     35  O   UNL     1      -5.779  -6.959   2.272  0.00  0.00    -0.432 OA
BRANCH  35  36
ATOM     36  C   UNL     1      -6.540  -6.413   3.351  0.00  0.00    +0.541 C 
ATOM     37  F   UNL     1      -6.812  -5.065   3.095  0.00  0.00    -0.166 F 
ATOM     38  F   UNL     1      -7.743  -7.117   3.476  0.00  0.00    -0.166 F 
ENDBRANCH  35  36
ENDBRANCH  34  35
ENDBRANCH  27  29
ENDBRANCH   3  27
TORSDOF 7
