REMARK  Name = ZINC36643678
REMARK  11 active torsions:
REMARK  status: ('A' for Active; 'I' for Inactive)
REMARK    1  A    between atoms: C_1  and  C_2
REMARK    2  A    between atoms: C_4  and  C_35
REMARK    3  A    between atoms: N_11  and  C_12
REMARK    4  A    between atoms: C_12  and  C_13
REMARK    5  A    between atoms: C_13  and  C_14
REMARK    6  A    between atoms: C_14  and  N_15
REMARK    7  A    between atoms: N_15  and  C_16
REMARK    8  A    between atoms: N_15  and  C_17
REMARK    9  A    between atoms: C_18  and  C_20
REMARK   10  A    between atoms: C_23  and  S_26
REMARK   11  A    between atoms: S_26  and  N_29
REMARK                            x       y       z     vdW  Elec       q    Type
REMARK                         _______ _______ _______ _____ _____    ______ ____
ROOT
ATOM      1  C   UNL     1      -1.005   0.974  -1.075  0.00  0.00    +0.044 C 
ATOM      2  C   UNL     1      -0.791  -0.506  -0.893  0.00  0.00    -0.049 A 
ATOM      3  C   UNL     1      -0.863  -1.363  -1.982  0.00  0.00    +0.009 A 
ATOM      4  C   UNL     1      -0.672  -2.713  -1.845  0.00  0.00    -0.024 A 
ATOM      5  C   UNL     1      -0.395  -3.279  -0.579  0.00  0.00    +0.083 A 
ATOM      6  C   UNL     1      -0.329  -2.376   0.507  0.00  0.00    +0.041 A 
ATOM      7  C   UNL     1      -0.516  -1.024   0.359  0.00  0.00    +0.020 A 
ATOM      8  S   UNL     1       0.028  -3.454   1.874  0.00  0.00    -0.052 S 
ATOM      9  C   UNL     1       0.068  -4.983   0.950  0.00  0.00    +0.168 A 
ATOM     10  N   UNL     1      -0.183  -4.577  -0.274  0.00  0.00    -0.224 NA
ATOM     11  N   UNL     1       0.302  -6.268   1.407  0.00  0.00    -0.246 N 
ATOM     12  C   UNL     1       0.290  -7.303   0.544  0.00  0.00    +0.252 C 
ATOM     13  O   UNL     1       0.147  -7.101  -0.645  0.00  0.00    -0.270 OA
ATOM     14  C   UNL     1      -0.759  -3.605  -3.057  0.00  0.00    +0.046 C 
ENDROOT
BRANCH  12  15
ATOM     15  C   UNL     1       0.452  -8.684   1.045  0.00  0.00    +0.037 A 
ATOM     16  C   UNL     1      -0.166  -9.076   2.234  0.00  0.00    +0.015 A 
ATOM     17  C   UNL     1      -0.011 -10.367   2.696  0.00  0.00    +0.029 A 
ATOM     18  C   UNL     1       0.755 -11.272   1.983  0.00  0.00    +0.106 A 
ATOM     19  C   UNL     1       1.370 -10.891   0.804  0.00  0.00    +0.029 A 
ATOM     20  C   UNL     1       1.219  -9.605   0.328  0.00  0.00    +0.015 A 
BRANCH  18  21
ATOM     21  S   UNL     1       0.948 -12.919   2.581  0.00  0.00    +0.061 S 
ATOM     22  O   UNL     1       2.155 -13.415   2.020  0.00  0.00    -0.153 OA
ATOM     23  O   UNL     1       0.722 -12.871   3.983  0.00  0.00    -0.153 OA
BRANCH  21  24
ATOM     24  N   UNL     1      -0.281 -13.821   1.934  0.00  0.00    -0.177 NA
ATOM     25  C   UNL     1      -1.566 -13.948   2.635  0.00  0.00    +0.109 C 
ATOM     26  C   UNL     1      -2.692 -13.548   1.677  0.00  0.00    +0.017 C 
ATOM     27  C   UNL     1      -2.589 -14.383   0.398  0.00  0.00    +0.003 C 
ATOM     28  C   UNL     1      -1.249 -14.104  -0.288  0.00  0.00    +0.017 C 
ATOM     29  C   UNL     1      -0.109 -14.506   0.645  0.00  0.00    +0.109 C 
ENDBRANCH  21  24
ENDBRANCH  18  21
ENDBRANCH  12  15
BRANCH  11  30
ATOM     30  C   UNL     1       0.563  -6.503   2.830  0.00  0.00    +0.114 C 
BRANCH  30  31
ATOM     31  C   UNL     1      -0.741  -6.365   3.617  0.00  0.00    +0.001 C 
BRANCH  31  32
ATOM     32  C   UNL     1      -0.500  -6.757   5.076  0.00  0.00    -0.078 C 
BRANCH  32  33
ATOM     33  N   UNL     1      -1.753  -6.625   5.832  0.00  0.00    +0.376 N 
ATOM     34  C   UNL     1      -2.735  -7.593   5.326  0.00  0.00    -0.097 C 
ATOM     35  C   UNL     1      -1.496  -6.886   7.255  0.00  0.00    -0.097 C 
ATOM     36  H   UNL     1      -2.115  -5.689   5.722  0.00  0.00    -0.083 HD
ENDBRANCH  32  33
ENDBRANCH  31  32
ENDBRANCH  30  31
ENDBRANCH  11  30
TORSDOF 7
