REMARK  Name = ZINC65579735
REMARK  12 active torsions:
REMARK  status: ('A' for Active; 'I' for Inactive)
REMARK    1  A    between atoms: C_1  and  C_2
REMARK    2  A    between atoms: C_2  and  C_3
REMARK    3  A    between atoms: C_3  and  C_4
REMARK    4  A    between atoms: C_4  and  C_5
REMARK    5  A    between atoms: C_5  and  C_6
REMARK    6  A    between atoms: C_5  and  N_24
REMARK    7  A    between atoms: N_8  and  C_9
REMARK    8  A    between atoms: C_9  and  C_10
REMARK    9  A    between atoms: C_10  and  C_11
REMARK   10  A    between atoms: C_10  and  N_19
REMARK   11  A    between atoms: C_14  and  O_17
REMARK   12  A    between atoms: O_17  and  C_18
REMARK                            x       y       z     vdW  Elec       q    Type
REMARK                         _______ _______ _______ _____ _____    ______ ____
ROOT
ATOM      1  C   UNL     1      -1.641  -6.634  -0.742  0.00  0.00    +0.233 C 
ATOM      2  O   UNL     1      -2.638  -6.200  -1.279  0.00  0.00    -0.274 OA
ATOM      3  N   UNL     1      -1.585  -6.727   0.601  0.00  0.00    -0.315 N 
ATOM      4  H   UNL     1      -0.787  -7.074   1.030  0.00  0.00    +0.149 HD
ENDROOT
BRANCH   1   5
ATOM      5  C   UNL     1      -0.464  -7.069  -1.577  0.00  0.00    +0.160 C 
BRANCH   5   6
ATOM      6  N   UNL     1      -0.552  -6.453  -2.904  0.00  0.00    -0.288 N 
ATOM      7  C   UNL     1      -1.618  -6.697  -3.691  0.00  0.00    +0.298 C 
ATOM      8  O   UNL     1      -2.507  -7.429  -3.300  0.00  0.00    -0.253 OA
ATOM      9  N   UNL     1      -1.699  -6.131  -4.911  0.00  0.00    -0.313 N 
ATOM     10  H   UNL     1       0.157  -5.869  -3.215  0.00  0.00    +0.151 HD
ATOM     11  H   UNL     1      -0.990  -5.547  -5.223  0.00  0.00    +0.146 HD
ATOM     12  H   UNL     1      -2.466  -6.307  -5.478  0.00  0.00    +0.146 HD
ENDBRANCH   5   6
BRANCH   5  13
ATOM     13  C   UNL     1      -0.476  -8.592  -1.721  0.00  0.00    +0.032 C 
BRANCH  13  14
ATOM     14  C   UNL     1       0.784  -9.044  -2.462  0.00  0.00    +0.002 C 
BRANCH  14  16
ATOM     15  C   UNL     1       2.033 -11.019  -3.346  0.00  0.00    +0.004 C 
ATOM     16  C   UNL     1       0.773 -10.567  -2.605  0.00  0.00    -0.003 C 
ENDBRANCH  14  16
ENDBRANCH  13  14
ENDBRANCH   5  13
ENDBRANCH   1   5
BRANCH   3  17
ATOM     17  C   UNL     1      -2.729  -6.304   1.413  0.00  0.00    +0.093 C 
BRANCH  17  18
ATOM     18  C   UNL     1      -2.462  -6.636   2.882  0.00  0.00    -0.020 C 
BRANCH  18  19
ATOM     19  C   UNL     1      -2.395  -8.132   3.055  0.00  0.00    -0.059 A 
ATOM     20  C   UNL     1      -3.562  -8.871   3.130  0.00  0.00    +0.005 A 
ATOM     21  C   UNL     1      -3.503 -10.242   3.288  0.00  0.00    +0.046 A 
ATOM     22  C   UNL     1      -2.272 -10.877   3.373  0.00  0.00    +0.120 A 
ATOM     23  C   UNL     1      -1.104 -10.134   3.297  0.00  0.00    +0.046 A 
ATOM     24  C   UNL     1      -1.168  -8.763   3.133  0.00  0.00    +0.005 A 
BRANCH  22  25
ATOM     25  O   UNL     1      -2.212 -12.226   3.530  0.00  0.00    -0.495 OA
ATOM     26  C   UNL     1      -0.911 -12.812   3.609  0.00  0.00    +0.277 C 
ENDBRANCH  22  25
ENDBRANCH  18  19
BRANCH  18  27
ATOM     27  N   UNL     1      -3.548  -6.096   3.711  0.00  0.00    +0.385 N 
ATOM     28  C   UNL     1      -3.296  -6.397   5.144  0.00  0.00    -0.078 C 
ATOM     29  C   UNL     1      -4.147  -5.334   5.884  0.00  0.00    -0.020 C 
ATOM     30  C   UNL     1      -3.986  -4.081   4.993  0.00  0.00    -0.020 C 
ATOM     31  C   UNL     1      -3.581  -4.621   3.609  0.00  0.00    -0.078 C 
ATOM     32  H   UNL     1      -4.433  -6.484   3.423  0.00  0.00    -0.081 HD
ENDBRANCH  18  27
ENDBRANCH  17  18
ENDBRANCH   3  17
TORSDOF 10
