REMARK  Name = ZINC05759364
REMARK  11 active torsions:
REMARK  status: ('A' for Active; 'I' for Inactive)
REMARK    1  A    between atoms: C_1  and  C_2
REMARK    2  A    between atoms: C_4  and  O_37
REMARK    3  A    between atoms: C_6  and  O_36
REMARK    4  A    between atoms: C_8  and  O_35
REMARK    5  A    between atoms: C_10  and  O_13
REMARK    6  A    between atoms: O_13  and  C_14
REMARK    7  A    between atoms: C_20  and  O_34
REMARK    8  A    between atoms: C_24  and  C_25
REMARK    9  A    between atoms: C_28  and  O_33
REMARK   10  A    between atoms: C_29  and  O_32
REMARK   11  A    between atoms: C_30  and  O_31
REMARK                            x       y       z     vdW  Elec       q    Type
REMARK                         _______ _______ _______ _____ _____    ______ ____
ROOT
ATOM      1  C   UNL     1       3.499   3.625   0.160  0.00  0.00    +0.214 A 
ATOM      2  C   UNL     1       3.675   2.220   0.180  0.00  0.00    +0.235 A 
ATOM      3  O   UNL     1       4.778   1.722   0.341  0.00  0.00    -0.283 OA
ATOM      4  C   UNL     1       2.476   1.382  -0.001  0.00  0.00    +0.068 A 
ATOM      5  C   UNL     1       2.561  -0.011   0.005  0.00  0.00    +0.019 A 
ATOM      6  C   UNL     1       1.432  -0.760  -0.166  0.00  0.00    +0.046 A 
ATOM      7  C   UNL     1       0.197  -0.141  -0.346  0.00  0.00    +0.120 A 
ATOM      8  C   UNL     1       0.096   1.240  -0.354  0.00  0.00    +0.092 A 
ATOM      9  C   UNL     1       1.234   2.015  -0.182  0.00  0.00    +0.143 A 
ATOM     10  O   UNL     1       1.158   3.362  -0.188  0.00  0.00    -0.451 OA
ATOM     11  C   UNL     1       2.239   4.144  -0.024  0.00  0.00    +0.185 A 
ENDROOT
BRANCH  11  12
ATOM     12  C   UNL     1       2.068   5.606  -0.044  0.00  0.00    +0.066 A 
ATOM     13  C   UNL     1       2.906   6.401  -0.833  0.00  0.00    +0.019 A 
ATOM     14  C   UNL     1       2.744   7.768  -0.850  0.00  0.00    +0.050 A 
ATOM     15  C   UNL     1       1.750   8.365  -0.084  0.00  0.00    +0.162 A 
ATOM     16  C   UNL     1       0.910   7.587   0.705  0.00  0.00    +0.201 A 
ATOM     17  C   UNL     1       1.061   6.207   0.725  0.00  0.00    +0.173 A 
BRANCH  17  18
ATOM     18  O   UNL     1       0.240   5.443   1.490  0.00  0.00    -0.503 OA
ATOM     19  H   UNL     1       0.564   5.296   2.390  0.00  0.00    +0.292 HD
ENDBRANCH  17  18
BRANCH  16  20
ATOM     20  O   UNL     1      -0.062   8.176   1.452  0.00  0.00    -0.501 OA
ATOM     21  H   UNL     1      -0.908   8.271   0.993  0.00  0.00    +0.292 HD
ENDBRANCH  16  20
BRANCH  15  22
ATOM     22  O   UNL     1       1.598   9.715  -0.107  0.00  0.00    -0.503 OA
ATOM     23  H   UNL     1       0.989  10.031  -0.788  0.00  0.00    +0.292 HD
ENDBRANCH  15  22
ENDBRANCH  11  12
BRANCH   7  24
ATOM     24  O   UNL     1      -0.918  -0.898  -0.514  0.00  0.00    -0.507 OA
ATOM     25  H   UNL     1      -1.111  -1.114  -1.437  0.00  0.00    +0.292 HD
ENDBRANCH   7  24
BRANCH   1  26
ATOM     26  O   UNL     1       4.566   4.454   0.323  0.00  0.00    -0.453 OA
BRANCH  26  32
ATOM     27  C   UNL     1       3.041   6.529   4.306  0.00  0.00    +0.041 C 
ATOM     28  C   UNL     1       4.225   5.780   3.692  0.00  0.00    +0.150 C 
ATOM     29  C   UNL     1       5.475   6.661   3.755  0.00  0.00    +0.174 C 
ATOM     30  C   UNL     1       6.641   5.928   3.084  0.00  0.00    +0.180 C 
ATOM     31  C   UNL     1       6.249   5.577   1.646  0.00  0.00    +0.214 C 
ATOM     32  C   UNL     1       4.969   4.738   1.664  0.00  0.00    +0.339 C 
ATOM     33  O   UNL     1       3.934   5.465   2.329  0.00  0.00    -0.334 OA
BRANCH  31  34
ATOM     34  O   UNL     1       6.022   6.779   0.906  0.00  0.00    -0.383 OA
ATOM     35  H   UNL     1       5.765   6.631  -0.014  0.00  0.00    +0.210 HD
ENDBRANCH  31  34
BRANCH  30  36
ATOM     36  O   UNL     1       7.793   6.773   3.074  0.00  0.00    -0.386 OA
ATOM     37  H   UNL     1       8.569   6.374   2.656  0.00  0.00    +0.210 HD
ENDBRANCH  30  36
BRANCH  29  38
ATOM     38  O   UNL     1       5.801   6.929   5.120  0.00  0.00    -0.387 OA
ATOM     39  H   UNL     1       5.106   7.393   5.607  0.00  0.00    +0.210 HD
ENDBRANCH  29  38
ENDBRANCH  26  32
ENDBRANCH   1  26
TORSDOF 10
