REMARK  Name = ZINC59170655
REMARK  10 active torsions:
REMARK  status: ('A' for Active; 'I' for Inactive)
REMARK    1  A    between atoms: C_1  and  C_2
REMARK    2  A    between atoms: C_2  and  C_3
REMARK    3  A    between atoms: C_8  and  N_9
REMARK    4  A    between atoms: C_10  and  C_12
REMARK    5  A    between atoms: C_18  and  O_34
REMARK    6  A    between atoms: N_22  and  N_23
REMARK    7  A    between atoms: N_23  and  S_24
REMARK    8  A    between atoms: S_24  and  C_27
REMARK    9  A    between atoms: C_30  and  C_33
REMARK   10  A    between atoms: O_34  and  C_35
REMARK                            x       y       z     vdW  Elec       q    Type
REMARK                         _______ _______ _______ _____ _____    ______ ____
ROOT
ATOM      1  C   UNL     1      -1.256  -0.526  -4.367  0.00  0.00    +0.099 A 
ATOM      2  C   UNL     1      -1.948  -0.520  -5.555  0.00  0.00    +0.030 A 
ATOM      3  C   UNL     1      -1.301   0.104  -6.716  0.00  0.00    +0.022 A 
ATOM      4  C   UNL     1      -2.034   0.389  -7.873  0.00  0.00    +0.012 A 
ATOM      5  C   UNL     1      -1.408   0.977  -8.951  0.00  0.00    +0.004 A 
ATOM      6  C   UNL     1      -0.059   1.288  -8.895  0.00  0.00    +0.049 A 
ATOM      7  C   UNL     1       0.681   1.011  -7.756  0.00  0.00    +0.163 A 
ATOM      8  C   UNL     1       0.067   0.417  -6.660  0.00  0.00    +0.179 A 
ATOM      9  O   UNL     1       0.779   0.133  -5.539  0.00  0.00    -0.434 OA
ATOM     10  C   UNL     1       0.085   0.104  -4.361  0.00  0.00    +0.225 A 
ATOM     11  N   UNL     1       0.586   0.608  -3.269  0.00  0.00    -0.260 N 
ATOM     12  H   UNL     1       0.097   0.537  -2.434  0.00  0.00    +0.189 HD
ENDROOT
BRANCH   1  14
ATOM     13  N   UNL     1      -3.028  -1.737  -3.200  0.00  0.00    -0.281 N 
ATOM     14  C   UNL     1      -1.826  -1.129  -3.151  0.00  0.00    +0.253 C 
ATOM     15  O   UNL     1      -1.212  -1.079  -2.102  0.00  0.00    -0.270 OA
ATOM     16  H   UNL     1      -3.554  -1.707  -4.014  0.00  0.00    +0.155 HD
BRANCH  13  22
ATOM     17  C   UNL     1      -4.380  -3.486  -2.231  0.00  0.00    -0.026 A 
ATOM     18  C   UNL     1      -4.857  -4.153  -1.119  0.00  0.00    +0.005 A 
ATOM     19  C   UNL     1      -4.480  -3.746   0.148  0.00  0.00    +0.000 A 
ATOM     20  C   UNL     1      -3.625  -2.670   0.305  0.00  0.00    +0.002 A 
ATOM     21  C   UNL     1      -3.145  -2.000  -0.802  0.00  0.00    +0.023 A 
ATOM     22  C   UNL     1      -3.517  -2.410  -2.076  0.00  0.00    +0.037 A 
BRANCH  17  24
ATOM     23  C   UNL     1      -3.653  -4.727  -4.251  0.00  0.00    +0.009 C 
ATOM     24  C   UNL     1      -4.792  -3.931  -3.611  0.00  0.00    +0.033 C 
ENDBRANCH  17  24
ENDBRANCH  13  22
ENDBRANCH   1  14
BRANCH  11  25
ATOM     25  N   UNL     1       1.830   1.252  -3.301  0.00  0.00    -0.157 N 
ATOM     26  H   UNL     1       2.283   1.389  -4.147  0.00  0.00    +0.194 HD
BRANCH  25  27
ATOM     27  S   UNL     1       2.526   1.778  -1.893  0.00  0.00    +0.085 S 
ATOM     28  O   UNL     1       3.867   2.124  -2.208  0.00  0.00    -0.149 OA
ATOM     29  O   UNL     1       1.617   2.703  -1.312  0.00  0.00    -0.149 OA
BRANCH  27  30
ATOM     30  C   UNL     1       2.604   0.397  -0.802  0.00  0.00    +0.110 A 
ATOM     31  C   UNL     1       1.516   0.076  -0.013  0.00  0.00    +0.029 A 
ATOM     32  C   UNL     1       1.577  -1.007   0.843  0.00  0.00    +0.005 A 
ATOM     33  C   UNL     1       2.728  -1.771   0.909  0.00  0.00    -0.050 A 
ATOM     34  C   UNL     1       3.817  -1.451   0.120  0.00  0.00    +0.005 A 
ATOM     35  C   UNL     1       3.753  -0.369  -0.739  0.00  0.00    +0.029 A 
ATOM     36  C   UNL     1       2.796  -2.952   1.843  0.00  0.00    +0.044 C 
ENDBRANCH  27  30
ENDBRANCH  25  27
ENDBRANCH  11  25
BRANCH   7  37
ATOM     37  O   UNL     1       2.005   1.320  -7.711  0.00  0.00    -0.491 OA
ATOM     38  C   UNL     1       2.568   1.929  -8.875  0.00  0.00    +0.277 C 
ENDBRANCH   7  37
TORSDOF 7
