REMARK  Name = ZINC15957835
REMARK  7 active torsions:
REMARK  status: ('A' for Active; 'I' for Inactive)
REMARK    1  A    between atoms: C_1  and  C_2
REMARK    2  A    between atoms: C_6  and  N_9
REMARK    3  A    between atoms: C_7  and  C_8
REMARK    4  A    between atoms: C_14  and  C_31
REMARK    5  A    between atoms: C_31  and  C_32
REMARK    6  A    between atoms: C_32  and  S_33
REMARK    7  A    between atoms: S_33  and  C_34
REMARK                            x       y       z     vdW  Elec       q    Type
REMARK                         _______ _______ _______ _____ _____    ______ ____
ROOT
ATOM      1  N   UNL     1       0.830  -3.432   2.258  0.00  0.00    -0.210 N 
ATOM      2  C   UNL     1      -0.187  -3.327   3.121  0.00  0.00    +0.232 C 
ATOM      3  O   UNL     1      -1.115  -2.553   3.020  0.00  0.00    -0.274 OA
ATOM      4  C   UNL     1       0.001  -4.323   4.242  0.00  0.00    +0.107 C 
ATOM      5  C   UNL     1      -1.098  -5.404   4.154  0.00  0.00    +0.068 C 
ATOM      6  N   UNL     1      -0.553  -6.427   3.222  0.00  0.00    -0.295 NA
ATOM      7  C   UNL     1       0.880  -6.499   3.564  0.00  0.00    +0.136 C 
ATOM      8  C   UNL     1       1.324  -5.045   3.863  0.00  0.00    +0.123 C 
ATOM      9  C   UNL     1       1.733  -4.367   2.575  0.00  0.00    +0.233 C 
ATOM     10  O   UNL     1       2.726  -4.627   1.930  0.00  0.00    -0.274 OA
ATOM     11  C   UNL     1       1.683  -7.108   2.450  0.00  0.00    +0.003 A 
ATOM     12  C   UNL     1       1.887  -6.767   1.131  0.00  0.00    +0.008 A 
ATOM     13  C   UNL     1       2.703  -7.548   0.333  0.00  0.00    +0.000 A 
ATOM     14  C   UNL     1       3.313  -8.671   0.862  0.00  0.00    +0.002 A 
ATOM     15  C   UNL     1       3.114  -9.015   2.182  0.00  0.00    +0.023 A 
ATOM     16  C   UNL     1       2.293  -8.234   2.994  0.00  0.00    +0.039 A 
ATOM     17  N   UNL     1       1.942  -8.373   4.338  0.00  0.00    -0.283 N 
ATOM     18  C   UNL     1       1.115  -7.393   4.751  0.00  0.00    +0.243 C 
ATOM     19  O   UNL     1       0.651  -7.257   5.863  0.00  0.00    -0.273 OA
ATOM     20  H   UNL     1      -1.003  -7.319   3.362  0.00  0.00    +0.123 HD
ATOM     21  H   UNL     1       2.257  -9.091   4.909  0.00  0.00    +0.155 HD
ENDROOT
BRANCH   1  27
ATOM     22  C   UNL     1       2.449   0.682   0.102  0.00  0.00    +0.044 C 
ATOM     23  C   UNL     1       1.716  -0.633   0.039  0.00  0.00    -0.046 A 
ATOM     24  C   UNL     1       1.147  -1.052  -1.150  0.00  0.00    +0.004 A 
ATOM     25  C   UNL     1       0.474  -2.257  -1.211  0.00  0.00    +0.002 A 
ATOM     26  C   UNL     1       0.367  -3.048  -0.084  0.00  0.00    +0.024 A 
ATOM     27  C   UNL     1       0.937  -2.631   1.111  0.00  0.00    +0.047 A 
ATOM     28  C   UNL     1       1.617  -1.422   1.168  0.00  0.00    -0.026 A 
ATOM     29  C   UNL     1       2.242  -0.969   2.462  0.00  0.00    +0.046 C 
ENDBRANCH   1  27
BRANCH   5  30
ATOM     30  C   UNL     1      -1.353  -6.017   5.532  0.00  0.00    +0.030 C 
BRANCH  30  31
ATOM     31  C   UNL     1      -2.489  -5.262   6.224  0.00  0.00    +0.070 C 
BRANCH  31  32
ATOM     32  S   UNL     1      -2.792  -5.989   7.858  0.00  0.00    -0.164 S 
ATOM     33  C   UNL     1      -4.147  -4.993   8.537  0.00  0.00    +0.084 C 
ENDBRANCH  31  32
ENDBRANCH  30  31
ENDBRANCH   5  30
TORSDOF 4
