REMARK  Name = ZINC45313194
REMARK  10 active torsions:
REMARK  status: ('A' for Active; 'I' for Inactive)
REMARK    1  A    between atoms: C_1  and  C_2
REMARK    2  A    between atoms: C_2  and  C_4
REMARK    3  A    between atoms: C_2  and  N_16
REMARK    4  A    between atoms: N_6  and  C_7
REMARK    5  A    between atoms: C_10  and  C_13
REMARK    6  A    between atoms: N_16  and  C_17
REMARK    7  A    between atoms: N_16  and  C_18
REMARK    8  A    between atoms: C_18  and  C_19
REMARK    9  A    between atoms: N_21  and  C_22
REMARK   10  A    between atoms: C_27  and  C_28
REMARK                            x       y       z     vdW  Elec       q    Type
REMARK                         _______ _______ _______ _____ _____    ______ ____
ROOT
ATOM      1  N   UNL     1      -0.080   0.070   1.523  0.00  0.00    +0.391 N 
ATOM      2  C   UNL     1      -1.266   0.691   2.127  0.00  0.00    -0.094 C 
ATOM      3  H   UNL     1       0.752   0.458   1.941  0.00  0.00    -0.080 HD
ENDROOT
BRANCH   1   5
ATOM      4  C   UNL     1      -0.162   1.842  -0.165  0.00  0.00    -0.004 C 
ATOM      5  C   UNL     1      -0.071   0.335   0.078  0.00  0.00    +0.017 C 
BRANCH   5   6
ATOM      6  C   UNL     1       1.206  -0.195  -0.521  0.00  0.00    +0.203 C 
ATOM      7  O   UNL     1       2.133  -0.500   0.199  0.00  0.00    -0.277 OA
ATOM      8  N   UNL     1       1.319  -0.328  -1.858  0.00  0.00    -0.287 N 
ATOM      9  H   UNL     1       0.606  -0.018  -2.438  0.00  0.00    +0.155 HD
BRANCH   8  10
ATOM     10  C   UNL     1       2.460  -0.911  -2.406  0.00  0.00    +0.033 A 
ATOM     11  C   UNL     1       3.137  -1.905  -1.706  0.00  0.00    +0.024 A 
ATOM     12  C   UNL     1       4.264  -2.483  -2.245  0.00  0.00    +0.015 A 
ATOM     13  C   UNL     1       4.728  -2.071  -3.497  0.00  0.00    +0.037 A 
ATOM     14  C   UNL     1       4.046  -1.073  -4.198  0.00  0.00    +0.015 A 
ATOM     15  C   UNL     1       2.917  -0.503  -3.656  0.00  0.00    +0.024 A 
BRANCH  13  16
ATOM     16  C   UNL     1       5.937  -2.688  -4.078  0.00  0.00    +0.242 C 
ATOM     17  O   UNL     1       6.530  -3.556  -3.467  0.00  0.00    -0.270 OA
ATOM     18  N   UNL     1       6.383  -2.290  -5.286  0.00  0.00    -0.325 N 
ATOM     19  H   UNL     1       5.910  -1.598  -5.774  0.00  0.00    +0.145 HD
ATOM     20  H   UNL     1       7.177  -2.696  -5.668  0.00  0.00    +0.145 HD
ENDBRANCH  13  16
ENDBRANCH   8  10
ENDBRANCH   5   6
ENDBRANCH   1   5
BRANCH   1  21
ATOM     21  C   UNL     1      -0.115  -1.380   1.755  0.00  0.00    +0.020 C 
BRANCH  21  22
ATOM     22  C   UNL     1       0.012  -1.656   3.231  0.00  0.00    +0.201 C 
ATOM     23  O   UNL     1       0.121  -0.735   4.013  0.00  0.00    -0.278 OA
ATOM     24  N   UNL     1       0.005  -2.926   3.683  0.00  0.00    -0.287 N 
ATOM     25  H   UNL     1      -0.023  -3.664   3.054  0.00  0.00    +0.155 HD
BRANCH  24  26
ATOM     26  C   UNL     1       0.037  -3.180   5.058  0.00  0.00    +0.045 A 
ATOM     27  C   UNL     1       0.626  -2.265   5.921  0.00  0.00    +0.024 A 
ATOM     28  C   UNL     1       0.657  -2.518   7.278  0.00  0.00    +0.002 A 
ATOM     29  C   UNL     1       0.102  -3.682   7.778  0.00  0.00    +0.001 A 
ATOM     30  C   UNL     1      -0.485  -4.595   6.922  0.00  0.00    +0.014 A 
ATOM     31  C   UNL     1      -0.524  -4.345   5.564  0.00  0.00    +0.076 A 
BRANCH  31  32
ATOM     32  C   UNL     1      -1.170  -5.337   4.632  0.00  0.00    +0.419 C 
ATOM     33  F   UNL     1      -1.659  -6.420   5.371  0.00  0.00    -0.166 F 
ATOM     34  F   UNL     1      -2.227  -4.720   3.954  0.00  0.00    -0.166 F 
ATOM     35  F   UNL     1      -0.224  -5.793   3.708  0.00  0.00    -0.166 F 
ENDBRANCH  31  32
ENDBRANCH  24  26
ENDBRANCH  21  22
ENDBRANCH   1  21
TORSDOF 8
