REMARK  Name = ZINC36264319
REMARK  7 active torsions:
REMARK  status: ('A' for Active; 'I' for Inactive)
REMARK    1  A    between atoms: C_1  and  C_2
REMARK    2  A    between atoms: C_2  and  O_3
REMARK    3  A    between atoms: O_3  and  C_4
REMARK    4  A    between atoms: C_9  and  S_10
REMARK    5  A    between atoms: S_10  and  N_13
REMARK    6  A    between atoms: N_13  and  C_14
REMARK    7  A    between atoms: C_17  and  N_19
REMARK                            x       y       z     vdW  Elec       q    Type
REMARK                         _______ _______ _______ _____ _____    ______ ____
ROOT
ATOM      1  S   UNL     1      -4.307  -1.316   0.043  0.00  0.00    +0.062 S 
ATOM      2  O   UNL     1      -5.569  -1.960  -0.072  0.00  0.00    -0.153 OA
ATOM      3  O   UNL     1      -3.978  -0.475   1.140  0.00  0.00    -0.153 OA
ENDROOT
BRANCH   1   9
ATOM      4  C   UNL     1      -1.741  -2.258   0.052  0.00  0.00    +0.147 A 
ATOM      5  C   UNL     1      -0.782  -3.260   0.023  0.00  0.00    +0.049 A 
ATOM      6  C   UNL     1      -1.170  -4.583  -0.064  0.00  0.00    +0.019 A 
ATOM      7  C   UNL     1      -2.513  -4.909  -0.123  0.00  0.00    +0.020 A 
ATOM      8  C   UNL     1      -3.471  -3.911  -0.095  0.00  0.00    +0.047 A 
ATOM      9  C   UNL     1      -3.087  -2.587  -0.001  0.00  0.00    +0.148 A 
ATOM     10 BR   UNL     1      -3.042  -6.720  -0.243  0.00  0.00    -0.050 Br
BRANCH   4  11
ATOM     11  O   UNL     1      -1.361  -0.956   0.138  0.00  0.00    -0.490 OA
BRANCH  11  13
ATOM     12  C   UNL     1       0.274   0.819   0.283  0.00  0.00    +0.048 C 
ATOM     13  C   UNL     1       0.042  -0.691   0.189  0.00  0.00    +0.226 C 
ENDBRANCH  11  13
ENDBRANCH   4  11
ENDBRANCH   1   9
BRANCH   1  14
ATOM     14  N   UNL     1      -4.115  -0.405  -1.326  0.00  0.00    -0.188 NA
ATOM     15  H   UNL     1      -3.857   0.528  -1.256  0.00  0.00    +0.148 HD
BRANCH  14  16
ATOM     16  C   UNL     1      -4.335  -1.006  -2.644  0.00  0.00    +0.061 C 
ATOM     17  C   UNL     1      -4.918  -0.112  -3.740  0.00  0.00    +0.004 C 
ATOM     18  C   UNL     1      -3.446  -0.530  -3.795  0.00  0.00    -0.055 C 
BRANCH  18  19
ATOM     19  N   UNL     1      -3.060  -1.520  -4.808  0.00  0.00    +0.381 N 
ATOM     20  H   UNL     1      -3.888  -1.893  -5.247  0.00  0.00    -0.090 HD
ATOM     21  H   UNL     1      -2.479  -1.079  -5.505  0.00  0.00    -0.090 HD
ATOM     22  H   UNL     1      -2.546  -2.269  -4.368  0.00  0.00    -0.090 HD
ENDBRANCH  18  19
ENDBRANCH  14  16
ENDBRANCH   1  14
TORSDOF 6
