REMARK  Name = ZINC39977012
REMARK  4 active torsions:
REMARK  status: ('A' for Active; 'I' for Inactive)
REMARK    1  A    between atoms: N_7  and  S_8
REMARK    2  A    between atoms: S_8  and  C_11
REMARK    3  A    between atoms: C_20  and  N_25
REMARK    4  A    between atoms: N_25  and  C_26
REMARK                            x       y       z     vdW  Elec       q    Type
REMARK                         _______ _______ _______ _____ _____    ______ ____
ROOT
ATOM      1  C   UNL     1       0.573   1.431  -0.700  0.00  0.00    +0.002 A 
ATOM      2  C   UNL     1       1.793   2.109  -0.540  0.00  0.00    +0.002 A 
ATOM      3  C   UNL     1       2.961   1.468  -0.313  0.00  0.00    +0.030 A 
ATOM      4  C   UNL     1       2.997   0.053  -0.227  0.00  0.00    +0.089 A 
ATOM      5  N   UNL     1       4.137  -0.567  -0.005  0.00  0.00    -0.226 NA
ATOM      6  C   UNL     1       4.206  -1.905   0.083  0.00  0.00    +0.192 C 
ATOM      7  N   UNL     1       5.345  -2.493   0.302  0.00  0.00    -0.110 NA
ATOM      8  C   UNL     1       2.941  -2.716  -0.078  0.00  0.00    +0.237 C 
ATOM      9  N   UNL     1       1.685  -1.990  -0.324  0.00  0.00    -0.359 N 
ATOM     10  C   UNL     1       1.722  -0.689  -0.392  0.00  0.00    +0.063 A 
ATOM     11  C   UNL     1       0.495   0.084  -0.636  0.00  0.00    +0.027 A 
ATOM     12  H   UNL     1       0.849  -2.469  -0.433  0.00  0.00    +0.162 HD
ENDROOT
BRANCH   7  13
ATOM     13  S   UNL     1       6.723  -1.592   0.476  0.00  0.00    +0.103 S 
ATOM     14  O   UNL     1       6.970  -0.980  -0.782  0.00  0.00    -0.146 OA
ATOM     15  O   UNL     1       6.568  -0.840   1.672  0.00  0.00    -0.146 OA
BRANCH  13  16
ATOM     16  C   UNL     1       8.049  -2.717   0.758  0.00  0.00    +0.141 A 
ATOM     17  C   UNL     1       9.048  -2.824  -0.149  0.00  0.00    +0.031 A 
ATOM     18  C   UNL     1      10.114  -3.704   0.041  0.00  0.00    +0.004 A 
ATOM     19  C   UNL     1      10.195  -4.490   1.140  0.00  0.00    +0.031 A 
ATOM     20  C   UNL     1       9.182  -4.431   2.135  0.00  0.00    +0.102 A 
ATOM     21  C   UNL     1       8.071  -3.507   1.939  0.00  0.00    +0.127 A 
ATOM     22  N   UNL     1       7.186  -3.533   2.936  0.00  0.00    -0.189 NA
ATOM     23  S   UNL     1       7.744  -4.617   3.985  0.00  0.00    +0.117 S 
ATOM     24  N   UNL     1       9.095  -5.123   3.272  0.00  0.00    -0.191 NA
ENDBRANCH  13  16
ENDBRANCH   7  13
BRANCH   8  25
ATOM     25  N   UNL     1       2.764  -3.514   1.139  0.00  0.00    -0.318 N 
ATOM     26  H   UNL     1       2.909  -3.110   2.009  0.00  0.00    +0.148 HD
BRANCH  25  27
ATOM     27  C   UNL     1       2.387  -4.856   1.046  0.00  0.00    +0.030 A 
ATOM     28  C   UNL     1       2.364  -5.653   2.184  0.00  0.00    +0.024 A 
ATOM     29  C   UNL     1       1.991  -6.979   2.090  0.00  0.00    +0.023 A 
ATOM     30  C   UNL     1       1.641  -7.515   0.863  0.00  0.00    +0.059 A 
ATOM     31  C   UNL     1       1.663  -6.724  -0.273  0.00  0.00    +0.061 A 
ATOM     32  C   UNL     1       2.029  -5.394  -0.183  0.00  0.00    +0.044 A 
ATOM     33 CL   UNL     1       1.223  -7.401  -1.810  0.00  0.00    -0.082 Cl
ATOM     34 CL   UNL     1       1.173  -9.183   0.749  0.00  0.00    -0.082 Cl
ENDBRANCH  25  27
ENDBRANCH   8  25
TORSDOF 4
