REMARK  Name = ZINC04644908
REMARK  12 active torsions:
REMARK  status: ('A' for Active; 'I' for Inactive)
REMARK    1  A    between atoms: C_3  and  N_22
REMARK    2  A    between atoms: C_6  and  N_7
REMARK    3  A    between atoms: N_7  and  C_8
REMARK    4  A    between atoms: C_11  and  O_21
REMARK    5  A    between atoms: C_13  and  O_20
REMARK    6  A    between atoms: C_15  and  C_18
REMARK    7  A    between atoms: C_18  and  O_19
REMARK    8  A    between atoms: N_22  and  C_23
REMARK    9  A    between atoms: C_26  and  O_36
REMARK   10  A    between atoms: C_28  and  O_35
REMARK   11  A    between atoms: C_30  and  C_33
REMARK   12  A    between atoms: C_33  and  O_34
REMARK                            x       y       z     vdW  Elec       q    Type
REMARK                         _______ _______ _______ _____ _____    ______ ____
ROOT
ATOM      1  C   UNL     1       0.057   1.435   0.750  0.00  0.00    +0.025 A 
ATOM      2  C   UNL     1       1.228   2.124   0.509  0.00  0.00    +0.025 A 
ATOM      3  C   UNL     1       2.397   1.430   0.224  0.00  0.00    +0.029 A 
ATOM      4  C   UNL     1       2.387   0.042   0.182  0.00  0.00    +0.025 A 
ATOM      5  C   UNL     1       1.215  -0.648   0.424  0.00  0.00    +0.025 A 
ATOM      6  C   UNL     1       0.047   0.047   0.708  0.00  0.00    +0.029 A 
ENDROOT
BRANCH   6   7
ATOM      7  N   UNL     1      -1.141  -0.653   0.953  0.00  0.00    -0.319 N 
ATOM      8  H   UNL     1      -1.957  -0.168   1.152  0.00  0.00    +0.148 HD
BRANCH   7   9
ATOM      9  C   UNL     1      -1.151  -2.117   0.908  0.00  0.00    +0.206 C 
ATOM     10  C   UNL     1      -2.127  -2.653   1.959  0.00  0.00    +0.085 C 
ATOM     11  C   UNL     1      -3.541  -2.168   1.626  0.00  0.00    +0.150 C 
ATOM     12  C   UNL     1      -3.905  -2.623   0.209  0.00  0.00    +0.174 C 
ATOM     13  C   UNL     1      -2.861  -2.088  -0.774  0.00  0.00    +0.177 C 
ATOM     14  O   UNL     1      -1.565  -2.551  -0.389  0.00  0.00    -0.351 OA
BRANCH  12  15
ATOM     15  O   UNL     1      -3.925  -4.051   0.157  0.00  0.00    -0.387 OA
ATOM     16  H   UNL     1      -4.563  -4.458   0.759  0.00  0.00    +0.210 HD
ENDBRANCH  12  15
BRANCH  11  17
ATOM     17  O   UNL     1      -4.469  -2.722   2.561  0.00  0.00    -0.389 OA
ATOM     18  H   UNL     1      -4.294  -2.478   3.480  0.00  0.00    +0.210 HD
ENDBRANCH  11  17
BRANCH  13  19
ATOM     19  C   UNL     1      -3.184  -2.588  -2.184  0.00  0.00    +0.190 C 
BRANCH  19  20
ATOM     20  O   UNL     1      -2.279  -1.996  -3.118  0.00  0.00    -0.392 OA
ATOM     21  H   UNL     1      -2.426  -2.269  -4.034  0.00  0.00    +0.210 HD
ENDBRANCH  19  20
ENDBRANCH  13  19
ENDBRANCH   7   9
ENDBRANCH   6   7
BRANCH   3  22
ATOM     22  N   UNL     1       3.584   2.130  -0.022  0.00  0.00    -0.319 N 
ATOM     23  H   UNL     1       4.419   1.647  -0.123  0.00  0.00    +0.148 HD
BRANCH  22  24
ATOM     24  C   UNL     1       3.566   3.591  -0.125  0.00  0.00    +0.206 C 
ATOM     25  C   UNL     1       4.615   4.044  -1.144  0.00  0.00    +0.085 C 
ATOM     26  C   UNL     1       4.631   5.574  -1.202  0.00  0.00    +0.150 C 
ATOM     27  C   UNL     1       4.907   6.125   0.200  0.00  0.00    +0.174 C 
ATOM     28  C   UNL     1       3.846   5.592   1.167  0.00  0.00    +0.177 C 
ATOM     29  O   UNL     1       3.864   4.163   1.150  0.00  0.00    -0.351 OA
BRANCH  27  30
ATOM     30  O   UNL     1       6.203   5.705   0.632  0.00  0.00    -0.387 OA
ATOM     31  H   UNL     1       6.924   6.005   0.061  0.00  0.00    +0.210 HD
ENDBRANCH  27  30
BRANCH  26  32
ATOM     32  O   UNL     1       5.657   6.008  -2.098  0.00  0.00    -0.389 OA
ATOM     33  H   UNL     1       5.548   5.689  -3.005  0.00  0.00    +0.210 HD
ENDBRANCH  26  32
BRANCH  28  34
ATOM     34  C   UNL     1       4.149   6.089   2.582  0.00  0.00    +0.190 C 
BRANCH  34  35
ATOM     35  O   UNL     1       3.098   5.689   3.463  0.00  0.00    -0.392 OA
ATOM     36  H   UNL     1       3.224   5.971   4.379  0.00  0.00    +0.210 HD
ENDBRANCH  34  35
ENDBRANCH  28  34
ENDBRANCH  22  24
ENDBRANCH   3  22
TORSDOF 12
