REMARK  Name = ZINC39226891
REMARK  5 active torsions:
REMARK  status: ('A' for Active; 'I' for Inactive)
REMARK    1  A    between atoms: C_1  and  O_2
REMARK    2  A    between atoms: O_2  and  C_3
REMARK    3  A    between atoms: N_16  and  C_19
REMARK    4  A    between atoms: C_19  and  C_20
REMARK    5  A    between atoms: N_22  and  C_23
REMARK                            x       y       z     vdW  Elec       q    Type
REMARK                         _______ _______ _______ _____ _____    ______ ____
ROOT
ATOM      1  C   UNL     1       0.649  -0.649   1.013  0.00  0.00    +0.134 A 
ATOM      2  C   UNL     1       1.235   0.101   2.021  0.00  0.00    +0.046 A 
ATOM      3  C   UNL     1       1.871  -0.529   3.075  0.00  0.00    +0.007 A 
ATOM      4  C   UNL     1       1.938  -1.909   3.139  0.00  0.00    +0.046 A 
ATOM      5  C   UNL     1       1.363  -2.682   2.143  0.00  0.00    +0.135 A 
ATOM      6  C   UNL     1       0.700  -2.048   1.078  0.00  0.00    +0.101 A 
ATOM      7  C   UNL     1       0.064  -2.872   0.040  0.00  0.00    +0.174 C 
ATOM      8  O   UNL     1      -0.696  -2.395  -0.776  0.00  0.00    -0.292 OA
ATOM      9  C   UNL     1       0.408  -4.351   0.041  0.00  0.00    +0.127 C 
ATOM     10  C   UNL     1       0.460  -4.805   1.507  0.00  0.00    +0.114 C 
ATOM     11  O   UNL     1       1.440  -4.033   2.206  0.00  0.00    -0.485 OA
ATOM     12  C   UNL     1       0.836  -6.287   1.565  0.00  0.00    +0.030 C 
ATOM     13  C   UNL     1       0.798  -6.762   3.019  0.00  0.00    -0.074 C 
ATOM     14  N   UNL     1      -0.552  -6.574   3.563  0.00  0.00    +0.386 N 
ATOM     15  C   UNL     1      -0.889  -5.145   3.579  0.00  0.00    -0.074 C 
ATOM     16  C   UNL     1      -0.917  -4.608   2.146  0.00  0.00    +0.030 C 
ATOM     17  H   UNL     1      -1.218  -7.069   2.988  0.00  0.00    -0.081 HD
ENDROOT
BRANCH   1  19
ATOM     18  C   UNL     1       0.017   1.394  -0.019  0.00  0.00    +0.277 C 
ATOM     19  O   UNL     1       0.027  -0.035  -0.024  0.00  0.00    -0.494 OA
ENDBRANCH   1  19
BRANCH  14  20
ATOM     20  C   UNL     1      -0.605  -7.103   4.932  0.00  0.00    +0.019 C 
BRANCH  20  21
ATOM     21  C   UNL     1      -2.019  -7.024   5.448  0.00  0.00    +0.201 C 
ATOM     22  O   UNL     1      -2.896  -6.571   4.744  0.00  0.00    -0.278 OA
ATOM     23  N   UNL     1      -2.308  -7.456   6.691  0.00  0.00    -0.285 N 
ATOM     24  H   UNL     1      -1.621  -7.878   7.230  0.00  0.00    +0.155 HD
BRANCH  23  25
ATOM     25  C   UNL     1      -3.598  -7.296   7.204  0.00  0.00    +0.060 A 
ATOM     26  C   UNL     1      -4.692  -7.395   6.373  0.00  0.00    +0.025 A 
ATOM     27  C   UNL     1      -5.982  -7.239   6.870  0.00  0.00    +0.003 A 
ATOM     28  C   UNL     1      -6.198  -6.984   8.191  0.00  0.00    +0.010 A 
ATOM     29  C   UNL     1      -5.108  -6.875   9.070  0.00  0.00    +0.002 A 
ATOM     30  C   UNL     1      -3.790  -7.038   8.578  0.00  0.00    +0.092 A 
ATOM     31  N   UNL     1      -2.752  -6.941   9.413  0.00  0.00    -0.253 NA
ATOM     32  C   UNL     1      -2.924  -6.700  10.690  0.00  0.00    +0.111 A 
ATOM     33  C   UNL     1      -4.193  -6.535  11.240  0.00  0.00    +0.020 A 
ATOM     34  C   UNL     1      -5.297  -6.612  10.440  0.00  0.00    +0.011 A 
ENDBRANCH  23  25
ENDBRANCH  20  21
ENDBRANCH  14  20
TORSDOF 4
