REMARK  Name = ZINC61804917
REMARK  11 active torsions:
REMARK  status: ('A' for Active; 'I' for Inactive)
REMARK    1  A    between atoms: C_1  and  C_2
REMARK    2  A    between atoms: C_2  and  C_3
REMARK    3  A    between atoms: C_3  and  C_5
REMARK    4  A    between atoms: C_3  and  N_22
REMARK    5  A    between atoms: C_5  and  C_7
REMARK    6  A    between atoms: C_5  and  N_13
REMARK    7  A    between atoms: C_10  and  C_12
REMARK    8  A    between atoms: N_13  and  C_14
REMARK    9  A    between atoms: N_13  and  C_18
REMARK   10  A    between atoms: C_14  and  C_15
REMARK   11  A    between atoms: C_18  and  C_19
REMARK                            x       y       z     vdW  Elec       q    Type
REMARK                         _______ _______ _______ _____ _____    ______ ____
ROOT
ATOM      1  C   UNL     1      -1.399  -1.997  -0.123  0.00  0.00    +0.080 C 
ENDROOT
BRANCH   1   2
ATOM      2  C   UNL     1      -0.681  -2.329  -1.405  0.00  0.00    +0.006 A 
ATOM      3  C   UNL     1       0.592  -2.759  -1.584  0.00  0.00    +0.013 A 
ATOM      4  C   UNL     1       1.042  -3.004  -2.868  0.00  0.00    +0.011 A 
ATOM      5  C   UNL     1       0.198  -2.808  -3.910  0.00  0.00    -0.013 A 
ATOM      6  S   UNL     1      -1.289  -2.267  -3.083  0.00  0.00    -0.097 S 
ATOM      7  C   UNL     1       0.447  -3.003  -5.383  0.00  0.00    +0.051 C 
ENDBRANCH   1   2
BRANCH   1   8
ATOM      8  C   UNL     1      -1.647  -0.489  -0.053  0.00  0.00    -0.053 C 
BRANCH   8   9
ATOM      9  N   UNL     1      -2.473  -0.183   1.123  0.00  0.00    +0.381 N 
ATOM     10  H   UNL     1      -2.706   0.799   1.123  0.00  0.00    -0.090 HD
ATOM     11  H   UNL     1      -3.320  -0.730   1.090  0.00  0.00    -0.090 HD
ATOM     12  H   UNL     1      -1.960  -0.406   1.962  0.00  0.00    -0.090 HD
ENDBRANCH   8   9
BRANCH   8  14
ATOM     13  C   UNL     1      -0.546   1.753   0.005  0.00  0.00    +0.002 C 
ATOM     14  C   UNL     1      -0.308   0.243   0.060  0.00  0.00    -0.018 C 
ENDBRANCH   8  14
ENDBRANCH   1   8
BRANCH   1  15
ATOM     15  N   UNL     1      -2.685  -2.707  -0.083  0.00  0.00    -0.280 NA
BRANCH  15  16
ATOM     16  C   UNL     1      -3.519  -2.349  -1.238  0.00  0.00    +0.181 C 
BRANCH  16  17
ATOM     17  C   UNL     1      -4.948  -2.746  -0.968  0.00  0.00    +0.225 C 
ATOM     18  O   UNL     1      -5.261  -3.182   0.120  0.00  0.00    -0.275 OA
ATOM     19  N   UNL     1      -5.877  -2.618  -1.935  0.00  0.00    -0.328 N 
ATOM     20  H   UNL     1      -5.627  -2.269  -2.805  0.00  0.00    +0.145 HD
ATOM     21  H   UNL     1      -6.797  -2.874  -1.762  0.00  0.00    +0.145 HD
ENDBRANCH  16  17
ENDBRANCH  15  16
BRANCH  15  22
ATOM     22  C   UNL     1      -2.482  -4.160  -0.011  0.00  0.00    +0.181 C 
BRANCH  22  23
ATOM     23  C   UNL     1      -2.067  -4.540   1.387  0.00  0.00    +0.225 C 
ATOM     24  O   UNL     1      -2.048  -3.702   2.263  0.00  0.00    -0.275 OA
ATOM     25  N   UNL     1      -1.716  -5.812   1.663  0.00  0.00    -0.328 N 
ATOM     26  H   UNL     1      -1.731  -6.482   0.963  0.00  0.00    +0.145 HD
ATOM     27  H   UNL     1      -1.449  -6.056   2.563  0.00  0.00    +0.145 HD
ENDBRANCH  22  23
ENDBRANCH  15  22
ENDBRANCH   1  15
TORSDOF 9
