REMARK  Name = ZINC20899122
REMARK  10 active torsions:
REMARK  status: ('A' for Active; 'I' for Inactive)
REMARK    1  A    between atoms: C_1  and  C_2
REMARK    2  A    between atoms: C_2  and  C_3
REMARK    3  A    between atoms: C_3  and  C_4
REMARK    4  A    between atoms: C_4  and  N_5
REMARK    5  A    between atoms: C_24  and  C_27
REMARK    6  A    between atoms: C_29  and  O_36
REMARK    7  A    between atoms: C_30  and  O_35
REMARK    8  A    between atoms: C_31  and  O_33
REMARK    9  A    between atoms: O_33  and  C_34
REMARK   10  A    between atoms: O_36  and  C_37
REMARK                            x       y       z     vdW  Elec       q    Type
REMARK                         _______ _______ _______ _____ _____    ______ ____
ROOT
ATOM      1  N   UNL     1       1.513  -2.268   2.537  0.00  0.00    -0.222 N 
ATOM      2  C   UNL     1       2.849  -2.447   2.482  0.00  0.00    +0.261 C 
ATOM      3  O   UNL     1       3.503  -1.991   1.563  0.00  0.00    -0.269 OA
ATOM      4  C   UNL     1       3.494  -3.211   3.564  0.00  0.00    +0.116 C 
ATOM      5  C   UNL     1       2.622  -3.725   4.635  0.00  0.00    +0.258 C 
ATOM      6  N   UNL     1       1.300  -3.468   4.559  0.00  0.00    -0.235 N 
ATOM      7  H   UNL     1       0.712  -3.799   5.256  0.00  0.00    +0.159 HD
ATOM      8  C   UNL     1       0.781  -2.760   3.546  0.00  0.00    +0.315 C 
ATOM      9  O   UNL     1      -0.418  -2.559   3.539  0.00  0.00    -0.252 OA
ATOM     10  O   UNL     1       3.082  -4.364   5.562  0.00  0.00    -0.270 OA
ATOM     11  C   UNL     1       4.859  -3.435   3.575  0.00  0.00    +0.027 C 
ATOM     12  N   UNL     1       5.448  -3.279   2.442  0.00  0.00    -0.316 N 
ATOM     13  C   UNL     1       6.695  -3.139   1.896  0.00  0.00    +0.045 A 
ATOM     14  C   UNL     1       6.702  -2.699   0.561  0.00  0.00    +0.024 A 
ATOM     15  C   UNL     1       7.873  -2.513  -0.133  0.00  0.00    +0.002 A 
ATOM     16  C   UNL     1       9.084  -2.762   0.488  0.00  0.00    +0.001 A 
ATOM     17  C   UNL     1       9.096  -3.191   1.794  0.00  0.00    +0.016 A 
ATOM     18  C   UNL     1       7.910  -3.384   2.517  0.00  0.00    +0.030 A 
ATOM     19  S   UNL     1       8.087  -3.925   4.168  0.00  0.00    -0.115 S 
ATOM     20  C   UNL     1       6.774  -3.203   5.141  0.00  0.00    +0.087 C 
ATOM     21  C   UNL     1       5.428  -3.815   4.896  0.00  0.00    +0.071 C 
ATOM     22  H   UNL     1       4.784  -3.252   1.736  0.00  0.00    +0.152 HD
ENDROOT
BRANCH  20  23
ATOM     23  C   UNL     1       7.113  -3.361   6.600  0.00  0.00    -0.027 A 
ATOM     24  C   UNL     1       7.293  -4.624   7.133  0.00  0.00    +0.054 A 
ATOM     25  C   UNL     1       7.605  -4.774   8.476  0.00  0.00    +0.165 A 
ATOM     26  C   UNL     1       7.737  -3.652   9.286  0.00  0.00    +0.201 A 
ATOM     27  C   UNL     1       7.556  -2.384   8.746  0.00  0.00    +0.165 A 
ATOM     28  C   UNL     1       7.249  -2.243   7.401  0.00  0.00    +0.054 A 
BRANCH  27  29
ATOM     29  O   UNL     1       7.684  -1.284   9.535  0.00  0.00    -0.491 OA
ATOM     30  C   UNL     1       7.484  -0.013   8.912  0.00  0.00    +0.277 C 
ENDBRANCH  27  29
BRANCH  26  31
ATOM     31  O   UNL     1       8.043  -3.795  10.605  0.00  0.00    -0.501 OA
ATOM     32  H   UNL     1       8.992  -3.796  10.790  0.00  0.00    +0.292 HD
ENDBRANCH  26  31
BRANCH  25  33
ATOM     33  O   UNL     1       7.781  -6.016   9.000  0.00  0.00    -0.491 OA
ATOM     34  C   UNL     1       7.630  -7.123   8.109  0.00  0.00    +0.277 C 
ENDBRANCH  25  33
ENDBRANCH  20  23
BRANCH   1  35
ATOM     35  C   UNL     1       0.848  -1.512   1.472  0.00  0.00    +0.118 C 
BRANCH  35  36
ATOM     36  C   UNL     1       0.817  -0.028   1.843  0.00  0.00    +0.019 C 
BRANCH  36  38
ATOM     37  C   UNL     1       0.091   2.245   1.102  0.00  0.00    +0.004 C 
ATOM     38  C   UNL     1       0.122   0.761   0.731  0.00  0.00    -0.002 C 
ENDBRANCH  36  38
ENDBRANCH  35  36
ENDBRANCH   1  35
TORSDOF 7
