REMARK  Name = ZINC53106976
REMARK  4 active torsions:
REMARK  status: ('A' for Active; 'I' for Inactive)
REMARK    1  A    between atoms: C_3  and  C_9
REMARK    2  A    between atoms: C_12  and  C_14
REMARK    3  A    between atoms: C_15  and  C_16
REMARK    4  A    between atoms: C_15  and  C_18
REMARK                            x       y       z     vdW  Elec       q    Type
REMARK                         _______ _______ _______ _____ _____    ______ ____
ROOT
ATOM      1  C   UNL     1       4.872   6.221  -1.882  0.00  0.00    +0.068 C 
ATOM      2  C   UNL     1       5.338   5.099  -2.542  0.00  0.00    +0.099 C 
ENDROOT
BRANCH   2   3
ATOM      3  C   UNL     1       4.394   4.218  -3.256  0.00  0.00    +0.177 A 
ATOM      4  N   UNL     1       3.729   3.274  -2.590  0.00  0.00    -0.194 NA
ATOM      5  C   UNL     1       2.879   2.481  -3.234  0.00  0.00    +0.217 A 
ATOM      6  N   UNL     1       2.691   2.629  -4.542  0.00  0.00    -0.181 NA
ATOM      7  C   UNL     1       3.354   3.570  -5.208  0.00  0.00    +0.217 A 
ATOM      8  N   UNL     1       3.158   3.722  -6.566  0.00  0.00    -0.327 N 
ATOM      9  N   UNL     1       4.201   4.368  -4.566  0.00  0.00    -0.194 NA
ATOM     10  N   UNL     1       2.190   1.504  -2.545  0.00  0.00    -0.327 N 
ATOM     11  H   UNL     1       2.537   3.143  -7.034  0.00  0.00    +0.145 HD
ATOM     12  H   UNL     1       2.382   1.344  -1.607  0.00  0.00    +0.145 HD
ATOM     13  H   UNL     1       1.514   0.976  -2.998  0.00  0.00    +0.145 HD
ATOM     14  H   UNL     1       3.641   4.409  -7.052  0.00  0.00    +0.145 HD
ENDBRANCH   2   3
BRANCH   1  18
ATOM     15  C   UNL     1       1.325   6.017  -1.667  0.00  0.00    +0.137 A 
ATOM     16  C   UNL     1       1.532   7.146  -0.905  0.00  0.00    +0.050 A 
ATOM     17  C   UNL     1       2.909   7.376  -0.883  0.00  0.00    +0.050 A 
ATOM     18  C   UNL     1       3.495   6.373  -1.638  0.00  0.00    +0.130 A 
ATOM     19  O   UNL     1       2.516   5.563  -2.095  0.00  0.00    -0.455 OA
BRANCH  15  22
ATOM     20  C   UNL     1      -1.646   4.701  -3.548  0.00  0.00    +0.002 A 
ATOM     21  C   UNL     1      -0.420   5.274  -3.281  0.00  0.00    +0.013 A 
ATOM     22  C   UNL     1       0.014   5.404  -1.960  0.00  0.00    +0.037 A 
ATOM     23  C   UNL     1      -0.798   4.951  -0.915  0.00  0.00    +0.070 A 
ATOM     24  C   UNL     1      -2.023   4.378  -1.198  0.00  0.00    +0.060 A 
ATOM     25  C   UNL     1      -2.446   4.254  -2.511  0.00  0.00    +0.021 A 
ATOM     26 CL   UNL     1      -3.034   3.814   0.095  0.00  0.00    -0.082 Cl
ATOM     27 CL   UNL     1      -0.268   5.106   0.730  0.00  0.00    -0.081 Cl
ENDBRANCH  15  22
ENDBRANCH   1  18
BRANCH   2  28
ATOM     28  C   UNL     1       6.737   4.792  -2.534  0.00  0.00    +0.103 C 
ATOM     29  N   UNL     1       7.847   4.549  -2.527  0.00  0.00    -0.191 NA
ENDBRANCH   2  28
TORSDOF 4
