REMARK  Name = ZINC37603335
REMARK  11 active torsions:
REMARK  status: ('A' for Active; 'I' for Inactive)
REMARK    1  A    between atoms: C_1  and  N_2
REMARK    2  A    between atoms: N_2  and  C_3
REMARK    3  A    between atoms: N_2  and  C_4
REMARK    4  A    between atoms: C_4  and  C_5
REMARK    5  A    between atoms: C_5  and  N_6
REMARK    6  A    between atoms: C_7  and  C_9
REMARK    7  A    between atoms: C_12  and  C_14
REMARK    8  A    between atoms: C_14  and  O_15
REMARK    9  A    between atoms: O_15  and  C_16
REMARK   10  A    between atoms: C_22  and  C_34
REMARK   11  A    between atoms: C_27  and  C_29
REMARK                            x       y       z     vdW  Elec       q    Type
REMARK                         _______ _______ _______ _____ _____    ______ ____
ROOT
ATOM      1  C   UNL     1     -10.213  -3.623   1.263  0.00  0.00    +0.121 A 
ATOM      2  C   UNL     1     -11.206  -3.213   0.383  0.00  0.00    +0.046 A 
ATOM      3  C   UNL     1     -12.406  -2.748   0.875  0.00  0.00    +0.007 A 
ATOM      4  C   UNL     1     -12.636  -2.688   2.245  0.00  0.00    -0.040 A 
ATOM      5  C   UNL     1     -11.655  -3.104   3.118  0.00  0.00    -0.016 A 
ATOM      6  C   UNL     1     -10.444  -3.571   2.627  0.00  0.00    +0.051 A 
ATOM      7  C   UNL     1     -11.849  -3.093   4.614  0.00  0.00    +0.137 C 
ATOM      8  N   UNL     1     -13.060  -2.338   4.949  0.00  0.00    -0.290 N 
ATOM      9  C   UNL     1     -14.263  -2.594   4.139  0.00  0.00    +0.113 C 
ATOM     10  C   UNL     1     -13.966  -2.154   2.706  0.00  0.00    +0.054 C 
ATOM     11  C   UNL     1     -13.073  -1.445   5.958  0.00  0.00    +0.219 C 
ATOM     12  O   UNL     1     -12.069  -1.252   6.610  0.00  0.00    -0.275 OA
ENDROOT
BRANCH   7  13
ATOM     13  C   UNL     1     -11.987  -4.508   5.112  0.00  0.00    -0.022 A 
ATOM     14  C   UNL     1     -11.158  -4.971   6.117  0.00  0.00    +0.008 A 
ATOM     15  C   UNL     1     -11.284  -6.269   6.575  0.00  0.00    +0.038 A 
ATOM     16  C   UNL     1     -12.241  -7.106   6.027  0.00  0.00    +0.123 A 
ATOM     17  C   UNL     1     -13.071  -6.641   5.021  0.00  0.00    +0.038 A 
ATOM     18  C   UNL     1     -12.947  -5.342   4.568  0.00  0.00    +0.008 A 
ATOM     19  F   UNL     1     -12.365  -8.375   6.474  0.00  0.00    -0.205 F 
ENDBRANCH   7  13
BRANCH  11  20
ATOM     20  C   UNL     1     -14.335  -0.685   6.277  0.00  0.00    +0.075 C 
ATOM     21  C   UNL     1     -14.737   0.198   5.078  0.00  0.00    +0.013 C 
ATOM     22  C   UNL     1     -15.295   1.489   5.728  0.00  0.00    +0.001 C 
ATOM     23  C   UNL     1     -14.356   1.694   6.942  0.00  0.00    +0.001 C 
ATOM     24  C   UNL     1     -14.093   0.266   7.462  0.00  0.00    +0.013 C 
ENDBRANCH  11  20
BRANCH   1  25
ATOM     25  O   UNL     1      -9.024  -4.079   0.787  0.00  0.00    -0.484 OA
BRANCH  25  26
ATOM     26  C   UNL     1      -8.860  -4.103  -0.632  0.00  0.00    +0.303 C 
BRANCH  26  30
ATOM     27  C   UNL     1      -5.343  -4.702  -1.417  0.00  0.00    +0.190 A 
ATOM     28  C   UNL     1      -5.805  -5.987  -1.462  0.00  0.00    +0.055 A 
ATOM     29  C   UNL     1      -7.178  -5.932  -1.175  0.00  0.00    +0.049 A 
ATOM     30  C   UNL     1      -7.490  -4.634  -0.969  0.00  0.00    +0.143 A 
ATOM     31  O   UNL     1      -6.381  -3.896  -1.111  0.00  0.00    -0.452 OA
BRANCH  27  33
ATOM     32  N   UNL     1      -3.635  -2.969  -1.571  0.00  0.00    -0.311 N 
ATOM     33  C   UNL     1      -3.960  -4.275  -1.653  0.00  0.00    +0.279 C 
ATOM     34  O   UNL     1      -3.106  -5.099  -1.922  0.00  0.00    -0.267 OA
ATOM     35  H   UNL     1      -4.316  -2.313  -1.357  0.00  0.00    +0.149 HD
BRANCH  32  36
ATOM     36  C   UNL     1      -2.254  -2.542  -1.807  0.00  0.00    +0.086 C 
BRANCH  36  37
ATOM     37  C   UNL     1      -2.157  -1.023  -1.654  0.00  0.00    -0.061 C 
BRANCH  37  39
ATOM     38  C   UNL     1      -0.701   0.872  -1.863  0.00  0.00    -0.097 C 
ATOM     39  N   UNL     1      -0.772  -0.595  -1.891  0.00  0.00    +0.377 N 
ATOM     40  C   UNL     1       0.097  -1.147  -0.843  0.00  0.00    -0.097 C 
ATOM     41  H   UNL     1      -0.465  -0.929  -2.792  0.00  0.00    -0.083 HD
ENDBRANCH  37  39
ENDBRANCH  36  37
ENDBRANCH  32  36
ENDBRANCH  27  33
ENDBRANCH  26  30
ENDBRANCH  25  26
ENDBRANCH   1  25
TORSDOF 9
