REMARK  Name = ZINC20302930
REMARK  6 active torsions:
REMARK  status: ('A' for Active; 'I' for Inactive)
REMARK    1  A    between atoms: C_1  and  C_2
REMARK    2  A    between atoms: C_5  and  N_8
REMARK    3  A    between atoms: N_8  and  C_9
REMARK    4  A    between atoms: C_9  and  C_11
REMARK    5  A    between atoms: C_9  and  C_12
REMARK    6  A    between atoms: N_17  and  C_18
REMARK                            x       y       z     vdW  Elec       q    Type
REMARK                         _______ _______ _______ _____ _____    ______ ____
ROOT
ATOM      1  C   UNL     1      -0.729   1.579   1.267  0.00  0.00    +0.014 C 
ATOM      2  C   UNL     1      -0.013   1.086   0.008  0.00  0.00    -0.004 C 
ENDROOT
BRANCH   1   3
ATOM      3  C   UNL     1       0.000   1.080   2.488  0.00  0.00    +0.206 C 
ATOM      4  O   UNL     1      -0.572   0.371   3.287  0.00  0.00    -0.277 OA
ATOM      5  N   UNL     1       1.288   1.422   2.691  0.00  0.00    -0.242 N 
ATOM      6  C   UNL     1       1.940   0.976   3.782  0.00  0.00    +0.306 C 
ATOM      7  O   UNL     1       1.366   0.265   4.584  0.00  0.00    -0.252 OA
ATOM      8  N   UNL     1       3.227   1.317   3.985  0.00  0.00    -0.302 N 
ATOM      9  C   UNL     1       3.936   0.832   5.172  0.00  0.00    +0.129 C 
ATOM     10  H   UNL     1       1.807   2.066   1.965  0.00  0.00    +0.159 HD
ATOM     11  H   UNL     1       3.746   1.961   3.260  0.00  0.00    +0.150 HD
ENDBRANCH   1   3
BRANCH   1  12
ATOM     12  N   UNL     1      -2.107   1.071   1.277  0.00  0.00    +0.388 N 
ATOM     13  H   UNL     1      -2.457   1.021   2.319  0.00  0.00    -0.084 HD
ATOM     14  H   UNL     1      -2.114   0.062   0.839  0.00  0.00    -0.084 HD
BRANCH  12  19
ATOM     15  C   UNL     1      -6.374   2.629   1.289  0.00  0.00    +0.007 C 
ATOM     16  C   UNL     1      -5.613   3.200   0.091  0.00  0.00    -0.014 C 
ATOM     17  C   UNL     1      -5.127   2.054  -0.798  0.00  0.00    +0.002 C 
ATOM     18  C   UNL     1      -4.200   1.141   0.007  0.00  0.00    -0.015 C 
ATOM     19  C   UNL     1      -2.997   1.947   0.504  0.00  0.00    -0.071 C 
ATOM     20  C   UNL     1      -3.483   3.093   1.393  0.00  0.00    -0.015 C 
ATOM     21  C   UNL     1      -4.410   4.005   0.587  0.00  0.00    +0.002 C 
ENDBRANCH  12  19
ENDBRANCH   1  12
TORSDOF 3
