REMARK  Name = ZINC01067280
REMARK  3 active torsions:
REMARK  status: ('A' for Active; 'I' for Inactive)
REMARK    1  A    between atoms: C_4  and  N_7
REMARK    2  A    between atoms: C_16  and  C_21
REMARK    3  A    between atoms: C_16  and  C_25
REMARK                            x       y       z     vdW  Elec       q    Type
REMARK                         _______ _______ _______ _____ _____    ______ ____
ROOT
ATOM      1  N   UNL     1       3.623  -0.652  -0.037  0.00  0.00    -0.249 N 
ATOM      2  C   UNL     1       3.643  -2.024   0.053  0.00  0.00    +0.126 A 
ATOM      3  C   UNL     1       4.847  -2.668   0.036  0.00  0.00    +0.096 A 
ATOM      4  C   UNL     1       6.033  -1.933  -0.073  0.00  0.00    +0.262 A 
ATOM      5  O   UNL     1       7.112  -2.500  -0.090  0.00  0.00    -0.267 OA
ATOM      6  N   UNL     1       5.966  -0.587  -0.159  0.00  0.00    -0.274 N 
ATOM      7  H   UNL     1       6.782  -0.067  -0.235  0.00  0.00    +0.173 HD
ATOM      8  C   UNL     1       4.774   0.037  -0.147  0.00  0.00    +0.335 A 
ATOM      9  O   UNL     1       4.736   1.250  -0.231  0.00  0.00    -0.246 OA
ATOM     10  C   UNL     1       4.858  -4.174   0.136  0.00  0.00    +0.260 C 
ATOM     11  N   UNL     1       3.546  -4.838   0.247  0.00  0.00    -0.274 N 
ATOM     12  C   UNL     1       2.437  -4.074   0.252  0.00  0.00    +0.306 C 
ATOM     13  O   UNL     1       1.354  -4.619   0.343  0.00  0.00    -0.252 OA
ATOM     14  N   UNL     1       2.477  -2.739   0.161  0.00  0.00    -0.255 N 
ATOM     15  H   UNL     1       3.483  -5.804   0.314  0.00  0.00    +0.152 HD
ATOM     16  H   UNL     1       1.638  -2.252   0.171  0.00  0.00    +0.158 HD
ENDROOT
BRANCH   1  20
ATOM     17  C   UNL     1      -0.016   1.380   0.011  0.00  0.00    +0.000 A 
ATOM     18  C   UNL     1       0.648   1.125   1.197  0.00  0.00    +0.002 A 
ATOM     19  C   UNL     1       1.854   0.452   1.184  0.00  0.00    +0.026 A 
ATOM     20  C   UNL     1       2.400   0.031  -0.021  0.00  0.00    +0.053 A 
ATOM     21  C   UNL     1       1.730   0.287  -1.210  0.00  0.00    +0.026 A 
ATOM     22  C   UNL     1       0.525   0.961  -1.191  0.00  0.00    +0.002 A 
ENDBRANCH   1  20
BRANCH  10  23
ATOM     23  C   UNL     1       5.564  -4.726  -1.104  0.00  0.00    +0.424 C 
ATOM     24  F   UNL     1       6.874  -4.236  -1.151  0.00  0.00    -0.168 F 
ATOM     25  F   UNL     1       5.591  -6.124  -1.042  0.00  0.00    -0.168 F 
ATOM     26  F   UNL     1       4.874  -4.324  -2.252  0.00  0.00    -0.168 F 
ENDBRANCH  10  23
BRANCH  10  27
ATOM     27  C   UNL     1       5.689  -4.561   1.361  0.00  0.00    +0.424 C 
ATOM     28  F   UNL     1       5.115  -4.005   2.509  0.00  0.00    -0.168 F 
ATOM     29  F   UNL     1       5.719  -5.955   1.483  0.00  0.00    -0.168 F 
ATOM     30  F   UNL     1       6.993  -4.078   1.210  0.00  0.00    -0.168 F 
ENDBRANCH  10  27
TORSDOF 3
