REMARK  Name = ZINC63062049
REMARK  4 active torsions:
REMARK  status: ('A' for Active; 'I' for Inactive)
REMARK    1  A    between atoms: C_1  and  C_2
REMARK    2  A    between atoms: C_7  and  O_8
REMARK    3  A    between atoms: O_8  and  C_9
REMARK    4  A    between atoms: C_14  and  C_15
REMARK                            x       y       z     vdW  Elec       q    Type
REMARK                         _______ _______ _______ _____ _____    ______ ____
ROOT
ATOM      1  C   UNL     1      -0.187  -0.760   3.523  0.00  0.00    +0.139 A 
ATOM      2  C   UNL     1      -0.159  -2.147   3.475  0.00  0.00    +0.047 A 
ATOM      3  C   UNL     1      -0.115  -2.879   4.644  0.00  0.00    +0.004 A 
ATOM      4  C   UNL     1      -0.099  -2.238   5.872  0.00  0.00    +0.001 A 
ATOM      5  C   UNL     1      -0.126  -0.862   5.938  0.00  0.00    +0.015 A 
ATOM      6  C   UNL     1      -0.165  -0.109   4.763  0.00  0.00    +0.054 A 
ENDROOT
BRANCH   6   7
ATOM      7  C   UNL     1      -0.188   1.367   4.827  0.00  0.00    +0.098 C 
ATOM      8  N   UNL     1      -1.141   1.988   5.521  0.00  0.00    -0.387 N 
ATOM      9  N   UNL     1       0.744   2.076   4.192  0.00  0.00    -0.344 N 
ATOM     10  H   UNL     1      -1.115   2.952   5.624  0.00  0.00    +0.157 HD
ATOM     11  H   UNL     1       1.438   1.623   3.688  0.00  0.00    +0.144 HD
ATOM     12  H   UNL     1       0.729   3.045   4.234  0.00  0.00    +0.144 HD
ATOM     13  H   UNL     1      -1.862   1.477   5.921  0.00  0.00    +0.157 HD
ENDBRANCH   6   7
BRANCH   1  14
ATOM     14  O   UNL     1      -0.230  -0.039   2.375  0.00  0.00    -0.455 OA
BRANCH  14  21
ATOM     15  C   UNL     1      -2.847  -0.758   1.594  0.00  0.00    +0.047 C 
ATOM     16  C   UNL     1      -1.632  -1.092   0.768  0.00  0.00    -0.007 A 
ATOM     17  C   UNL     1      -1.774  -1.772  -0.426  0.00  0.00    +0.022 A 
ATOM     18  C   UNL     1      -0.659  -2.079  -1.185  0.00  0.00    +0.018 A 
ATOM     19  C   UNL     1       0.601  -1.706  -0.750  0.00  0.00    +0.019 A 
ATOM     20  C   UNL     1       0.747  -1.027   0.444  0.00  0.00    +0.047 A 
ATOM     21  C   UNL     1      -0.371  -0.713   1.204  0.00  0.00    +0.131 A 
ATOM     22 BR   UNL     1      -0.856  -3.010  -2.819  0.00  0.00    -0.050 Br
ENDBRANCH  14  21
ENDBRANCH   1  14
TORSDOF 3
