REMARK  Name = ZINC33965105
REMARK  13 active torsions:
REMARK  status: ('A' for Active; 'I' for Inactive)
REMARK    1  A    between atoms: C_1  and  C_2
REMARK    2  A    between atoms: C_2  and  C_3
REMARK    3  A    between atoms: C_4  and  C_5
REMARK    4  A    between atoms: C_5  and  C_7
REMARK    5  A    between atoms: C_5  and  O_34
REMARK    6  A    between atoms: C_7  and  C_9
REMARK    7  A    between atoms: C_7  and  O_33
REMARK    8  A    between atoms: C_10  and  C_32
REMARK    9  A    between atoms: C_15  and  O_31
REMARK   10  A    between atoms: C_17  and  C_21
REMARK   11  A    between atoms: C_17  and  O_29
REMARK   12  A    between atoms: C_21  and  C_23
REMARK   13  A    between atoms: O_29  and  C_30
REMARK                            x       y       z     vdW  Elec       q    Type
REMARK                         _______ _______ _______ _____ _____    ______ ____
ROOT
ATOM      1  C   UNL     1       0.497  -3.241  -2.419  0.00  0.00    +0.137 C 
ATOM      2  C   UNL     1      -0.138  -3.772  -3.478  0.00  0.00    +0.037 C 
ATOM      3  C   UNL     1       0.809  -4.140  -4.459  0.00  0.00    +0.217 C 
ATOM      4  O   UNL     1       0.602  -4.647  -5.543  0.00  0.00    -0.287 OA
ATOM      5  C   UNL     1       2.137  -3.759  -3.857  0.00  0.00    +0.276 C 
ATOM      6  O   UNL     1       1.830  -3.202  -2.583  0.00  0.00    -0.467 OA
ATOM      7  C   UNL     1       2.875  -2.745  -4.745  0.00  0.00    +0.233 C 
ATOM      8  C   UNL     1       3.825  -3.667  -5.545  0.00  0.00    +0.231 C 
ATOM      9  N   UNL     1       4.010  -4.861  -4.708  0.00  0.00    -0.275 N 
ATOM     10  C   UNL     1       3.061  -4.941  -3.756  0.00  0.00    +0.270 C 
ATOM     11  O   UNL     1       2.966  -5.832  -2.938  0.00  0.00    -0.271 OA
ATOM     12  C   UNL     1      -1.630  -3.948  -3.600  0.00  0.00    +0.051 C 
ATOM     13  H   UNL     1       4.723  -5.507  -4.827  0.00  0.00    +0.152 HD
ENDROOT
BRANCH   8  14
ATOM     14  C   UNL     1       5.147  -2.982  -5.774  0.00  0.00    +0.216 C 
ATOM     15  O   UNL     1       6.167  -3.471  -5.339  0.00  0.00    -0.287 OA
BRANCH  14  16
ATOM     16  C   UNL     1       5.199  -1.718  -6.527  0.00  0.00    +0.022 A 
ATOM     17  C   UNL     1       4.045  -1.213  -7.134  0.00  0.00    +0.011 A 
ATOM     18  C   UNL     1       4.102  -0.028  -7.837  0.00  0.00    +0.001 A 
ATOM     19  C   UNL     1       5.298   0.661  -7.942  0.00  0.00    +0.000 A 
ATOM     20  C   UNL     1       6.445   0.167  -7.345  0.00  0.00    +0.001 A 
ATOM     21  C   UNL     1       6.402  -1.013  -6.634  0.00  0.00    +0.011 A 
ENDBRANCH  14  16
ENDBRANCH   8  14
BRANCH   8  22
ATOM     22  O   UNL     1       3.230  -4.027  -6.793  0.00  0.00    -0.350 OA
ATOM     23  C   UNL     1       3.991  -4.970  -7.550  0.00  0.00    +0.197 C 
ENDBRANCH   8  22
BRANCH   7  24
ATOM     24  O   UNL     1       3.612  -1.811  -3.954  0.00  0.00    -0.382 OA
ATOM     25  H   UNL     1       4.095  -1.152  -4.471  0.00  0.00    +0.210 HD
ENDBRANCH   7  24
BRANCH   1  26
ATOM     26  C   UNL     1      -0.209  -2.738  -1.187  0.00  0.00    +0.212 C 
BRANCH  26  27
ATOM     27  O   UNL     1       0.332  -3.381  -0.032  0.00  0.00    -0.381 OA
ATOM     28  H   UNL     1       1.278  -3.226   0.098  0.00  0.00    +0.210 HD
ENDBRANCH  26  27
BRANCH  26  29
ATOM     29  C   UNL     1      -0.012  -1.225  -1.067  0.00  0.00    +0.173 C 
BRANCH  29  31
ATOM     30  C   UNL     1      -0.068  -0.000   1.044  0.00  0.00    -0.029 C 
ATOM     31  C   UNL     1      -0.718  -0.722   0.166  0.00  0.00    +0.003 C 
BRANCH  30  33
ATOM     32  C   UNL     1       1.415   1.985   0.961  0.00  0.00    +0.008 C 
ATOM     33  C   UNL     1       1.330   0.473   0.744  0.00  0.00    +0.023 C 
ENDBRANCH  30  33
ENDBRANCH  29  31
BRANCH  29  34
ATOM     34  O   UNL     1      -0.554  -0.582  -2.222  0.00  0.00    -0.385 OA
ATOM     35  H   UNL     1      -1.499  -0.737  -2.352  0.00  0.00    +0.210 HD
ENDBRANCH  29  34
ENDBRANCH  26  29
ENDBRANCH   1  26
TORSDOF 10
