REMARK  Name = ZINC04258482
REMARK  11 active torsions:
REMARK  status: ('A' for Active; 'I' for Inactive)
REMARK    1  A    between atoms: C_6  and  C_7
REMARK    2  A    between atoms: C_7  and  C_8
REMARK    3  A    between atoms: C_8  and  C_10
REMARK    4  A    between atoms: C_13  and  O_17
REMARK    5  A    between atoms: C_15  and  O_16
REMARK    6  A    between atoms: O_17  and  C_18
REMARK    7  A    between atoms: C_20  and  O_33
REMARK    8  A    between atoms: C_22  and  O_32
REMARK    9  A    between atoms: C_24  and  O_31
REMARK   10  A    between atoms: C_26  and  C_29
REMARK   11  A    between atoms: C_29  and  O_30
REMARK                            x       y       z     vdW  Elec       q    Type
REMARK                         _______ _______ _______ _____ _____    ______ ____
ROOT
ATOM      1  C   UNL     1       5.380  -1.662  -1.762  0.00  0.00    +0.059 A 
ATOM      2  C   UNL     1       6.192  -2.113  -0.711  0.00  0.00    +0.018 A 
ATOM      3  C   UNL     1       7.354  -2.775  -0.982  0.00  0.00    +0.046 A 
ATOM      4  C   UNL     1       7.748  -2.998  -2.299  0.00  0.00    +0.128 A 
ATOM      5  C   UNL     1       6.960  -2.554  -3.351  0.00  0.00    +0.091 A 
ATOM      6  C   UNL     1       5.776  -1.886  -3.092  0.00  0.00    +0.131 A 
ENDROOT
BRANCH   1   7
ATOM      7  C   UNL     1       4.130  -0.956  -1.474  0.00  0.00    +0.171 C 
ATOM      8  O   UNL     1       3.432  -0.562  -2.385  0.00  0.00    -0.292 OA
BRANCH   7   9
ATOM      9  C   UNL     1       3.709  -0.718  -0.046  0.00  0.00    +0.115 C 
BRANCH   9  15
ATOM     10  C   UNL     1       1.208  -0.680  -0.016  0.00  0.00    +0.008 A 
ATOM     11  C   UNL     1       0.002  -0.004   0.002  0.00  0.00    +0.050 A 
ATOM     12  C   UNL     1      -0.017   1.382   0.010  0.00  0.00    +0.162 A 
ATOM     13  C   UNL     1       1.180   2.090   0.002  0.00  0.00    +0.162 A 
ATOM     14  C   UNL     1       2.386   1.406  -0.016  0.00  0.00    +0.053 A 
ATOM     15  C   UNL     1       2.397   0.023  -0.026  0.00  0.00    -0.036 A 
ATOM     16  O   UNL     1       1.184   3.451   0.018  0.00  0.00    -0.485 OA
ATOM     17  C   UNL     1      -0.040   4.103  -0.340  0.00  0.00    +0.270 C 
ATOM     18  C   UNL     1      -1.188   3.413   0.408  0.00  0.00    +0.270 C 
ATOM     19  O   UNL     1      -1.211   2.034   0.019  0.00  0.00    -0.485 OA
ENDBRANCH   9  15
ENDBRANCH   7   9
ENDBRANCH   1   7
BRANCH   6  20
ATOM     20  O   UNL     1       5.001  -1.450  -4.117  0.00  0.00    -0.506 OA
ATOM     21  H   UNL     1       5.210  -0.554  -4.414  0.00  0.00    +0.292 HD
ENDBRANCH   6  20
BRANCH   4  22
ATOM     22  O   UNL     1       8.908  -3.654  -2.554  0.00  0.00    -0.461 OA
BRANCH  22  23
ATOM     23  C   UNL     1       9.672  -4.084  -1.425  0.00  0.00    +0.339 C 
ATOM     24  C   UNL     1      10.871  -4.906  -1.905  0.00  0.00    +0.214 C 
ATOM     25  C   UNL     1      11.775  -4.021  -2.767  0.00  0.00    +0.180 C 
ATOM     26  C   UNL     1      12.199  -2.795  -1.952  0.00  0.00    +0.177 C 
ATOM     27  C   UNL     1      10.948  -2.054  -1.472  0.00  0.00    +0.179 C 
ATOM     28  O   UNL     1      10.137  -2.943  -0.701  0.00  0.00    -0.331 OA
BRANCH  26  29
ATOM     29  O   UNL     1      12.970  -3.214  -0.825  0.00  0.00    -0.386 OA
ATOM     30  H   UNL     1      13.777  -3.695  -1.057  0.00  0.00    +0.210 HD
ENDBRANCH  26  29
BRANCH  25  31
ATOM     31  O   UNL     1      12.935  -4.758  -3.159  0.00  0.00    -0.386 OA
ATOM     32  H   UNL     1      12.740  -5.554  -3.673  0.00  0.00    +0.210 HD
ENDBRANCH  25  31
BRANCH  24  33
ATOM     33  O   UNL     1      10.411  -6.016  -2.678  0.00  0.00    -0.383 OA
ATOM     34  H   UNL     1       9.828  -6.617  -2.195  0.00  0.00    +0.210 HD
ENDBRANCH  24  33
BRANCH  27  35
ATOM     35  C   UNL     1      11.362  -0.862  -0.606  0.00  0.00    +0.190 C 
BRANCH  35  36
ATOM     36  O   UNL     1      10.203  -0.104  -0.254  0.00  0.00    -0.392 OA
ATOM     37  H   UNL     1      10.391   0.669   0.296  0.00  0.00    +0.210 HD
ENDBRANCH  35  36
ENDBRANCH  27  35
ENDBRANCH  22  23
ENDBRANCH   4  22
TORSDOF 11
