REMARK  Name = ZINC02131327
REMARK  11 active torsions:
REMARK  status: ('A' for Active; 'I' for Inactive)
REMARK    1  A    between atoms: C_1  and  C_2
REMARK    2  A    between atoms: C_7  and  C_8
REMARK    3  A    between atoms: C_17  and  C_19
REMARK    4  A    between atoms: C_19  and  C_20
REMARK    5  A    between atoms: N_25  and  C_28
REMARK    6  A    between atoms: C_28  and  C_29
REMARK    7  A    between atoms: C_29  and  C_30
REMARK    8  A    between atoms: C_33  and  O_38
REMARK    9  A    between atoms: C_34  and  O_36
REMARK   10  A    between atoms: O_36  and  C_37
REMARK   11  A    between atoms: O_38  and  C_39
REMARK                            x       y       z     vdW  Elec       q    Type
REMARK                         _______ _______ _______ _____ _____    ______ ____
ROOT
ATOM      1  C   UNL     1       3.025   9.580   2.333  0.00  0.00    +0.044 C 
ATOM      2  C   UNL     1       2.656   9.585   0.871  0.00  0.00    -0.046 A 
ATOM      3  C   UNL     1       2.620   8.396   0.166  0.00  0.00    +0.004 A 
ATOM      4  C   UNL     1       2.282   8.402  -1.176  0.00  0.00    +0.005 A 
ATOM      5  C   UNL     1       1.981   9.588  -1.806  0.00  0.00    -0.027 A 
ATOM      6  C   UNL     1       2.013  10.791  -1.106  0.00  0.00    +0.039 A 
ATOM      7  C   UNL     1       2.355  10.777   0.244  0.00  0.00    -0.026 A 
ATOM      8  C   UNL     1       2.396  12.066   1.022  0.00  0.00    +0.046 C 
ATOM      9  N   UNL     1       1.672  11.850  -1.950  0.00  0.00    -0.286 N 
ATOM     10  C   UNL     1       1.406  11.436  -3.204  0.00  0.00    +0.211 C 
ATOM     11  O   UNL     1       1.084  12.132  -4.143  0.00  0.00    -0.277 OA
ATOM     12  C   UNL     1       1.585   9.942  -3.212  0.00  0.00    +0.050 C 
ATOM     13  C   UNL     1       0.298   9.226  -3.634  0.00  0.00    +0.088 C 
ATOM     14  C   UNL     1       0.782   8.004  -4.464  0.00  0.00    +0.073 C 
ATOM     15  C   UNL     1       2.324   8.076  -4.440  0.00  0.00    -0.049 C 
ATOM     16  C   UNL     1       0.329   6.821  -3.640  0.00  0.00    +0.224 C 
ATOM     17  O   UNL     1       0.503   5.657  -3.930  0.00  0.00    -0.275 OA
ATOM     18  N   UNL     1      -0.296   7.258  -2.540  0.00  0.00    -0.241 N 
ATOM     19  C   UNL     1      -0.374   8.590  -2.438  0.00  0.00    +0.225 C 
ATOM     20  O   UNL     1      -0.898   9.193  -1.527  0.00  0.00    -0.275 OA
ATOM     21  H   UNL     1       1.631  12.777  -1.666  0.00  0.00    +0.155 HD
ATOM     22  N   UNL     1       2.590   9.510  -4.169  0.00  0.00    +0.394 N 
ATOM     23  H   UNL     1       3.530   9.628  -3.774  0.00  0.00    -0.083 HD
ATOM     24  H   UNL     1       2.512  10.055  -5.036  0.00  0.00    -0.083 HD
ENDROOT
BRANCH  15  25
ATOM     25  C   UNL     1       2.899   7.649  -5.792  0.00  0.00    +0.080 C 
BRANCH  25  26
ATOM     26  C   UNL     1       4.403   7.608  -5.709  0.00  0.00    +0.209 C 
ATOM     27  O   UNL     1       4.960   7.893  -4.670  0.00  0.00    -0.276 OA
ATOM     28  N   UNL     1       5.128   7.255  -6.788  0.00  0.00    -0.329 N 
ATOM     29  H   UNL     1       4.682   7.027  -7.619  0.00  0.00    +0.145 HD
ATOM     30  H   UNL     1       6.096   7.229  -6.734  0.00  0.00    +0.145 HD
ENDBRANCH  25  26
ENDBRANCH  15  25
BRANCH  18  31
ATOM     31  C   UNL     1      -0.855   6.352  -1.533  0.00  0.00    +0.121 C 
BRANCH  31  32
ATOM     32  C   UNL     1       0.207   6.050  -0.474  0.00  0.00    +0.054 C 
BRANCH  32  33
ATOM     33  C   UNL     1      -0.368   5.119   0.562  0.00  0.00    -0.042 A 
ATOM     34  C   UNL     1      -1.003   5.634   1.677  0.00  0.00    +0.007 A 
ATOM     35  C   UNL     1      -1.532   4.784   2.629  0.00  0.00    +0.049 A 
ATOM     36  C   UNL     1      -1.432   3.411   2.465  0.00  0.00    +0.161 A 
ATOM     37  C   UNL     1      -0.787   2.893   1.346  0.00  0.00    +0.162 A 
ATOM     38  C   UNL     1      -0.259   3.751   0.395  0.00  0.00    +0.053 A 
BRANCH  37  39
ATOM     39  O   UNL     1      -0.682   1.547   1.184  0.00  0.00    -0.491 OA
ATOM     40  C   UNL     1      -0.013   1.086   0.008  0.00  0.00    +0.277 C 
ENDBRANCH  37  39
BRANCH  36  41
ATOM     41  O   UNL     1      -1.957   2.573   3.399  0.00  0.00    -0.491 OA
ATOM     42  C   UNL     1      -2.603   3.176   4.521  0.00  0.00    +0.277 C 
ENDBRANCH  36  41
ENDBRANCH  32  33
ENDBRANCH  31  32
ENDBRANCH  18  31
TORSDOF 7
