REMARK  Name = ZINC36227461
REMARK  7 active torsions:
REMARK  status: ('A' for Active; 'I' for Inactive)
REMARK    1  A    between atoms: C_1  and  C_2
REMARK    2  A    between atoms: C_2  and  C_3
REMARK    3  A    between atoms: C_2  and  C_4
REMARK    4  A    between atoms: C_4  and  C_6
REMARK    5  A    between atoms: C_4  and  N_17
REMARK    6  A    between atoms: C_12  and  C_15
REMARK    7  A    between atoms: C_15  and  O_16
REMARK                            x       y       z     vdW  Elec       q    Type
REMARK                         _______ _______ _______ _____ _____    ______ ____
ROOT
ATOM      1  C   UNL     1      -2.227  -0.140  -1.076  0.00  0.00    +0.201 C 
ATOM      2  O   UNL     1      -2.470  -0.961  -1.934  0.00  0.00    -0.277 OA
ATOM      3  N   UNL     1      -2.648   1.132  -1.221  0.00  0.00    -0.302 N 
ATOM      4  C   UNL     1      -2.425   2.121  -0.157  0.00  0.00    +0.108 C 
ATOM      5  C   UNL     1      -3.766   2.769   0.203  0.00  0.00    +0.019 C 
ATOM      6  C   UNL     1      -4.407   3.342  -1.063  0.00  0.00    +0.009 C 
ATOM      7  C   UNL     1      -4.670   2.211  -2.061  0.00  0.00    +0.032 C 
ATOM      8  C   UNL     1      -3.334   1.558  -2.449  0.00  0.00    +0.113 C 
ENDROOT
BRANCH   1   9
ATOM      9  C   UNL     1      -1.453  -0.541   0.153  0.00  0.00    +0.016 C 
BRANCH   9  10
ATOM     10  N   UNL     1      -1.635  -1.978   0.398  0.00  0.00    +0.386 N 
ATOM     11  H   UNL     1      -1.117  -2.247   1.222  0.00  0.00    -0.089 HD
ATOM     12  H   UNL     1      -2.615  -2.175   0.539  0.00  0.00    -0.089 HD
ATOM     13  H   UNL     1      -1.298  -2.500  -0.397  0.00  0.00    -0.089 HD
ENDBRANCH   9  10
BRANCH   9  15
ATOM     14  C   UNL     1       0.213   1.239  -0.391  0.00  0.00    +0.006 C 
ATOM     15  C   UNL     1       0.032  -0.244  -0.059  0.00  0.00    -0.023 C 
ATOM     16  C   UNL     1       0.807  -0.580   1.217  0.00  0.00    +0.006 C 
ENDBRANCH   9  15
ENDBRANCH   1   9
BRANCH   7  17
ATOM     17  C   UNL     1      -5.341   2.780  -3.312  0.00  0.00    +0.160 C 
BRANCH  17  18
ATOM     18  O   UNL     1      -6.632   3.289  -2.970  0.00  0.00    -0.395 OA
ATOM     19  H   UNL     1      -7.117   3.666  -3.717  0.00  0.00    +0.209 HD
ENDBRANCH  17  18
ENDBRANCH   7  17
TORSDOF 5
