REMARK  Name = ZINC08851292
REMARK  10 active torsions:
REMARK  status: ('A' for Active; 'I' for Inactive)
REMARK    1  A    between atoms: C_1  and  C_2
REMARK    2  A    between atoms: C_5  and  C_35
REMARK    3  A    between atoms: C_5  and  C_36
REMARK    4  A    between atoms: N_11  and  C_15
REMARK    5  A    between atoms: C_15  and  N_70
REMARK    6  A    between atoms: C_20  and  O_33
REMARK    7  A    between atoms: C_21  and  O_31
REMARK    8  A    between atoms: C_24  and  C_26
REMARK    9  A    between atoms: O_31  and  C_32
REMARK   10  A    between atoms: O_33  and  C_34
REMARK                            x       y       z     vdW  Elec       q    Type
REMARK                         _______ _______ _______ _____ _____    ______ ____
ROOT
ATOM      1  C   UNL     1      -3.268   2.970   0.888  0.00  0.00    -0.071 C 
ATOM      2  C   UNL     1      -3.879   2.677  -0.482  0.00  0.00    +0.017 C 
ATOM      3  C   UNL     1      -2.829   2.821  -1.554  0.00  0.00    -0.043 A 
ATOM      4  C   UNL     1      -3.245   2.946  -2.872  0.00  0.00    +0.053 A 
ATOM      5  C   UNL     1      -2.317   3.076  -3.889  0.00  0.00    +0.162 A 
ATOM      6  C   UNL     1      -0.958   3.080  -3.586  0.00  0.00    +0.162 A 
ATOM      7  C   UNL     1      -0.549   2.957  -2.271  0.00  0.00    +0.052 A 
ATOM      8  C   UNL     1      -1.484   2.828  -1.253  0.00  0.00    -0.049 A 
ATOM      9  C   UNL     1      -0.986   2.700   0.163  0.00  0.00    +0.003 C 
ATOM     10  N   UNL     1      -2.047   2.149   1.023  0.00  0.00    +0.398 N 
ATOM     11  H   UNL     1      -2.254   1.188   0.726  0.00  0.00    -0.078 HD
ENDROOT
BRANCH   9  12
ATOM     12  C   UNL     1       0.197   1.767   0.192  0.00  0.00    -0.019 A 
ATOM     13  C   UNL     1       1.519   2.066   0.223  0.00  0.00    +0.010 A 
ATOM     14  C   UNL     1       2.439   1.034   0.240  0.00  0.00    +0.008 A 
ATOM     15  C   UNL     1       1.992  -0.246   0.226  0.00  0.00    +0.045 A 
ATOM     16  S   UNL     1       0.222  -0.018   0.186  0.00  0.00    -0.103 S 
ENDBRANCH   9  12
BRANCH   6  17
ATOM     17  O   UNL     1      -0.037   3.207  -4.579  0.00  0.00    -0.491 OA
ATOM     18  C   UNL     1       1.338   3.203  -4.192  0.00  0.00    +0.277 C 
ENDBRANCH   6  17
BRANCH   5  19
ATOM     19  O   UNL     1      -2.729   3.199  -5.179  0.00  0.00    -0.491 OA
ATOM     20  C   UNL     1      -4.139   3.186  -5.413  0.00  0.00    +0.277 C 
ENDBRANCH   5  19
BRANCH  10  21
ATOM     21  C   UNL     1      -1.600   2.132   2.433  0.00  0.00    +0.044 C 
BRANCH  21  31
ATOM     22  C   UNL     1      -8.380   1.404   4.370  0.00  0.00    +0.007 C 
ATOM     23  C   UNL     1      -7.020   1.822   4.933  0.00  0.00    -0.011 C 
ATOM     24  C   UNL     1      -6.873   1.290   6.360  0.00  0.00    +0.009 C 
ATOM     25  C   UNL     1      -5.518   1.717   6.927  0.00  0.00    -0.032 C 
ATOM     26  C   UNL     1      -4.397   1.139   6.059  0.00  0.00    +0.041 C 
ATOM     27  C   UNL     1      -4.549   1.641   4.628  0.00  0.00    +0.113 C 
ATOM     28  C   UNL     1      -5.906   1.244   4.057  0.00  0.00    +0.038 C 
ATOM     29  C   UNL     1      -3.435   1.103   3.760  0.00  0.00    +0.245 C 
ATOM     30  O   UNL     1      -3.191  -0.060   3.515  0.00  0.00    -0.273 OA
ATOM     31  N   UNL     1      -2.768   2.188   3.315  0.00  0.00    -0.241 N 
ATOM     32  C   UNL     1      -3.304   3.322   3.784  0.00  0.00    +0.308 C 
ATOM     33  O   UNL     1      -2.874   4.429   3.525  0.00  0.00    -0.252 OA
ATOM     34  N   UNL     1      -4.373   3.098   4.571  0.00  0.00    -0.285 N 
ATOM     35  C   UNL     1      -5.376   1.195   8.358  0.00  0.00    +0.011 C 
ATOM     36  C   UNL     1      -5.425   3.244   6.930  0.00  0.00    +0.011 C 
ATOM     37  H   UNL     1      -4.917   3.766   5.015  0.00  0.00    +0.151 HD
ENDBRANCH  21  31
ENDBRANCH  10  21
TORSDOF 5
