REMARK  Name = ZINC21234465
REMARK  10 active torsions:
REMARK  status: ('A' for Active; 'I' for Inactive)
REMARK    1  A    between atoms: C_1  and  C_2
REMARK    2  A    between atoms: C_2  and  C_3
REMARK    3  A    between atoms: C_2  and  O_4
REMARK    4  A    between atoms: O_4  and  C_5
REMARK    5  A    between atoms: C_8  and  C_11
REMARK    6  A    between atoms: C_16  and  C_22
REMARK    7  A    between atoms: C_24  and  O_31
REMARK    8  A    between atoms: C_27  and  O_28
REMARK    9  A    between atoms: O_28  and  C_29
REMARK   10  A    between atoms: O_31  and  C_32
REMARK                            x       y       z     vdW  Elec       q    Type
REMARK                         _______ _______ _______ _____ _____    ______ ____
ROOT
ATOM      1  C   UNL     1       2.363   3.937  -0.897  0.00  0.00    +0.032 C 
ATOM      2  C   UNL     1       2.292   4.620  -2.265  0.00  0.00    +0.059 C 
ATOM      3  C   UNL     1       3.543   5.430  -2.492  0.00  0.00    +0.018 C 
ATOM      4  C   UNL     1       4.203   5.989  -1.456  0.00  0.00    +0.020 C 
ATOM      5  C   UNL     1       5.452   6.801  -1.708  0.00  0.00    +0.066 C 
ATOM      6  C   UNL     1       5.311   7.552  -3.033  0.00  0.00    +0.109 C 
ATOM      7  C   UNL     1       4.837   6.594  -4.095  0.00  0.00    +0.218 C 
ATOM      8  O   UNL     1       5.210   6.728  -5.241  0.00  0.00    -0.275 OA
ATOM      9  N   UNL     1       4.001   5.591  -3.775  0.00  0.00    -0.289 N 
ATOM     10  C   UNL     1       3.757   5.830  -0.133  0.00  0.00    +0.162 C 
ATOM     11  O   UNL     1       4.369   6.360   0.772  0.00  0.00    -0.292 OA
ATOM     12  C   UNL     1       2.531   5.015   0.179  0.00  0.00    +0.088 C 
ATOM     13  H   UNL     1       3.685   4.892  -4.563  0.00  0.00    +0.155 HD
ENDROOT
BRANCH   5  14
ATOM     14  C   UNL     1       6.644   5.882  -1.776  0.00  0.00    +0.006 A 
ATOM     15  C   UNL     1       6.692   4.882  -2.728  0.00  0.00    +0.054 A 
ATOM     16  C   UNL     1       7.791   4.040  -2.795  0.00  0.00    +0.134 A 
ATOM     17  C   UNL     1       8.839   4.194  -1.897  0.00  0.00    +0.063 A 
ATOM     18  C   UNL     1       8.788   5.190  -0.942  0.00  0.00    +0.064 A 
ATOM     19  C   UNL     1       7.691   6.037  -0.880  0.00  0.00    +0.125 A 
ATOM     20 BR   UNL     1      10.334   3.040  -1.982  0.00  0.00    -0.046 Br
BRANCH  19  21
ATOM     21  O   UNL     1       7.641   7.017   0.061  0.00  0.00    -0.495 OA
ATOM     22  C   UNL     1       8.754   7.119   0.952  0.00  0.00    +0.277 C 
ENDBRANCH  19  21
BRANCH  16  23
ATOM     23  O   UNL     1       7.841   3.059  -3.736  0.00  0.00    -0.494 OA
ATOM     24  C   UNL     1       6.728   2.958  -4.627  0.00  0.00    +0.277 C 
ENDBRANCH  16  23
ENDBRANCH   5  14
BRANCH   1  28
ATOM     25  C   UNL     1      -1.244   1.754  -0.199  0.00  0.00    +0.121 A 
ATOM     26  C   UNL     1      -0.024   1.094  -0.215  0.00  0.00    +0.046 A 
ATOM     27  C   UNL     1       1.140   1.801  -0.443  0.00  0.00    +0.007 A 
ATOM     28  C   UNL     1       1.091   3.168  -0.649  0.00  0.00    -0.043 A 
ATOM     29  C   UNL     1      -0.123   3.829  -0.628  0.00  0.00    +0.007 A 
ATOM     30  C   UNL     1      -1.290   3.126  -0.401  0.00  0.00    +0.046 A 
BRANCH  25  31
ATOM     31  O   UNL     1      -2.392   1.060   0.020  0.00  0.00    -0.489 OA
BRANCH  31  33
ATOM     32  C   UNL     1      -4.165   2.099  -1.252  0.00  0.00    +0.051 C 
ATOM     33  C   UNL     1      -3.596   1.819   0.140  0.00  0.00    +0.167 C 
ATOM     34  C   UNL     1      -4.618   1.027   0.958  0.00  0.00    +0.051 C 
ENDBRANCH  31  33
ENDBRANCH  25  31
ENDBRANCH   1  28
TORSDOF 6
