REMARK  Name = ZINC37264027
REMARK  14 active torsions:
REMARK  status: ('A' for Active; 'I' for Inactive)
REMARK    1  A    between atoms: C_1  and  C_2
REMARK    2  A    between atoms: C_7  and  N_8
REMARK    3  A    between atoms: C_11  and  C_13
REMARK    4  A    between atoms: C_13  and  C_14
REMARK    5  A    between atoms: C_13  and  C_15
REMARK    6  A    between atoms: C_13  and  C_16
REMARK    7  A    between atoms: C_17  and  C_33
REMARK    8  A    between atoms: N_23  and  C_24
REMARK    9  A    between atoms: C_24  and  C_25
REMARK   10  A    between atoms: N_27  and  C_28
REMARK   11  A    between atoms: C_28  and  C_29
REMARK   12  A    between atoms: C_29  and  N_30
REMARK   13  A    between atoms: N_30  and  C_31
REMARK   14  A    between atoms: N_30  and  C_32
REMARK                            x       y       z     vdW  Elec       q    Type
REMARK                         _______ _______ _______ _____ _____    ______ ____
ROOT
ATOM      1  N   UNL     1       1.295   3.587   1.514  0.00  0.00    -0.217 N 
ATOM      2  C   UNL     1       2.173   2.572   1.694  0.00  0.00    +0.136 A 
ATOM      3  C   UNL     1       2.120   2.196   2.992  0.00  0.00    +0.034 A 
ATOM      4  C   UNL     1       1.177   3.000   3.634  0.00  0.00    +0.075 A 
ATOM      5  N   UNL     1       0.685   3.838   2.753  0.00  0.00    -0.169 NA
ATOM      6  C   UNL     1       2.953   1.099   3.605  0.00  0.00    +0.112 C 
ATOM      7  S   UNL     1       2.302  -0.513   3.036  0.00  0.00    -0.138 S 
ATOM      8  C   UNL     1       1.938  -0.174   1.282  0.00  0.00    +0.166 C 
ATOM      9  C   UNL     1       3.032   0.639   0.660  0.00  0.00    +0.231 C 
ATOM     10  O   UNL     1       3.942   0.084   0.081  0.00  0.00    -0.274 OA
ATOM     11  N   UNL     1       3.010   1.974   0.740  0.00  0.00    -0.246 N 
ENDROOT
BRANCH   1  18
ATOM     12  C   UNL     1       1.273   6.433   1.556  0.00  0.00    +0.046 C 
ATOM     13  C   UNL     1       1.026   5.654   0.290  0.00  0.00    -0.025 A 
ATOM     14  C   UNL     1       0.785   6.321  -0.896  0.00  0.00    +0.005 A 
ATOM     15  C   UNL     1       0.558   5.607  -2.058  0.00  0.00    +0.000 A 
ATOM     16  C   UNL     1       0.571   4.224  -2.037  0.00  0.00    +0.002 A 
ATOM     17  C   UNL     1       0.811   3.552  -0.855  0.00  0.00    +0.028 A 
ATOM     18  C   UNL     1       1.045   4.266   0.313  0.00  0.00    +0.070 A 
ENDBRANCH   1  18
BRANCH   6  19
ATOM     19  C   UNL     1       2.870   1.181   5.107  0.00  0.00    -0.023 A 
ATOM     20  C   UNL     1       2.011   0.356   5.809  0.00  0.00    +0.012 A 
ATOM     21  C   UNL     1       1.961   0.454   7.160  0.00  0.00    +0.045 A 
ATOM     22  S   UNL     1       3.154   1.744   7.480  0.00  0.00    -0.105 S 
ATOM     23  C   UNL     1       3.642   2.060   5.792  0.00  0.00    +0.050 A 
ENDBRANCH   6  19
BRANCH   4  24
ATOM     24  C   UNL     1       0.795   2.924   5.090  0.00  0.00    +0.007 C 
ATOM     25  C   UNL     1       1.931   3.486   5.946  0.00  0.00    +0.017 C 
ATOM     26  C   UNL     1      -0.476   3.742   5.327  0.00  0.00    +0.017 C 
ATOM     27  C   UNL     1       0.541   1.464   5.474  0.00  0.00    +0.017 C 
ENDBRANCH   4  24
BRANCH  11  28
ATOM     28  C   UNL     1       3.840   2.792  -0.147  0.00  0.00    +0.210 C 
BRANCH  28  29
ATOM     29  C   UNL     1       5.131   3.138   0.551  0.00  0.00    +0.231 C 
ATOM     30  O   UNL     1       5.337   2.740   1.678  0.00  0.00    -0.274 OA
ATOM     31  N   UNL     1       6.056   3.889  -0.078  0.00  0.00    -0.316 N 
ATOM     32  H   UNL     1       5.892   4.208  -0.980  0.00  0.00    +0.149 HD
BRANCH  31  33
ATOM     33  C   UNL     1       7.311   4.226   0.600  0.00  0.00    +0.085 C 
BRANCH  33  34
ATOM     34  C   UNL     1       8.178   5.080  -0.327  0.00  0.00    -0.061 C 
BRANCH  34  35
ATOM     35  N   UNL     1       9.436   5.417   0.353  0.00  0.00    +0.377 N 
ATOM     36  C   UNL     1      10.318   6.135  -0.577  0.00  0.00    -0.097 C 
ATOM     37  C   UNL     1       9.151   6.270   1.515  0.00  0.00    -0.097 C 
ATOM     38  H   UNL     1       9.889   4.570   0.661  0.00  0.00    -0.083 HD
ENDBRANCH  34  35
ENDBRANCH  33  34
ENDBRANCH  31  33
ENDBRANCH  28  29
ENDBRANCH  11  28
TORSDOF 8
