REMARK  Name = ZINC29042450
REMARK  12 active torsions:
REMARK  status: ('A' for Active; 'I' for Inactive)
REMARK    1  A    between atoms: C_1  and  C_2
REMARK    2  A    between atoms: C_7  and  C_8
REMARK    3  A    between atoms: C_8  and  C_9
REMARK    4  A    between atoms: C_9  and  N_10
REMARK    5  A    between atoms: N_10  and  C_11
REMARK    6  A    between atoms: C_14  and  C_29
REMARK    7  A    between atoms: C_15  and  C_18
REMARK    8  A    between atoms: C_18  and  C_19
REMARK    9  A    between atoms: N_21  and  C_22
REMARK   10  A    between atoms: C_22  and  C_23
REMARK   11  A    between atoms: C_23  and  O_24
REMARK   12  A    between atoms: O_24  and  N_25
REMARK                            x       y       z     vdW  Elec       q    Type
REMARK                         _______ _______ _______ _____ _____    ______ ____
ROOT
ATOM      1  C   UNL     1      -0.578  -4.303   1.177  0.00  0.00    +0.063 A 
ATOM      2  C   UNL     1      -0.453  -4.981  -0.031  0.00  0.00    +0.027 A 
ATOM      3  C   UNL     1      -0.599  -4.304  -1.221  0.00  0.00    +0.021 A 
ATOM      4  C   UNL     1      -0.877  -2.934  -1.216  0.00  0.00    +0.058 A 
ATOM      5  C   UNL     1      -0.997  -2.253  -0.001  0.00  0.00    +0.016 A 
ATOM      6  C   UNL     1      -0.851  -2.936   1.188  0.00  0.00    +0.149 A 
ATOM      7  F   UNL     1      -0.971  -2.281   2.363  0.00  0.00    -0.203 F 
ENDROOT
BRANCH   1   8
ATOM      8  N   UNL     1      -0.430  -4.991   2.380  0.00  0.00    -0.336 N 
ATOM      9  H   UNL     1      -0.528  -4.456   3.336  0.00  0.00    +0.146 HD
BRANCH   8  10
ATOM     10  C   UNL     1      -0.144  -6.428   2.371  0.00  0.00    +0.183 C 
BRANCH  10  11
ATOM     11  C   UNL     1      -0.030  -6.934   3.810  0.00  0.00    +0.305 C 
ATOM     12  F   UNL     1       1.005  -6.257   4.462  0.00  0.00    -0.197 F 
ATOM     13  F   UNL     1      -1.235  -6.703   4.482  0.00  0.00    -0.197 F 
BRANCH  11  20
ATOM     14  C   UNL     1       0.275  -8.355   6.308  0.00  0.00    +0.046 C 
ATOM     15  C   UNL     1       0.409  -9.087   4.998  0.00  0.00    -0.023 A 
ATOM     16  C   UNL     1       0.680 -10.447   4.978  0.00  0.00    +0.007 A 
ATOM     17  C   UNL     1       0.795 -11.079   3.750  0.00  0.00    +0.020 A 
ATOM     18  C   UNL     1       0.637 -10.339   2.594  0.00  0.00    +0.111 A 
ATOM     19  N   UNL     1       0.375  -9.048   2.650  0.00  0.00    -0.254 NA
ATOM     20  C   UNL     1       0.264  -8.412   3.801  0.00  0.00    +0.114 A 
ENDBRANCH  11  20
ENDBRANCH  10  11
ENDBRANCH   8  10
ENDBRANCH   1   8
BRANCH   4  21
ATOM     21  C   UNL     1      -1.034  -2.229  -2.452  0.00  0.00    +0.100 C 
ATOM     22  N   UNL     1      -1.159  -1.670  -3.433  0.00  0.00    -0.191 NA
ENDBRANCH   4  21
BRANCH   5  23
ATOM     23  C   UNL     1      -1.293  -0.775   0.010  0.00  0.00    +0.135 C 
BRANCH  23  24
ATOM     24  C   UNL     1       0.002  -0.004   0.002  0.00  0.00    +0.218 C 
ATOM     25  O   UNL     1       1.060  -0.596  -0.011  0.00  0.00    -0.275 OA
ATOM     26  N   UNL     1      -0.016   1.344   0.009  0.00  0.00    -0.313 N 
ATOM     27  H   UNL     1      -0.976   1.881   0.021  0.00  0.00    +0.149 HD
BRANCH  26  28
ATOM     28  C   UNL     1       1.242   2.093   0.001  0.00  0.00    +0.135 C 
BRANCH  28  29
ATOM     29  C   UNL     1       0.943   3.594   0.012  0.00  0.00    +0.211 C 
BRANCH  29  30
ATOM     30  O   UNL     1       0.302   3.942   1.242  0.00  0.00    -0.270 OA
BRANCH  30  31
ATOM     31  N   UNL     1      -0.020   5.317   1.353  0.00  0.00    -0.236 N 
ATOM     32  C   UNL     1      -0.639   5.788   2.487  0.00  0.00    +0.190 C 
ATOM     33  N   UNL     1      -0.930   4.969   3.458  0.00  0.00    -0.370 N 
ATOM     34  N   UNL     1      -0.952   7.122   2.595  0.00  0.00    -0.370 N 
ATOM     35  H   UNL     1       0.226   6.008   0.533  0.00  0.00    +0.197 HD
ATOM     36  H   UNL     1      -1.426   5.346   4.365  0.00  0.00    +0.159 HD
ATOM     37  H   UNL     1      -1.448   7.499   3.502  0.00  0.00    +0.159 HD
ATOM     38  H   UNL     1      -0.706   7.813   1.775  0.00  0.00    +0.159 HD
ATOM     39  H   UNL     1      -0.680   3.901   3.371  0.00  0.00    +0.159 HD
ENDBRANCH  30  31
ENDBRANCH  29  30
ENDBRANCH  28  29
ENDBRANCH  26  28
ENDBRANCH  23  24
ENDBRANCH   5  23
TORSDOF 11
