REMARK  Name = ZINC63245249
REMARK  8 active torsions:
REMARK  status: ('A' for Active; 'I' for Inactive)
REMARK    1  A    between atoms: C_1  and  C_2
REMARK    2  A    between atoms: C_6  and  N_8
REMARK    3  A    between atoms: C_9  and  C_28
REMARK    4  A    between atoms: C_12  and  S_13
REMARK    5  A    between atoms: S_13  and  C_14
REMARK    6  A    between atoms: C_14  and  C_15
REMARK    7  A    between atoms: N_17  and  C_18
REMARK    8  A    between atoms: C_20  and  N_25
REMARK                            x       y       z     vdW  Elec       q    Type
REMARK                         _______ _______ _______ _____ _____    ______ ____
ROOT
ATOM      1  N   UNL     1       0.033  -2.760   2.414  0.00  0.00    -0.270 N 
ATOM      2  C   UNL     1      -0.957  -3.597   2.905  0.00  0.00    +0.168 A 
ATOM      3  N   UNL     1      -0.529  -4.055   4.074  0.00  0.00    -0.128 NA
ATOM      4  N   UNL     1       0.632  -3.569   4.333  0.00  0.00    -0.122 NA
ATOM      5  C   UNL     1       1.025  -2.775   3.348  0.00  0.00    +0.197 A 
ENDROOT
BRANCH   2   6
ATOM      6  C   UNL     1      -2.178  -3.902   2.284  0.00  0.00    +0.025 C 
ATOM      7  C   UNL     1      -3.185  -4.737   2.769  0.00  0.00    +0.006 A 
ATOM      8  C   UNL     1      -3.306  -5.497   3.951  0.00  0.00    +0.010 A 
ATOM      9  C   UNL     1      -4.425  -6.236   4.166  0.00  0.00    +0.001 A 
ATOM     10  C   UNL     1      -5.470  -6.265   3.240  0.00  0.00    +0.002 A 
ATOM     11  C   UNL     1      -5.421  -5.560   2.083  0.00  0.00    +0.026 A 
ATOM     12  C   UNL     1      -4.284  -4.764   1.790  0.00  0.00    +0.043 A 
ATOM     13  N   UNL     1      -3.998  -4.000   0.754  0.00  0.00    -0.380 N 
ATOM     14  C   UNL     1      -2.680  -3.388   0.953  0.00  0.00    +0.152 C 
ATOM     15  H   UNL     1      -4.570  -3.861  -0.017  0.00  0.00    +0.160 HD
ENDBRANCH   2   6
BRANCH   1  21
ATOM     16  C   UNL     1      -0.015   1.540   0.028  0.00  0.00    +0.044 C 
ATOM     17  C   UNL     1      -0.005   0.033   0.021  0.00  0.00    -0.048 A 
ATOM     18  C   UNL     1      -0.011  -0.652  -1.181  0.00  0.00    +0.003 A 
ATOM     19  C   UNL     1      -0.002  -2.034  -1.192  0.00  0.00    +0.002 A 
ATOM     20  C   UNL     1       0.013  -2.736  -0.003  0.00  0.00    +0.026 A 
ATOM     21  C   UNL     1       0.018  -2.052   1.205  0.00  0.00    +0.051 A 
ATOM     22  C   UNL     1       0.015  -0.663   1.213  0.00  0.00    +0.029 A 
ENDBRANCH   1  21
BRANCH   5  23
ATOM     23  S   UNL     1       2.550  -1.896   3.263  0.00  0.00    -0.076 S 
BRANCH  23  24
ATOM     24  C   UNL     1       3.401  -2.345   4.801  0.00  0.00    +0.173 C 
BRANCH  24  25
ATOM     25  C   UNL     1       4.738  -1.651   4.856  0.00  0.00    +0.228 C 
ATOM     26  O   UNL     1       5.082  -0.925   3.947  0.00  0.00    -0.275 OA
ATOM     27  N   UNL     1       5.551  -1.837   5.915  0.00  0.00    -0.284 N 
ATOM     28  H   UNL     1       5.250  -2.365   6.670  0.00  0.00    +0.155 HD
BRANCH  27  29
ATOM     29  C   UNL     1       6.830  -1.269   5.923  0.00  0.00    +0.054 A 
ATOM     30  C   UNL     1       7.046  -0.033   5.328  0.00  0.00    +0.057 A 
ATOM     31  C   UNL     1       8.310   0.525   5.339  0.00  0.00    +0.128 A 
ATOM     32  C   UNL     1       9.359  -0.144   5.942  0.00  0.00    +0.034 A 
ATOM     33  C   UNL     1       9.148  -1.375   6.535  0.00  0.00    +0.024 A 
ATOM     34  C   UNL     1       7.885  -1.937   6.533  0.00  0.00    +0.062 A 
ATOM     35 CL   UNL     1       7.619  -3.479   7.285  0.00  0.00    -0.082 Cl
BRANCH  31  36
ATOM     36  N   UNL     1       8.541   1.842   4.704  0.00  0.00    +0.056 N 
ATOM     37  O   UNL     1       7.624   2.428   4.176  0.00  0.00    -0.126 OA
ATOM     38  O   UNL     1       9.646   2.332   4.713  0.00  0.00    -0.126 OA
ENDBRANCH  31  36
ENDBRANCH  27  29
ENDBRANCH  24  25
ENDBRANCH  23  24
ENDBRANCH   5  23
TORSDOF 7
