REMARK  Name = ZINC42531421
REMARK  7 active torsions:
REMARK  status: ('A' for Active; 'I' for Inactive)
REMARK    1  A    between atoms: C_4  and  C_8
REMARK    2  A    between atoms: C_8  and  N_9
REMARK    3  A    between atoms: N_9  and  C_10
REMARK    4  A    between atoms: N_9  and  C_16
REMARK    5  A    between atoms: C_10  and  C_11
REMARK    6  A    between atoms: C_11  and  C_12
REMARK    7  A    between atoms: N_13  and  O_14
REMARK                            x       y       z     vdW  Elec       q    Type
REMARK                         _______ _______ _______ _____ _____    ______ ____
ROOT
ATOM      1  N   UNL     1       4.204  -0.664   1.383  0.00  0.00    +0.385 N 
ATOM      2  H   UNL     1       3.494  -1.155   1.905  0.00  0.00    -0.081 HD
ENDROOT
BRANCH   1   3
ATOM      3  C   UNL     1       4.337   0.704   1.902  0.00  0.00    -0.068 C 
ATOM      4  C   UNL     1       3.694   1.011   3.256  0.00  0.00    -0.017 C 
ATOM      5  C   UNL     1       3.070   1.559   1.971  0.00  0.00    -0.017 C 
ENDBRANCH   1   3
BRANCH   1   6
ATOM      6  C   UNL     1       3.822  -0.615  -0.035  0.00  0.00    -0.040 C 
BRANCH   6  10
ATOM      7  C   UNL     1       3.043  -4.575  -1.440  0.00  0.00    +0.018 A 
ATOM      8  C   UNL     1       2.126  -3.940  -0.623  0.00  0.00    +0.039 A 
ATOM      9  C   UNL     1       2.378  -2.657  -0.167  0.00  0.00    +0.125 A 
ATOM     10  C   UNL     1       3.548  -2.011  -0.530  0.00  0.00    -0.028 A 
ATOM     11  C   UNL     1       4.463  -2.647  -1.347  0.00  0.00    +0.019 A 
ATOM     12  C   UNL     1       4.211  -3.929  -1.802  0.00  0.00    +0.018 A 
ATOM     13 BR   UNL     1       5.464  -4.799  -2.919  0.00  0.00    -0.050 Br
ATOM     14  F   UNL     1       1.482  -2.036   0.631  0.00  0.00    -0.205 F 
ENDBRANCH   6  10
ENDBRANCH   1   6
BRANCH   1  15
ATOM     15  C   UNL     1       5.487  -1.366   1.520  0.00  0.00    -0.070 C 
BRANCH  15  16
ATOM     16  C   UNL     1       5.824  -1.528   3.004  0.00  0.00    +0.056 C 
BRANCH  16  17
ATOM     17  C   UNL     1       7.071  -2.361   3.148  0.00  0.00    +0.130 C 
ATOM     18  N   UNL     1       6.983  -3.599   3.505  0.00  0.00    -0.077 NA
ATOM     19  N   UNL     1       8.305  -1.803   2.899  0.00  0.00    -0.344 N 
ATOM     20  H   UNL     1       8.372  -0.873   2.631  0.00  0.00    +0.143 HD
ATOM     21  H   UNL     1       9.108  -2.339   2.992  0.00  0.00    +0.143 HD
BRANCH  18  22
ATOM     22  O   UNL     1       5.711  -4.205   3.652  0.00  0.00    -0.408 OA
ATOM     23  H   UNL     1       5.746  -5.133   3.922  0.00  0.00    +0.328 HD
ENDBRANCH  18  22
ENDBRANCH  16  17
ENDBRANCH  15  16
ENDBRANCH   1  15
TORSDOF 7
