REMARK  Name = ZINC59170488
REMARK  7 active torsions:
REMARK  status: ('A' for Active; 'I' for Inactive)
REMARK    1  A    between atoms: C_1  and  O_2
REMARK    2  A    between atoms: O_2  and  C_3
REMARK    3  A    between atoms: C_6  and  N_9
REMARK    4  A    between atoms: C_10  and  C_12
REMARK    5  A    between atoms: N_22  and  C_23
REMARK    6  A    between atoms: C_26  and  S_29
REMARK    7  A    between atoms: S_29  and  N_32
REMARK                            x       y       z     vdW  Elec       q    Type
REMARK                         _______ _______ _______ _____ _____    ______ ____
ROOT
ATOM      1  C   UNL     1       3.380  -4.421  -5.377  0.00  0.00    +0.098 A 
ATOM      2  C   UNL     1       3.431  -5.806  -5.475  0.00  0.00    +0.030 A 
ATOM      3  C   UNL     1       4.150  -6.373  -6.617  0.00  0.00    +0.018 A 
ATOM      4  C   UNL     1       4.028  -7.730  -6.939  0.00  0.00    +0.011 A 
ATOM      5  C   UNL     1       4.706  -8.236  -8.012  0.00  0.00    +0.001 A 
ATOM      6  C   UNL     1       5.515  -7.416  -8.786  0.00  0.00    +0.004 A 
ATOM      7  C   UNL     1       5.651  -6.075  -8.484  0.00  0.00    +0.047 A 
ATOM      8  C   UNL     1       4.973  -5.540  -7.399  0.00  0.00    +0.137 A 
ATOM      9  O   UNL     1       5.099  -4.229  -7.083  0.00  0.00    -0.439 OA
ATOM     10  C   UNL     1       4.051  -3.647  -6.440  0.00  0.00    +0.212 A 
ATOM     11  N   UNL     1       3.651  -2.433  -6.749  0.00  0.00    -0.325 N 
ATOM     12  H   UNL     1       2.841  -2.074  -6.356  0.00  0.00    +0.169 HD
ENDROOT
BRANCH  11  13
ATOM     13  C   UNL     1       4.379  -1.676  -7.625  0.00  0.00    +0.042 A 
ATOM     14  C   UNL     1       5.770  -1.614  -7.513  0.00  0.00    +0.027 A 
ATOM     15  C   UNL     1       6.497  -0.849  -8.400  0.00  0.00    +0.030 A 
ATOM     16  C   UNL     1       5.852  -0.143  -9.401  0.00  0.00    +0.105 A 
ATOM     17  C   UNL     1       4.475  -0.200  -9.519  0.00  0.00    +0.030 A 
ATOM     18  C   UNL     1       3.735  -0.965  -8.642  0.00  0.00    +0.027 A 
BRANCH  16  19
ATOM     19  S   UNL     1       6.789   0.832 -10.530  0.00  0.00    +0.056 S 
ATOM     20  O   UNL     1       5.909   1.827 -11.035  0.00  0.00    -0.153 OA
ATOM     21  O   UNL     1       8.008   1.155  -9.874  0.00  0.00    -0.153 OA
BRANCH  19  22
ATOM     22  N   UNL     1       7.184  -0.143 -11.809  0.00  0.00    -0.204 NA
ATOM     23  H   UNL     1       6.894  -1.069 -11.820  0.00  0.00    +0.144 HD
ATOM     24  H   UNL     1       7.706   0.211 -12.546  0.00  0.00    +0.144 HD
ENDBRANCH  19  22
ENDBRANCH  16  19
ENDBRANCH  11  13
BRANCH   1  26
ATOM     25  N   UNL     1       2.764  -2.417  -4.122  0.00  0.00    -0.281 N 
ATOM     26  C   UNL     1       2.681  -3.755  -4.265  0.00  0.00    +0.253 C 
ATOM     27  O   UNL     1       2.029  -4.412  -3.476  0.00  0.00    -0.270 OA
ATOM     28  H   UNL     1       3.240  -1.888  -4.781  0.00  0.00    +0.155 HD
BRANCH  25  32
ATOM     29  C   UNL     1       0.977  -0.555  -0.849  0.00  0.00    +0.120 A 
ATOM     30  C   UNL     1       2.171  -0.065  -1.358  0.00  0.00    +0.047 A 
ATOM     31  C   UNL     1       2.763  -0.682  -2.442  0.00  0.00    +0.027 A 
ATOM     32  C   UNL     1       2.164  -1.792  -3.022  0.00  0.00    +0.034 A 
ATOM     33  C   UNL     1       0.970  -2.282  -2.512  0.00  0.00    +0.027 A 
ATOM     34  C   UNL     1       0.381  -1.667  -1.424  0.00  0.00    +0.047 A 
BRANCH  29  36
ATOM     35  C   UNL     1       1.063   1.193   0.762  0.00  0.00    +0.277 C 
ATOM     36  O   UNL     1       0.394   0.052   0.219  0.00  0.00    -0.495 OA
ENDBRANCH  29  36
ENDBRANCH  25  32
ENDBRANCH   1  26
TORSDOF 6
