REMARK  Name = ZINC19961713
REMARK  6 active torsions:
REMARK  status: ('A' for Active; 'I' for Inactive)
REMARK    1  A    between atoms: C_10  and  N_11
REMARK    2  A    between atoms: C_12  and  C_14
REMARK    3  A    between atoms: C_14  and  C_15
REMARK    4  A    between atoms: C_23  and  C_25
REMARK    5  A    between atoms: C_25  and  N_26
REMARK    6  A    between atoms: N_29  and  C_32
REMARK                            x       y       z     vdW  Elec       q    Type
REMARK                         _______ _______ _______ _____ _____    ______ ____
ROOT
ATOM      1  C   UNL     1      -0.713   1.699   1.290  0.00  0.00    +0.170 C 
ATOM      2  C   UNL     1       0.097   1.414   2.525  0.00  0.00    +0.234 C 
ATOM      3  O   UNL     1       1.286   1.648   2.503  0.00  0.00    -0.274 OA
ATOM      4  N   UNL     1      -0.434   0.915   3.643  0.00  0.00    -0.312 N 
ATOM      5  C   UNL     1      -1.823   0.502   3.786  0.00  0.00    +0.123 C 
ATOM      6  C   UNL     1      -2.703   1.184   2.736  0.00  0.00    +0.127 C 
ATOM      7  N   UNL     1      -2.034   1.067   1.429  0.00  0.00    -0.289 N 
ATOM      8  C   UNL     1      -2.608   0.409   0.404  0.00  0.00    +0.200 C 
ATOM      9  O   UNL     1      -2.003   0.261  -0.637  0.00  0.00    -0.278 OA
ATOM     10  H   UNL     1       0.258   0.825   4.494  0.00  0.00    +0.149 HD
ENDROOT
BRANCH   1  11
ATOM     11  C   UNL     1       0.002   1.125   0.065  0.00  0.00    +0.128 C 
BRANCH  11  13
ATOM     12  N   UNL     1       0.650  -1.104  -0.790  0.00  0.00    -0.285 N 
ATOM     13  C   UNL     1       0.146  -0.367   0.220  0.00  0.00    +0.219 C 
ATOM     14  O   UNL     1      -0.192  -0.904   1.253  0.00  0.00    -0.275 OA
ATOM     15  H   UNL     1       1.026  -0.609  -1.698  0.00  0.00    +0.155 HD
BRANCH  12  25
ATOM     16  C   UNL     1       0.153  -4.932  -4.041  0.00  0.00    +0.001 A 
ATOM     17  C   UNL     1       0.104  -3.546  -4.169  0.00  0.00    +0.001 A 
ATOM     18  C   UNL     1       0.278  -2.736  -3.089  0.00  0.00    +0.010 A 
ATOM     19  C   UNL     1       0.510  -3.303  -1.826  0.00  0.00    +0.003 A 
ATOM     20  C   UNL     1       0.559  -4.712  -1.694  0.00  0.00    -0.016 A 
ATOM     21  C   UNL     1       0.375  -5.517  -2.833  0.00  0.00    +0.008 A 
ATOM     22  C   UNL     1       0.793  -5.281  -0.431  0.00  0.00    +0.008 A 
ATOM     23  C   UNL     1       0.969  -4.478   0.654  0.00  0.00    +0.002 A 
ATOM     24  C   UNL     1       0.927  -3.092   0.537  0.00  0.00    +0.024 A 
ATOM     25  C   UNL     1       0.695  -2.495  -0.684  0.00  0.00    +0.041 A 
ENDBRANCH  12  25
ENDBRANCH  11  13
ENDBRANCH   1  11
BRANCH   8  26
ATOM     26  C   UNL     1      -4.003  -0.143   0.549  0.00  0.00    +0.019 C 
BRANCH  26  27
ATOM     27  N   UNL     1      -4.398  -0.810  -0.698  0.00  0.00    +0.387 N 
ATOM     28  C   UNL     1      -4.522   0.157  -1.797  0.00  0.00    -0.059 C 
ATOM     29  C   UNL     1      -4.856  -0.586  -3.093  0.00  0.00    +0.086 C 
ATOM     30  N   UNL     1      -6.106  -1.338  -2.914  0.00  0.00    -0.331 N 
ATOM     31  C   UNL     1      -5.982  -2.306  -1.815  0.00  0.00    +0.086 C 
ATOM     32  C   UNL     1      -5.648  -1.563  -0.520  0.00  0.00    -0.059 C 
ATOM     33  H   UNL     1      -3.606  -1.526  -0.963  0.00  0.00    -0.081 HD
BRANCH  30  34
ATOM     34  C   UNL     1      -6.482  -1.974  -4.102  0.00  0.00    +0.065 A 
ATOM     35  C   UNL     1      -5.673  -2.959  -4.650  0.00  0.00    +0.026 A 
ATOM     36  C   UNL     1      -6.049  -3.588  -5.822  0.00  0.00    +0.002 A 
ATOM     37  C   UNL     1      -7.226  -3.231  -6.453  0.00  0.00    +0.003 A 
ATOM     38  C   UNL     1      -8.033  -2.247  -5.914  0.00  0.00    +0.040 A 
ATOM     39  C   UNL     1      -7.665  -1.616  -4.739  0.00  0.00    +0.144 A 
ATOM     40  F   UNL     1      -8.454  -0.654  -4.213  0.00  0.00    -0.204 F 
ENDBRANCH  30  34
ENDBRANCH  26  27
ENDBRANCH   8  26
TORSDOF 6
