REMARK  Name = ZINC43346908
REMARK  9 active torsions:
REMARK  status: ('A' for Active; 'I' for Inactive)
REMARK    1  A    between atoms: C_1  and  C_2
REMARK    2  A    between atoms: C_2  and  C_3
REMARK    3  A    between atoms: C_3  and  N_4
REMARK    4  A    between atoms: C_5  and  C_7
REMARK    5  A    between atoms: C_7  and  N_8
REMARK    6  A    between atoms: C_11  and  N_14
REMARK    7  A    between atoms: N_17  and  C_18
REMARK    8  A    between atoms: C_22  and  N_25
REMARK    9  A    between atoms: C_23  and  C_24
REMARK                            x       y       z     vdW  Elec       q    Type
REMARK                         _______ _______ _______ _____ _____    ______ ____
ROOT
ATOM      1  N   UNL     1      -7.376  -6.781  -1.009  0.00  0.00    -0.296 N 
ATOM      2  C   UNL     1      -7.758  -8.030  -1.338  0.00  0.00    +0.304 C 
ATOM      3  O   UNL     1      -6.940  -8.827  -1.754  0.00  0.00    -0.253 OA
ATOM      4  N   UNL     1      -9.049  -8.397  -1.206  0.00  0.00    -0.269 N 
ATOM      5  H   UNL     1      -8.030  -6.145  -0.677  0.00  0.00    +0.151 HD
ATOM      6  H   UNL     1      -9.686  -7.791  -0.796  0.00  0.00    +0.156 HD
ENDROOT
BRANCH   1  10
ATOM      7  N   UNL     1      -3.737  -4.832  -0.160  0.00  0.00    +0.385 N 
ATOM      8  C   UNL     1      -4.418  -4.445  -1.401  0.00  0.00    -0.076 C 
ATOM      9  C   UNL     1      -5.889  -4.864  -1.331  0.00  0.00    +0.004 C 
ATOM     10  C   UNL     1      -5.974  -6.382  -1.153  0.00  0.00    +0.071 C 
ATOM     11  C   UNL     1      -5.196  -6.783   0.104  0.00  0.00    +0.004 C 
ATOM     12  C   UNL     1      -3.752  -6.293  -0.018  0.00  0.00    -0.076 C 
ATOM     13  H   UNL     1      -4.211  -4.414   0.626  0.00  0.00    -0.081 HD
BRANCH   7  14
ATOM     14  C   UNL     1      -2.346  -4.360  -0.199  0.00  0.00    +0.019 C 
BRANCH  14  16
ATOM     15  N   UNL     1      -1.153  -2.194  -0.258  0.00  0.00    -0.317 N 
ATOM     16  C   UNL     1      -2.328  -2.853  -0.221  0.00  0.00    +0.196 C 
ATOM     17  O   UNL     1      -3.370  -2.234  -0.205  0.00  0.00    -0.278 OA
ATOM     18  H   UNL     1      -0.319  -2.689  -0.271  0.00  0.00    +0.149 HD
BRANCH  15  19
ATOM     19  C   UNL     1      -1.135  -0.729  -0.279  0.00  0.00    +0.104 C 
BRANCH  19  21
ATOM     20  C   UNL     1       0.331   1.292  -0.342  0.00  0.00    +0.005 C 
ATOM     21  C   UNL     1       0.313  -0.237  -0.320  0.00  0.00    +0.015 C 
ENDBRANCH  19  21
ENDBRANCH  15  19
ENDBRANCH  14  16
ENDBRANCH   7  14
ENDBRANCH   1  10
BRANCH   4  22
ATOM     22  C   UNL     1      -9.470  -9.652  -1.660  0.00  0.00    +0.040 A 
ATOM     23  C   UNL     1      -8.764 -10.301  -2.665  0.00  0.00    +0.024 A 
ATOM     24  C   UNL     1      -9.181 -11.540  -3.111  0.00  0.00    +0.004 A 
ATOM     25  C   UNL     1     -10.301 -12.134  -2.557  0.00  0.00    +0.033 A 
ATOM     26  C   UNL     1     -11.005 -11.491  -1.557  0.00  0.00    +0.131 A 
ATOM     27  C   UNL     1     -10.590 -10.254  -1.103  0.00  0.00    +0.001 A 
ATOM     28  C   UNL     1     -11.354  -9.557  -0.007  0.00  0.00    +0.048 C 
BRANCH  26  29
ATOM     29  N   UNL     1     -12.204 -12.130  -0.968  0.00  0.00    +0.057 N 
ATOM     30  O   UNL     1     -12.239 -13.330  -0.824  0.00  0.00    -0.126 OA
ATOM     31  O   UNL     1     -13.146 -11.453  -0.630  0.00  0.00    -0.126 OA
ENDBRANCH  26  29
ENDBRANCH   4  22
TORSDOF 7
