REMARK  Name = ZINC05605041
REMARK  4 active torsions:
REMARK  status: ('A' for Active; 'I' for Inactive)
REMARK    1  A    between atoms: C_8  and  C_13
REMARK    2  A    between atoms: C_9  and  N_12
REMARK    3  A    between atoms: N_14  and  N_15
REMARK    4  A    between atoms: C_16  and  C_17
REMARK                            x       y       z     vdW  Elec       q    Type
REMARK                         _______ _______ _______ _____ _____    ______ ____
ROOT
ATOM      1  C   UNL     1       0.922   1.291   1.402  0.00  0.00    +0.002 A 
ATOM      2  C   UNL     1       2.244   1.238   1.841  0.00  0.00    +0.002 A 
ATOM      3  C   UNL     1       3.086   2.292   1.658  0.00  0.00    +0.031 A 
ATOM      4  C   UNL     1       2.620   3.455   1.021  0.00  0.00    +0.112 A 
ATOM      5  C   UNL     1       1.273   3.511   0.579  0.00  0.00    +0.092 A 
ATOM      6  C   UNL     1       0.433   2.402   0.787  0.00  0.00    +0.030 A 
ATOM      7  N   UNL     1       0.818   4.611  -0.027  0.00  0.00    -0.239 NA
ATOM      8  C   UNL     1       1.626   5.641  -0.212  0.00  0.00    +0.144 A 
ATOM      9  C   UNL     1       2.966   5.586   0.228  0.00  0.00    +0.167 A 
ATOM     10  N   UNL     1       3.428   4.505   0.828  0.00  0.00    -0.115 N 
ATOM     11  O   UNL     1       4.774   4.455   1.268  0.00  0.00    -0.162 OA
ENDROOT
BRANCH   8  12
ATOM     12  C   UNL     1       1.121   6.861  -0.883  0.00  0.00    +0.139 C 
ATOM     13  N   UNL     1      -0.156   6.883  -1.403  0.00  0.00    -0.221 N 
ATOM     14  H   UNL     1       1.644   8.758  -1.405  0.00  0.00    +0.157 HD
ATOM     15  H   UNL     1      -0.724   6.101  -1.329  0.00  0.00    +0.176 HD
ATOM     16  N   UNL     1       1.945   7.895  -0.952  0.00  0.00    -0.384 N 
ATOM     17  H   UNL     1       2.887   7.829  -0.549  0.00  0.00    +0.157 HD
BRANCH  13  18
ATOM     18  N   UNL     1      -0.633   8.037  -2.038  0.00  0.00    -0.189 NA
ATOM     19  C   UNL     1      -1.819   8.059  -2.520  0.00  0.00    +0.158 C 
BRANCH  19  20
ATOM     20  C   UNL     1      -2.332   9.300  -3.204  0.00  0.00    +0.227 C 
ATOM     21 CL   UNL     1      -1.054  10.571  -3.182  0.00  0.00    -0.077 Cl
ATOM     22 CL   UNL     1      -2.764   8.911  -4.911  0.00  0.00    -0.077 Cl
ATOM     23 CL   UNL     1      -3.794   9.902  -2.337  0.00  0.00    -0.077 Cl
ENDBRANCH  19  20
ENDBRANCH  13  18
ENDBRANCH   8  12
BRANCH   9  24
ATOM     24  N   UNL     1       3.803   6.675   0.028  0.00  0.00    -0.340 N 
ATOM     25  H   UNL     1       3.438   7.573   0.029  0.00  0.00    +0.144 HD
ATOM     26  H   UNL     1       4.753   6.537  -0.113  0.00  0.00    +0.144 HD
ENDBRANCH   9  24
TORSDOF 4
