REMARK  Name = ZINC23248879
REMARK  4 active torsions:
REMARK  status: ('A' for Active; 'I' for Inactive)
REMARK    1  A    between atoms: C_5  and  C_6
REMARK    2  A    between atoms: C_6  and  N_7
REMARK    3  A    between atoms: N_10  and  C_13
REMARK    4  A    between atoms: C_13  and  C_14
REMARK                            x       y       z     vdW  Elec       q    Type
REMARK                         _______ _______ _______ _____ _____    ______ ____
ROOT
ATOM      1  N   UNL     1       4.243  -0.539  -1.427  0.00  0.00    -0.301 NA
ATOM      2  C   UNL     1       3.515  -1.619  -2.108  0.00  0.00    +0.066 C 
ATOM      3  C   UNL     1       3.957  -1.685  -3.572  0.00  0.00    -0.063 C 
ATOM      4  N   UNL     1       5.407  -1.911  -3.634  0.00  0.00    +0.387 N 
ATOM      5  C   UNL     1       6.135  -0.831  -2.953  0.00  0.00    -0.063 C 
ATOM      6  C   UNL     1       5.694  -0.765  -1.489  0.00  0.00    +0.066 C 
ATOM      7  H   UNL     1       5.627  -2.852  -3.108  0.00  0.00    -0.081 HD
ENDROOT
BRANCH   1   8
ATOM      8  C   UNL     1       3.791  -0.394  -0.037  0.00  0.00    +0.126 C 
BRANCH   8  13
ATOM      9  C   UNL     1       1.220  -0.657  -0.013  0.00  0.00    +0.013 A 
ATOM     10  C   UNL     1       0.002  -0.004   0.002  0.00  0.00    +0.023 A 
ATOM     11  C   UNL     1      -0.016   1.352   0.009  0.00  0.00    +0.055 A 
ATOM     12  S   UNL     1       1.725   1.745  -0.005  0.00  0.00    -0.085 S 
ATOM     13  C   UNL     1       2.360   0.076  -0.020  0.00  0.00    +0.005 A 
ATOM     14 BR   UNL     1      -1.501   2.523   0.023  0.00  0.00    -0.043 Br
ENDBRANCH   8  13
ENDBRANCH   1   8
BRANCH   4  15
ATOM     15  C   UNL     1       5.859  -2.056  -5.024  0.00  0.00    +0.019 C 
BRANCH  15  16
ATOM     16  C   UNL     1       5.278  -3.316  -5.612  0.00  0.00    +0.204 C 
ATOM     17  O   UNL     1       4.559  -4.023  -4.940  0.00  0.00    -0.277 OA
ATOM     18  N   UNL     1       5.557  -3.656  -6.886  0.00  0.00    -0.242 N 
ATOM     19  C   UNL     1       5.038  -4.783  -7.412  0.00  0.00    +0.303 C 
ATOM     20  O   UNL     1       4.317  -5.492  -6.738  0.00  0.00    -0.253 OA
ATOM     21  N   UNL     1       5.317  -5.123  -8.686  0.00  0.00    -0.313 N 
ATOM     22  H   UNL     1       6.210  -3.014  -7.496  0.00  0.00    +0.159 HD
ATOM     23  H   UNL     1       4.893  -6.043  -9.115  0.00  0.00    +0.146 HD
ATOM     24  H   UNL     1       5.970  -4.481  -9.296  0.00  0.00    +0.146 HD
ENDBRANCH  15  16
ENDBRANCH   4  15
TORSDOF 4
