REMARK  Name = ZINC35486561
REMARK  12 active torsions:
REMARK  status: ('A' for Active; 'I' for Inactive)
REMARK    1  A    between atoms: C_1  and  C_2
REMARK    2  A    between atoms: N_15  and  C_34
REMARK    3  A    between atoms: C_16  and  C_18
REMARK    4  A    between atoms: C_21  and  O_26
REMARK    5  A    between atoms: C_22  and  O_24
REMARK    6  A    between atoms: O_24  and  C_25
REMARK    7  A    between atoms: O_26  and  C_27
REMARK    8  A    between atoms: C_27  and  C_28
REMARK    9  A    between atoms: C_34  and  C_35
REMARK   10  A    between atoms: C_35  and  N_36
REMARK   11  A    between atoms: N_36  and  C_37
REMARK   12  A    between atoms: N_36  and  C_38
REMARK                            x       y       z     vdW  Elec       q    Type
REMARK                         _______ _______ _______ _____ _____    ______ ____
ROOT
ATOM      1  C   UNL     1      -0.018   1.503   0.010  0.00  0.00    +0.044 C 
ATOM      2  C   UNL     1       0.002  -0.004   0.002  0.00  0.00    -0.050 A 
ATOM      3  C   UNL     1       0.006  -0.689  -1.205  0.00  0.00    +0.007 A 
ATOM      4  C   UNL     1       0.021  -2.065  -1.235  0.00  0.00    +0.047 A 
ATOM      5  C   UNL     1       0.035  -2.790  -0.043  0.00  0.00    +0.139 A 
ATOM      6  C   UNL     1       0.037  -2.086   1.172  0.00  0.00    +0.065 A 
ATOM      7  C   UNL     1       0.023  -0.692   1.183  0.00  0.00    +0.018 A 
ATOM      8  C   UNL     1       0.068  -2.849   2.446  0.00  0.00    +0.199 A 
ATOM      9  O   UNL     1      -0.097  -2.332   3.537  0.00  0.00    -0.287 OA
ATOM     10  C   UNL     1       0.314  -4.283   2.265  0.00  0.00    +0.072 A 
ATOM     11  C   UNL     1       0.294  -4.850   1.022  0.00  0.00    +0.199 A 
ATOM     12  O   UNL     1       0.043  -4.141  -0.096  0.00  0.00    -0.450 OA
ATOM     13  C   UNL     1       0.583  -6.288   1.166  0.00  0.00    +0.283 C 
ATOM     14  O   UNL     1       0.643  -7.081   0.247  0.00  0.00    -0.267 OA
ATOM     15  N   UNL     1       0.770  -6.596   2.465  0.00  0.00    -0.285 N 
ATOM     16  C   UNL     1       0.614  -5.362   3.253  0.00  0.00    +0.145 C 
ENDROOT
BRANCH  16  17
ATOM     17  C   UNL     1       1.891  -5.051   3.990  0.00  0.00    -0.019 A 
ATOM     18  C   UNL     1       3.112  -5.281   3.383  0.00  0.00    +0.009 A 
ATOM     19  C   UNL     1       4.286  -4.997   4.056  0.00  0.00    +0.050 A 
ATOM     20  C   UNL     1       4.241  -4.481   5.341  0.00  0.00    +0.162 A 
ATOM     21  C   UNL     1       3.012  -4.250   5.952  0.00  0.00    +0.162 A 
ATOM     22  C   UNL     1       1.839  -4.532   5.271  0.00  0.00    +0.055 A 
BRANCH  21  23
ATOM     23  O   UNL     1       2.963  -3.744   7.213  0.00  0.00    -0.491 OA
ATOM     24  C   UNL     1       1.667  -3.532   7.777  0.00  0.00    +0.277 C 
ENDBRANCH  21  23
BRANCH  20  25
ATOM     25  O   UNL     1       5.395  -4.202   6.004  0.00  0.00    -0.484 OA
BRANCH  25  26
ATOM     26  C   UNL     1       6.619  -4.465   5.315  0.00  0.00    +0.264 C 
BRANCH  26  27
ATOM     27  C   UNL     1       7.783  -4.097   6.199  0.00  0.00    -0.010 A 
ATOM     28  C   UNL     1       8.300  -2.816   6.162  0.00  0.00    +0.007 A 
ATOM     29  C   UNL     1       9.367  -2.478   6.973  0.00  0.00    +0.000 A 
ATOM     30  C   UNL     1       9.917  -3.421   7.821  0.00  0.00    +0.000 A 
ATOM     31  C   UNL     1       9.399  -4.702   7.859  0.00  0.00    +0.000 A 
ATOM     32  C   UNL     1       8.329  -5.039   7.051  0.00  0.00    +0.007 A 
ENDBRANCH  26  27
ENDBRANCH  25  26
ENDBRANCH  20  25
ENDBRANCH  16  17
BRANCH  15  33
ATOM     33  C   UNL     1       1.076  -7.926   2.999  0.00  0.00    +0.090 C 
BRANCH  33  34
ATOM     34  C   UNL     1       2.593  -8.120   3.045  0.00  0.00    -0.060 C 
BRANCH  34  35
ATOM     35  N   UNL     1       2.899  -9.454   3.581  0.00  0.00    +0.377 N 
ATOM     36  C   UNL     1       4.348  -9.687   3.514  0.00  0.00    -0.097 C 
ATOM     37  C   UNL     1       2.454  -9.534   4.979  0.00  0.00    -0.097 C 
ATOM     38  H   UNL     1       2.420 -10.154   3.035  0.00  0.00    -0.083 HD
ENDBRANCH  34  35
ENDBRANCH  33  34
ENDBRANCH  15  33
TORSDOF 8
