REMARK  Name = ZINC43527968
REMARK  7 active torsions:
REMARK  status: ('A' for Active; 'I' for Inactive)
REMARK    1  A    between atoms: C_1  and  C_2
REMARK    2  A    between atoms: C_4  and  C_34
REMARK    3  A    between atoms: C_6  and  C_8
REMARK    4  A    between atoms: C_17  and  C_19
REMARK    5  A    between atoms: C_19  and  N_20
REMARK    6  A    between atoms: N_23  and  C_24
REMARK    7  A    between atoms: C_28  and  C_30
REMARK                            x       y       z     vdW  Elec       q    Type
REMARK                         _______ _______ _______ _____ _____    ______ ____
ROOT
ATOM      1  C   UNL     1       0.033  -2.693   2.538  0.00  0.00    +0.024 C 
ATOM      2  C   UNL     1      -0.771  -3.990   2.426  0.00  0.00    -0.068 C 
ATOM      3  N   UNL     1       0.092  -5.141   2.705  0.00  0.00    +0.383 N 
ATOM      4  C   UNL     1       1.183  -5.215   1.730  0.00  0.00    -0.078 C 
ATOM      5  C   UNL     1       2.051  -3.959   1.819  0.00  0.00    -0.015 C 
ATOM      6  C   UNL     1       1.482  -3.036   2.908  0.00  0.00    -0.007 C 
ATOM      7  C   UNL     1       1.473  -3.805   4.236  0.00  0.00    -0.010 C 
ATOM      8  C   UNL     1       0.623  -5.069   4.069  0.00  0.00    -0.051 C 
ATOM      9  H   UNL     1      -0.460  -5.982   2.621  0.00  0.00    -0.081 HD
ENDROOT
BRANCH   1  15
ATOM     10  C   UNL     1      -0.058   1.514   0.047  0.00  0.00    +0.088 C 
ATOM     11  C   UNL     1      -0.036   0.007   0.034  0.00  0.00    +0.127 A 
ATOM     12  N   UNL     1      -0.040  -0.623  -1.122  0.00  0.00    -0.232 NA
ATOM     13  C   UNL     1      -0.021  -1.956  -1.171  0.00  0.00    +0.081 A 
ATOM     14  C   UNL     1       0.003  -2.675   0.032  0.00  0.00    +0.052 A 
ATOM     15  C   UNL     1       0.007  -1.968   1.218  0.00  0.00    +0.047 A 
ATOM     16  N   UNL     1      -0.008  -0.643   1.181  0.00  0.00    -0.237 NA
BRANCH  13  17
ATOM     17  C   UNL     1      -0.026  -2.660  -2.467  0.00  0.00    +0.038 A 
ATOM     18  C   UNL     1      -0.044  -2.137  -3.734  0.00  0.00    +0.017 A 
ATOM     19  C   UNL     1      -0.045  -3.000  -4.806  0.00  0.00    +0.008 A 
ATOM     20  C   UNL     1      -0.029  -4.340  -4.577  0.00  0.00    +0.046 A 
ATOM     21  S   UNL     1      -0.004  -4.415  -2.794  0.00  0.00    -0.095 S 
ENDBRANCH  13  17
ENDBRANCH   1  15
BRANCH   8  22
ATOM     22  C   UNL     1       1.485  -6.303   4.343  0.00  0.00    +0.090 C 
BRANCH  22  23
ATOM     23  N   UNL     1       0.703  -7.514   4.082  0.00  0.00    -0.301 N 
ATOM     24  C   UNL     1       1.261  -8.728   4.258  0.00  0.00    +0.304 C 
ATOM     25  O   UNL     1       2.414  -8.818   4.633  0.00  0.00    -0.253 OA
ATOM     26  N   UNL     1       0.541  -9.841   4.018  0.00  0.00    -0.269 N 
ATOM     27  H   UNL     1      -0.217  -7.441   3.783  0.00  0.00    +0.150 HD
ATOM     28  H   UNL     1      -0.398  -9.771   3.784  0.00  0.00    +0.156 HD
BRANCH  26  29
ATOM     29  C   UNL     1       1.148 -11.099   4.107  0.00  0.00    +0.035 A 
ATOM     30  C   UNL     1       0.770 -12.117   3.240  0.00  0.00    +0.023 A 
ATOM     31  C   UNL     1       1.372 -13.357   3.330  0.00  0.00    +0.002 A 
ATOM     32  C   UNL     1       2.349 -13.586   4.281  0.00  0.00    +0.012 A 
ATOM     33  C   UNL     1       2.726 -12.575   5.146  0.00  0.00    +0.057 A 
ATOM     34  C   UNL     1       2.133 -11.331   5.057  0.00  0.00    +0.035 A 
BRANCH  33  35
ATOM     35  C   UNL     1       3.790 -12.830   6.182  0.00  0.00    +0.417 C 
ATOM     36  F   UNL     1       4.241 -14.150   6.074  0.00  0.00    -0.166 F 
ATOM     37  F   UNL     1       4.861 -11.954   5.976  0.00  0.00    -0.166 F 
ATOM     38  F   UNL     1       3.257 -12.623   7.459  0.00  0.00    -0.166 F 
ENDBRANCH  33  35
ENDBRANCH  26  29
ENDBRANCH  22  23
ENDBRANCH   8  22
TORSDOF 6
