REMARK  Name = ZINC43363769
REMARK  7 active torsions:
REMARK  status: ('A' for Active; 'I' for Inactive)
REMARK    1  A    between atoms: C_1  and  C_2
REMARK    2  A    between atoms: C_2  and  C_3
REMARK    3  A    between atoms: C_3  and  C_5
REMARK    4  A    between atoms: C_3  and  N_23
REMARK    5  A    between atoms: C_5  and  C_7
REMARK    6  A    between atoms: C_5  and  N_13
REMARK    7  A    between atoms: C_10  and  C_12
REMARK                            x       y       z     vdW  Elec       q    Type
REMARK                         _______ _______ _______ _____ _____    ______ ____
ROOT
ATOM      1  C   UNL     1       0.872  -2.034   1.171  0.00  0.00    +0.125 C 
ENDROOT
BRANCH   1   2
ATOM      2  N   UNL     1       1.676  -2.588   2.263  0.00  0.00    -0.321 N 
ATOM      3  C   UNL     1       3.031  -2.083   2.524  0.00  0.00    +0.106 C 
ATOM      4  C   UNL     1       3.946  -3.292   2.756  0.00  0.00    +0.024 C 
ATOM      5  C   UNL     1       3.474  -4.036   4.005  0.00  0.00    +0.038 C 
ATOM      6  C   UNL     1       1.998  -4.326   3.920  0.00  0.00    -0.026 A 
ATOM      7  C   UNL     1       1.165  -3.604   3.078  0.00  0.00    +0.033 A 
ATOM      8  C   UNL     1      -0.195  -3.890   3.030  0.00  0.00    +0.023 A 
ATOM      9  C   UNL     1      -0.719  -4.891   3.824  0.00  0.00    +0.002 A 
ATOM     10  C   UNL     1       0.110  -5.609   4.666  0.00  0.00    +0.000 A 
ATOM     11  C   UNL     1       1.467  -5.333   4.708  0.00  0.00    +0.005 A 
ENDBRANCH   1   2
BRANCH   1  12
ATOM     12  C   UNL     1       1.518  -2.369  -0.149  0.00  0.00    +0.124 A 
ATOM     13  C   UNL     1       0.884  -2.839  -1.238  0.00  0.00    +0.047 A 
ATOM     14  C   UNL     1       1.866  -3.012  -2.241  0.00  0.00    +0.045 A 
ATOM     15  C   UNL     1       3.041  -2.636  -1.704  0.00  0.00    +0.102 A 
ATOM     16  O   UNL     1       2.823  -2.242  -0.439  0.00  0.00    -0.463 OA
ATOM     17  C   UNL     1       4.374  -2.650  -2.406  0.00  0.00    +0.086 C 
ENDBRANCH   1  12
BRANCH   1  18
ATOM     18  C   UNL     1       0.783  -0.514   1.324  0.00  0.00    -0.047 C 
BRANCH  18  19
ATOM     19  N   UNL     1       0.153  -0.188   2.611  0.00  0.00    +0.381 N 
ATOM     20  H   UNL     1      -0.774  -0.584   2.641  0.00  0.00    -0.090 HD
ATOM     21  H   UNL     1       0.707  -0.570   3.363  0.00  0.00    -0.090 HD
ATOM     22  H   UNL     1       0.094   0.814   2.712  0.00  0.00    -0.090 HD
ENDBRANCH  18  19
BRANCH  18  24
ATOM     23  C   UNL     1      -0.043   1.593   0.265  0.00  0.00    +0.002 C 
ATOM     24  C   UNL     1      -0.057   0.065   0.184  0.00  0.00    -0.017 C 
ENDBRANCH  18  24
ENDBRANCH   1  18
TORSDOF 5
