REMARK  Name = ZINC15135357
REMARK  12 active torsions:
REMARK  status: ('A' for Active; 'I' for Inactive)
REMARK    1  A    between atoms: C_1  and  C_2
REMARK    2  A    between atoms: C_2  and  C_3
REMARK    3  A    between atoms: C_2  and  C_4
REMARK    4  A    between atoms: C_2  and  C_5
REMARK    5  A    between atoms: C_5  and  C_7
REMARK    6  A    between atoms: C_5  and  N_22
REMARK    7  A    between atoms: C_7  and  N_9
REMARK    8  A    between atoms: C_7  and  O_14
REMARK    9  A    between atoms: O_14  and  C_15
REMARK   10  A    between atoms: C_23  and  C_27
REMARK   11  A    between atoms: C_27  and  C_29
REMARK   12  A    between atoms: C_27  and  N_70
REMARK                            x       y       z     vdW  Elec       q    Type
REMARK                         _______ _______ _______ _____ _____    ______ ____
ROOT
ATOM      1  C   UNL     1       2.534  -1.473   2.311  0.00  0.00    +0.179 C 
ENDROOT
BRANCH   1   2
ATOM      2  N   UNL     1       2.223  -0.726   3.533  0.00  0.00    -0.221 N 
ATOM      3  C   UNL     1       1.033  -0.681   4.160  0.00  0.00    +0.143 A 
ATOM      4  N   UNL     1       1.188   0.094   5.206  0.00  0.00    -0.115 NA
ATOM      5  N   UNL     1       2.408   0.509   5.216  0.00  0.00    -0.023 NA
ATOM      6  N   UNL     1       3.036   0.015   4.206  0.00  0.00    -0.043 NA
BRANCH   3   7
ATOM      7  C   UNL     1      -0.232  -1.386   3.743  0.00  0.00    +0.033 C 
BRANCH   7  13
ATOM      8  C   UNL     1       0.002  -2.868   5.643  0.00  0.00    -0.077 C 
ATOM      9  C   UNL     1      -0.663  -3.321   6.945  0.00  0.00    -0.019 C 
ATOM     10  C   UNL     1      -1.987  -4.017   6.620  0.00  0.00    -0.004 C 
ATOM     11  C   UNL     1      -2.882  -3.054   5.835  0.00  0.00    -0.019 C 
ATOM     12  C   UNL     1      -2.153  -2.609   4.565  0.00  0.00    -0.077 C 
ATOM     13  N   UNL     1      -0.899  -1.925   4.946  0.00  0.00    +0.389 N 
ATOM     14  H   UNL     1      -1.122  -1.149   5.580  0.00  0.00    -0.080 HD
ENDBRANCH   7  13
BRANCH   7  15
ATOM     15  C   UNL     1      -1.157  -0.403   3.072  0.00  0.00    -0.054 A 
ATOM     16  C   UNL     1      -1.810   0.556   3.823  0.00  0.00    +0.002 A 
ATOM     17  C   UNL     1      -2.654   1.460   3.206  0.00  0.00    +0.000 A 
ATOM     18  C   UNL     1      -2.854   1.399   1.840  0.00  0.00    +0.000 A 
ATOM     19  C   UNL     1      -2.205   0.436   1.089  0.00  0.00    +0.000 A 
ATOM     20  C   UNL     1      -1.357  -0.465   1.705  0.00  0.00    +0.002 A 
ENDBRANCH   7  15
ENDBRANCH   3   7
ENDBRANCH   1   2
BRANCH   1  22
ATOM     21  C   UNL     1       4.806  -2.108   3.133  0.00  0.00    +0.013 C 
ATOM     22  C   UNL     1       3.457  -2.645   2.651  0.00  0.00    -0.010 C 
ATOM     23  C   UNL     1       2.821  -3.491   3.756  0.00  0.00    +0.013 C 
ATOM     24  C   UNL     1       3.666  -3.507   1.405  0.00  0.00    +0.013 C 
ENDBRANCH   1  22
BRANCH   1  25
ATOM     25  C   UNL     1       3.232  -0.547   1.312  0.00  0.00    +0.319 C 
BRANCH  25  26
ATOM     26  N   UNL     1       2.408   0.644   1.093  0.00  0.00    -0.211 N 
ATOM     27  C   UNL     1       2.766   1.922   1.310  0.00  0.00    +0.223 A 
ATOM     28  N   UNL     1       1.753   2.687   0.994  0.00  0.00    -0.223 NA
ATOM     29  C   UNL     1       0.735   1.937   0.572  0.00  0.00    +0.245 A 
ATOM     30  N   UNL     1       1.088   0.679   0.615  0.00  0.00    -0.155 NA
ENDBRANCH  25  26
BRANCH  25  31
ATOM     31  O   UNL     1       3.414  -1.235   0.073  0.00  0.00    -0.465 OA
BRANCH  31  32
ATOM     32  C   UNL     1       4.403  -0.785  -0.744  0.00  0.00    +0.124 A 
ATOM     33  C   UNL     1       4.702  -1.467  -1.914  0.00  0.00    +0.047 A 
ATOM     34  C   UNL     1       5.704  -1.005  -2.744  0.00  0.00    +0.023 A 
ATOM     35  C   UNL     1       6.417   0.132  -2.405  0.00  0.00    +0.041 A 
ATOM     36  C   UNL     1       6.123   0.811  -1.235  0.00  0.00    +0.023 A 
ATOM     37  C   UNL     1       5.118   0.355  -0.405  0.00  0.00    +0.047 A 
ATOM     38 CL   UNL     1       7.680   0.707  -3.447  0.00  0.00    -0.084 Cl
ENDBRANCH  31  32
ENDBRANCH  25  31
ENDBRANCH   1  25
TORSDOF 9
