REMARK  Name = ZINC63584604
REMARK  16 active torsions:
REMARK  status: ('A' for Active; 'I' for Inactive)
REMARK    1  A    between atoms: C_1  and  C_2
REMARK    2  A    between atoms: C_2  and  C_3
REMARK    3  A    between atoms: C_2  and  C_4
REMARK    4  A    between atoms: C_2  and  N_5
REMARK    5  A    between atoms: C_6  and  C_27
REMARK    6  A    between atoms: C_8  and  C_11
REMARK    7  A    between atoms: N_13  and  C_14
REMARK    8  A    between atoms: C_14  and  C_15
REMARK    9  A    between atoms: C_15  and  C_16
REMARK   10  A    between atoms: C_19  and  O_25
REMARK   11  A    between atoms: O_25  and  C_26
REMARK   12  A    between atoms: C_33  and  O_35
REMARK   13  A    between atoms: O_35  and  C_36
REMARK   14  A    between atoms: C_36  and  C_37
REMARK   15  A    between atoms: C_36  and  C_38
REMARK   16  A    between atoms: C_36  and  C_39
REMARK                            x       y       z     vdW  Elec       q    Type
REMARK                         _______ _______ _______ _____ _____    ______ ____
ROOT
ATOM      1  N   UNL     1       0.711  -0.587  -1.395  0.00  0.00    -0.217 NA
ATOM      2  C   UNL     1       0.067   0.077  -2.546  0.00  0.00    +0.116 C 
ATOM      3  C   UNL     1       1.170   0.924  -3.145  0.00  0.00    +0.048 C 
ATOM      4  C   UNL     1       2.262   0.715  -2.383  0.00  0.00    +0.094 C 
ATOM      5  N   UNL     1       2.005  -0.155  -1.372  0.00  0.00    -0.283 N 
ATOM      6  H   UNL     1       2.660  -0.434  -0.714  0.00  0.00    +0.166 HD
ENDROOT
BRANCH   2   7
ATOM      7  C   UNL     1      -0.427  -0.960  -3.557  0.00  0.00    +0.015 C 
ATOM      8  C   UNL     1       0.754  -1.806  -4.036  0.00  0.00    +0.024 C 
ATOM      9  C   UNL     1       0.263  -2.820  -5.074  0.00  0.00    +0.111 C 
ATOM     10  N   UNL     1      -0.839  -3.597  -4.490  0.00  0.00    -0.267 N 
ATOM     11  C   UNL     1      -1.985  -2.878  -3.917  0.00  0.00    +0.111 C 
ATOM     12  C   UNL     1      -1.468  -1.863  -2.893  0.00  0.00    +0.024 C 
ATOM     13  C   UNL     1      -0.800  -4.945  -4.481  0.00  0.00    +0.403 C 
ATOM     14  O   UNL     1       0.153  -5.528  -4.958  0.00  0.00    -0.226 OA
BRANCH  13  15
ATOM     15  O   UNL     1      -1.817  -5.644  -3.943  0.00  0.00    -0.445 OA
BRANCH  15  16
ATOM     16  C   UNL     1      -1.709  -7.069  -3.967  0.00  0.00    +0.107 C 
ATOM     17  C   UNL     1      -0.460  -7.499  -3.195  0.00  0.00    +0.055 C 
ATOM     18  C   UNL     1      -2.948  -7.686  -3.316  0.00  0.00    +0.055 C 
ATOM     19  C   UNL     1      -1.602  -7.548  -5.416  0.00  0.00    +0.055 C 
ENDBRANCH  15  16
ENDBRANCH  13  15
ENDBRANCH   2   7
BRANCH   1  21
ATOM     20  C   UNL     1       0.026   1.264   0.055  0.00  0.00    +0.029 C 
ATOM     21  C   UNL     1       0.022  -0.253  -0.141  0.00  0.00    +0.031 C 
ATOM     22  C   UNL     1       0.744  -0.921   1.031  0.00  0.00    +0.029 C 
ATOM     23  C   UNL     1      -1.422  -0.756  -0.203  0.00  0.00    +0.029 C 
ENDBRANCH   1  21
BRANCH   3  24
ATOM     24  C   UNL     1       1.075   1.765  -4.278  0.00  0.00    +0.243 C 
ATOM     25  O   UNL     1       2.071   2.312  -4.717  0.00  0.00    -0.270 OA
ATOM     26  N   UNL     1      -0.119   1.962  -4.873  0.00  0.00    -0.311 N 
ATOM     27  H   UNL     1      -0.924   1.590  -4.480  0.00  0.00    +0.149 HD
BRANCH  26  28
ATOM     28  C   UNL     1      -0.201   2.738  -6.113  0.00  0.00    +0.109 C 
BRANCH  28  29
ATOM     29  C   UNL     1      -1.657   2.809  -6.575  0.00  0.00    +0.052 C 
BRANCH  29  30
ATOM     30  C   UNL     1      -1.742   3.607  -7.850  0.00  0.00    -0.040 C 
ATOM     31  C   UNL     1      -1.748   3.124  -9.113  0.00  0.00    +0.002 A 
ATOM     32  C   UNL     1      -1.682   1.763  -9.658  0.00  0.00    +0.055 A 
ATOM     33  C   UNL     1      -1.708   1.580 -11.000  0.00  0.00    +0.121 A 
ATOM     34  C   UNL     1      -1.798   2.654 -11.902  0.00  0.00    +0.047 A 
ATOM     35  C   UNL     1      -1.864   3.941 -11.497  0.00  0.00    +0.029 A 
ATOM     36  C   UNL     1      -1.843   4.255 -10.065  0.00  0.00    +0.043 A 
ATOM     37  N   UNL     1      -1.893   5.391  -9.416  0.00  0.00    -0.380 N 
ATOM     38  C   UNL     1      -1.842   5.111  -7.977  0.00  0.00    +0.144 C 
ATOM     39  H   UNL     1      -1.957   6.271  -9.820  0.00  0.00    +0.160 HD
BRANCH  33  40
ATOM     40  O   UNL     1      -1.646   0.314 -11.491  0.00  0.00    -0.495 OA
ATOM     41  C   UNL     1      -1.677   0.167 -12.912  0.00  0.00    +0.277 C 
ENDBRANCH  33  40
ENDBRANCH  29  30
ENDBRANCH  28  29
ENDBRANCH  26  28
ENDBRANCH   3  24
TORSDOF 9
