REMARK  Name = ZINC08119381
REMARK  6 active torsions:
REMARK  status: ('A' for Active; 'I' for Inactive)
REMARK    1  A    between atoms: C_1  and  C_2
REMARK    2  A    between atoms: C_2  and  C_4
REMARK    3  A    between atoms: C_2  and  N_54
REMARK    4  A    between atoms: N_6  and  C_7
REMARK    5  A    between atoms: C_8  and  C_15
REMARK    6  A    between atoms: N_20  and  C_23
REMARK                            x       y       z     vdW  Elec       q    Type
REMARK                         _______ _______ _______ _____ _____    ______ ____
ROOT
ATOM      1  C   UNL     1       1.629   4.445   0.012  0.00  0.00    +0.204 C 
ATOM      2  O   UNL     1       0.416   4.408   0.024  0.00  0.00    -0.277 OA
ATOM      3  N   UNL     1       2.338   3.299  -0.002  0.00  0.00    -0.281 N 
ATOM      4  H   UNL     1       3.307   3.329  -0.012  0.00  0.00    +0.155 HD
ENDROOT
BRANCH   3   5
ATOM      5  C   UNL     1       1.681   2.078  -0.003  0.00  0.00    +0.084 A 
ATOM      6  C   UNL     1       2.229   0.806  -0.015  0.00  0.00    +0.068 A 
ATOM      7  C   UNL     1       1.307  -0.329  -0.013  0.00  0.00    -0.023 A 
ATOM      8  C   UNL     1       0.002  -0.004   0.002  0.00  0.00    -0.004 A 
ATOM      9  S   UNL     1      -0.022   1.772   0.012  0.00  0.00    -0.077 S 
ATOM     10  C   UNL     1      -0.882  -1.222   0.007  0.00  0.00    +0.043 C 
ATOM     11  C   UNL     1       0.051  -2.378   0.429  0.00  0.00    +0.010 C 
ATOM     12  C   UNL     1       1.427  -1.853  -0.025  0.00  0.00    +0.037 C 
BRANCH   6  13
ATOM     13  C   UNL     1       3.682   0.606  -0.029  0.00  0.00    +0.244 C 
ATOM     14  O   UNL     1       4.275   0.528  -1.089  0.00  0.00    -0.270 OA
ATOM     15  N   UNL     1       4.360   0.506   1.131  0.00  0.00    -0.325 N 
ATOM     16  H   UNL     1       3.887   0.568   1.976  0.00  0.00    +0.145 HD
ATOM     17  H   UNL     1       5.321   0.373   1.121  0.00  0.00    +0.145 HD
ENDBRANCH   6  13
ENDBRANCH   3   5
BRANCH   1  19
ATOM     18  C   UNL     1       3.206   5.888  -1.245  0.00  0.00    -0.004 C 
ATOM     19  C   UNL     1       2.342   5.773   0.013  0.00  0.00    +0.017 C 
BRANCH  19  25
ATOM     20  C   UNL     1       0.498   6.812  -1.165  0.00  0.00    -0.059 C 
ATOM     21  C   UNL     1      -0.565   7.908  -1.072  0.00  0.00    +0.086 C 
ATOM     22  N   UNL     1       0.093   9.216  -0.951  0.00  0.00    -0.333 N 
ATOM     23  C   UNL     1       0.948   9.264   0.243  0.00  0.00    +0.086 C 
ATOM     24  C   UNL     1       2.012   8.168   0.150  0.00  0.00    -0.059 C 
ATOM     25  N   UNL     1       1.337   6.856   0.051  0.00  0.00    +0.389 N 
ATOM     26  H   UNL     1       0.738   6.727   0.875  0.00  0.00    -0.081 HD
BRANCH  22  27
ATOM     27  C   UNL     1      -0.847  10.250  -0.935  0.00  0.00    +0.030 A 
ATOM     28  C   UNL     1      -0.880  11.145   0.127  0.00  0.00    +0.023 A 
ATOM     29  C   UNL     1      -1.807  12.168   0.137  0.00  0.00    +0.002 A 
ATOM     30  C   UNL     1      -2.709  12.296  -0.904  0.00  0.00    +0.000 A 
ATOM     31  C   UNL     1      -2.682  11.404  -1.960  0.00  0.00    +0.002 A 
ATOM     32  C   UNL     1      -1.754  10.382  -1.979  0.00  0.00    +0.023 A 
ENDBRANCH  22  27
ENDBRANCH  19  25
ENDBRANCH   1  19
TORSDOF 5
