REMARK  Name = ZINC01404953
REMARK  8 active torsions:
REMARK  status: ('A' for Active; 'I' for Inactive)
REMARK    1  A    between atoms: C_1  and  C_2
REMARK    2  A    between atoms: C_2  and  O_3
REMARK    3  A    between atoms: O_3  and  C_4
REMARK    4  A    between atoms: C_7  and  N_10
REMARK    5  A    between atoms: C_11  and  C_29
REMARK    6  A    between atoms: C_21  and  C_22
REMARK    7  A    between atoms: C_32  and  O_35
REMARK    8  A    between atoms: O_35  and  C_36
REMARK                            x       y       z     vdW  Elec       q    Type
REMARK                         _______ _______ _______ _____ _____    ______ ____
ROOT
ATOM      1  N   UNL     1       0.604   1.776   0.636  0.00  0.00    -0.255 N 
ATOM      2  C   UNL     1       1.706   0.807   0.519  0.00  0.00    +0.146 C 
ATOM      3  C   UNL     1       1.057  -0.513   0.235  0.00  0.00    +0.027 C 
ATOM      4  C   UNL     1      -0.282  -0.303   0.167  0.00  0.00    +0.098 C 
ATOM      5  C   UNL     1      -0.555   1.115   0.434  0.00  0.00    +0.266 C 
ATOM      6  O   UNL     1      -1.661   1.619   0.463  0.00  0.00    -0.268 OA
ATOM      7  N   UNL     1      -1.169  -1.321  -0.150  0.00  0.00    -0.338 N 
ATOM      8  C   UNL     1      -1.112  -1.889  -1.502  0.00  0.00    +0.122 C 
ATOM      9  C   UNL     1       0.348  -2.043  -1.940  0.00  0.00    +0.131 C 
ATOM     10  N   UNL     1       1.212  -2.611  -0.910  0.00  0.00    -0.382 N 
ATOM     11  C   UNL     1       1.639  -1.849   0.077  0.00  0.00    +0.050 C 
ATOM     12  H   UNL     1      -1.900  -1.704   0.577  0.00  0.00    +0.146 HD
ATOM     13  H   UNL     1       1.506  -3.670  -0.954  0.00  0.00    +0.160 HD
ENDROOT
BRANCH  11  14
ATOM     14  C   UNL     1       2.687  -2.332   1.007  0.00  0.00    -0.002 A 
ATOM     15  C   UNL     1       3.373  -3.515   0.734  0.00  0.00    +0.011 A 
ATOM     16  C   UNL     1       4.351  -3.957   1.600  0.00  0.00    +0.020 A 
ATOM     17  C   UNL     1       4.644  -3.235   2.745  0.00  0.00    +0.041 A 
ATOM     18  C   UNL     1       3.961  -2.063   3.024  0.00  0.00    +0.020 A 
ATOM     19  C   UNL     1       2.985  -1.609   2.161  0.00  0.00    +0.011 A 
ATOM     20 CL   UNL     1       5.871  -3.801   3.835  0.00  0.00    -0.084 Cl
ENDBRANCH  11  14
BRANCH   1  24
ATOM     21  C   UNL     1       0.995   5.845   1.450  0.00  0.00    +0.121 A 
ATOM     22  C   UNL     1      -0.264   5.294   1.263  0.00  0.00    +0.047 A 
ATOM     23  C   UNL     1      -0.395   3.946   0.993  0.00  0.00    +0.027 A 
ATOM     24  C   UNL     1       0.735   3.142   0.909  0.00  0.00    +0.038 A 
ATOM     25  C   UNL     1       1.995   3.694   1.103  0.00  0.00    +0.027 A 
ATOM     26  C   UNL     1       2.124   5.043   1.367  0.00  0.00    +0.047 A 
BRANCH  21  27
ATOM     27  O   UNL     1       1.122   7.173   1.717  0.00  0.00    -0.492 OA
BRANCH  27  29
ATOM     28  C   UNL     1       2.391   9.175   2.187  0.00  0.00    +0.048 C 
ATOM     29  C   UNL     1       2.448   7.673   1.899  0.00  0.00    +0.225 C 
ENDBRANCH  27  29
ENDBRANCH  21  27
ENDBRANCH   1  24
BRANCH   2  30
ATOM     30  C   UNL     1       2.619   1.192  -0.617  0.00  0.00    -0.022 A 
ATOM     31  C   UNL     1       2.091   1.743  -1.770  0.00  0.00    +0.009 A 
ATOM     32  C   UNL     1       2.927   2.102  -2.810  0.00  0.00    +0.046 A 
ATOM     33  C   UNL     1       4.295   1.900  -2.700  0.00  0.00    +0.120 A 
ATOM     34  C   UNL     1       4.821   1.343  -1.544  0.00  0.00    +0.046 A 
ATOM     35  C   UNL     1       3.982   0.991  -0.505  0.00  0.00    +0.009 A 
BRANCH  33  36
ATOM     36  O   UNL     1       5.118   2.247  -3.724  0.00  0.00    -0.495 OA
ATOM     37  C   UNL     1       4.507   2.816  -4.884  0.00  0.00    +0.277 C 
ENDBRANCH  33  36
ENDBRANCH   2  30
TORSDOF 6
