REMARK  Name = ZINC38712767
REMARK  13 active torsions:
REMARK  status: ('A' for Active; 'I' for Inactive)
REMARK    1  A    between atoms: C_1  and  C_2
REMARK    2  A    between atoms: C_2  and  C_3
REMARK    3  A    between atoms: C_3  and  O_4
REMARK    4  A    between atoms: O_4  and  C_5
REMARK    5  A    between atoms: C_8  and  C_13
REMARK    6  A    between atoms: C_10  and  O_11
REMARK    7  A    between atoms: O_11  and  C_12
REMARK    8  A    between atoms: N_32  and  C_33
REMARK    9  A    between atoms: C_33  and  C_34
REMARK   10  A    between atoms: C_34  and  C_35
REMARK   11  A    between atoms: C_35  and  N_36
REMARK   12  A    between atoms: N_36  and  C_37
REMARK   13  A    between atoms: N_36  and  C_38
REMARK                            x       y       z     vdW  Elec       q    Type
REMARK                         _______ _______ _______ _____ _____    ______ ____
ROOT
ATOM      1  C   UNL     1      -6.403  -4.585   0.038  0.00  0.00    +0.145 C 
ATOM      2  C   UNL     1      -7.010  -4.555  -1.326  0.00  0.00    +0.072 A 
ATOM      3  C   UNL     1      -6.539  -5.088  -2.607  0.00  0.00    +0.199 A 
ATOM      4  O   UNL     1      -5.582  -5.837  -2.707  0.00  0.00    -0.287 OA
ATOM      5  C   UNL     1      -7.337  -4.632  -3.772  0.00  0.00    +0.065 A 
ATOM      6  C   UNL     1      -6.885  -4.890  -5.078  0.00  0.00    +0.016 A 
ATOM      7  C   UNL     1      -7.598  -4.473  -6.152  0.00  0.00    +0.009 A 
ATOM      8  C   UNL     1      -8.809  -3.773  -5.970  0.00  0.00    -0.014 A 
ATOM      9  C   UNL     1      -9.556  -3.330  -7.074  0.00  0.00    +0.008 A 
ATOM     10  C   UNL     1     -10.725  -2.659  -6.873  0.00  0.00    +0.001 A 
ATOM     11  C   UNL     1     -11.192  -2.402  -5.587  0.00  0.00    +0.001 A 
ATOM     12  C   UNL     1     -10.491  -2.816  -4.494  0.00  0.00    +0.012 A 
ATOM     13  C   UNL     1      -9.283  -3.509  -4.664  0.00  0.00    +0.025 A 
ATOM     14  C   UNL     1      -8.533  -3.946  -3.545  0.00  0.00    +0.147 A 
ATOM     15  O   UNL     1      -8.999  -3.691  -2.304  0.00  0.00    -0.449 OA
ATOM     16  C   UNL     1      -8.198  -3.885  -1.238  0.00  0.00    +0.199 A 
ATOM     17  C   UNL     1      -8.389  -3.463   0.159  0.00  0.00    +0.283 C 
ATOM     18  O   UNL     1      -9.346  -2.841   0.574  0.00  0.00    -0.267 OA
ATOM     19  N   UNL     1      -7.345  -3.869   0.914  0.00  0.00    -0.284 N 
ENDROOT
BRANCH   1  23
ATOM     20  C   UNL     1      -2.617  -2.596   0.013  0.00  0.00    +0.162 A 
ATOM     21  C   UNL     1      -3.790  -1.859   0.022  0.00  0.00    +0.050 A 
ATOM     22  C   UNL     1      -5.013  -2.505   0.030  0.00  0.00    +0.009 A 
ATOM     23  C   UNL     1      -5.068  -3.886   0.029  0.00  0.00    -0.019 A 
ATOM     24  C   UNL     1      -3.901  -4.628   0.020  0.00  0.00    +0.055 A 
ATOM     25  C   UNL     1      -2.673  -3.987   0.006  0.00  0.00    +0.162 A 
BRANCH  25  26
ATOM     26  O   UNL     1      -1.524  -4.715  -0.009  0.00  0.00    -0.491 OA
ATOM     27  C   UNL     1      -1.658  -6.138  -0.015  0.00  0.00    +0.277 C 
ENDBRANCH  25  26
BRANCH  20  28
ATOM     28  O   UNL     1      -1.414  -1.962   0.005  0.00  0.00    -0.488 OA
BRANCH  28  29
ATOM     29  C   UNL     1      -1.433  -0.534   0.013  0.00  0.00    +0.229 C 
BRANCH  29  31
ATOM     30  C   UNL     1      -0.019   1.526   0.010  0.00  0.00    +0.007 C 
ATOM     31  C   UNL     1       0.002  -0.004   0.002  0.00  0.00    +0.038 C 
ENDBRANCH  29  31
ENDBRANCH  28  29
ENDBRANCH  20  28
ENDBRANCH   1  23
BRANCH  19  32
ATOM     32  C   UNL     1      -7.178  -3.639   2.351  0.00  0.00    +0.107 C 
BRANCH  32  33
ATOM     33  C   UNL     1      -6.437  -2.319   2.573  0.00  0.00    +0.000 C 
BRANCH  33  34
ATOM     34  C   UNL     1      -6.263  -2.078   4.074  0.00  0.00    -0.078 C 
BRANCH  34  35
ATOM     35  N   UNL     1      -5.552  -0.810   4.287  0.00  0.00    +0.376 N 
ATOM     36  C   UNL     1      -5.490  -0.519   5.726  0.00  0.00    -0.097 C 
ATOM     37  C   UNL     1      -4.189  -0.918   3.750  0.00  0.00    -0.097 C 
ATOM     38  H   UNL     1      -6.042  -0.066   3.814  0.00  0.00    -0.083 HD
ENDBRANCH  34  35
ENDBRANCH  33  34
ENDBRANCH  32  33
ENDBRANCH  19  32
TORSDOF 9
