REMARK  Name = ZINC66115522
REMARK  8 active torsions:
REMARK  status: ('A' for Active; 'I' for Inactive)
REMARK    1  A    between atoms: C_4  and  C_7
REMARK    2  A    between atoms: C_7  and  O_8
REMARK    3  A    between atoms: O_8  and  C_9
REMARK    4  A    between atoms: C_18  and  C_19
REMARK    5  A    between atoms: C_19  and  N_20
REMARK    6  A    between atoms: C_26  and  C_28
REMARK    7  A    between atoms: C_28  and  C_29
REMARK    8  A    between atoms: N_31  and  N_32
REMARK                            x       y       z     vdW  Elec       q    Type
REMARK                         _______ _______ _______ _____ _____    ______ ____
ROOT
ATOM      1  C   UNL     1       5.374  -0.627   1.672  0.00  0.00    +0.123 A 
ATOM      2  C   UNL     1       6.138  -0.719   0.504  0.00  0.00    +0.046 A 
ATOM      3  C   UNL     1       7.388  -1.256   0.527  0.00  0.00    +0.012 A 
ATOM      4  C   UNL     1       7.923  -1.725   1.739  0.00  0.00    -0.017 A 
ATOM      5  C   UNL     1       9.211  -2.285   1.798  0.00  0.00    +0.008 A 
ATOM      6  C   UNL     1       9.698  -2.728   2.989  0.00  0.00    +0.001 A 
ATOM      7  C   UNL     1       8.939  -2.637   4.154  0.00  0.00    +0.001 A 
ATOM      8  C   UNL     1       7.688  -2.101   4.135  0.00  0.00    +0.009 A 
ATOM      9  C   UNL     1       7.151  -1.632   2.924  0.00  0.00    -0.013 A 
ATOM     10  C   UNL     1       5.866  -1.068   2.867  0.00  0.00    -0.015 A 
ENDROOT
BRANCH   1  11
ATOM     11  O   UNL     1       4.129  -0.085   1.617  0.00  0.00    -0.487 OA
BRANCH  11  12
ATOM     12  C   UNL     1       3.670   0.358   0.339  0.00  0.00    +0.264 C 
BRANCH  12  16
ATOM     13  C   UNL     1      -0.270   1.964   0.718  0.00  0.00    +0.000 A 
ATOM     14  C   UNL     1       0.829   2.788   0.868  0.00  0.00    +0.000 A 
ATOM     15  C   UNL     1       2.104   2.268   0.745  0.00  0.00    +0.007 A 
ATOM     16  C   UNL     1       2.280   0.924   0.473  0.00  0.00    -0.010 A 
ATOM     17  C   UNL     1       1.180   0.100   0.324  0.00  0.00    +0.007 A 
ATOM     18  C   UNL     1      -0.095   0.620   0.445  0.00  0.00    +0.000 A 
ENDBRANCH  12  16
ENDBRANCH  11  12
ENDBRANCH   1  11
BRANCH  10  19
ATOM     19  C   UNL     1       5.032  -0.955   4.117  0.00  0.00    -0.038 C 
BRANCH  19  20
ATOM     20  N   UNL     1       4.226  -2.172   4.280  0.00  0.00    +0.391 N 
ATOM     21  C   UNL     1       3.240  -2.260   3.192  0.00  0.00    -0.058 C 
ATOM     22  C   UNL     1       2.587  -3.643   3.229  0.00  0.00    +0.085 C 
ATOM     23  N   UNL     1       2.107  -3.930   4.579  0.00  0.00    -0.318 N 
ATOM     24  C   UNL     1       2.531  -3.255   5.654  0.00  0.00    +0.200 C 
ATOM     25  O   UNL     1       2.104  -3.569   6.744  0.00  0.00    -0.278 OA
ATOM     26  C   UNL     1       3.515  -2.123   5.564  0.00  0.00    +0.028 C 
ATOM     27  H   UNL     1       1.456  -4.639   4.701  0.00  0.00    +0.149 HD
ATOM     28  H   UNL     1       4.829  -2.982   4.259  0.00  0.00    -0.080 HD
BRANCH  26  29
ATOM     29  C   UNL     1       4.525  -2.238   6.708  0.00  0.00    +0.091 C 
BRANCH  29  30
ATOM     30  C   UNL     1       5.177  -3.596   6.669  0.00  0.00    +0.225 C 
ATOM     31  O   UNL     1       4.884  -4.384   5.795  0.00  0.00    -0.275 OA
ATOM     32  N   UNL     1       6.086  -3.934   7.604  0.00  0.00    -0.254 N 
ATOM     33  H   UNL     1       6.320  -3.304   8.303  0.00  0.00    +0.169 HD
BRANCH  32  34
ATOM     34  N   UNL     1       6.677  -5.165   7.569  0.00  0.00    -0.254 NA
ATOM     35  H   UNL     1       7.126  -5.325   6.679  0.00  0.00    +0.140 HD
ATOM     36  H   UNL     1       7.332  -5.274   8.329  0.00  0.00    +0.140 HD
ENDBRANCH  32  34
ENDBRANCH  29  30
ENDBRANCH  26  29
ENDBRANCH  19  20
ENDBRANCH  10  19
TORSDOF 8
