REMARK  Name = ZINC12710960
REMARK  9 active torsions:
REMARK  status: ('A' for Active; 'I' for Inactive)
REMARK    1  A    between atoms: C_3  and  C_6
REMARK    2  A    between atoms: C_6  and  N_7
REMARK    3  A    between atoms: N_7  and  C_8
REMARK    4  A    between atoms: C_8  and  C_10
REMARK    5  A    between atoms: C_8  and  C_15
REMARK    6  A    between atoms: N_17  and  C_18
REMARK    7  A    between atoms: C_23  and  C_25
REMARK    8  A    between atoms: C_26  and  N_33
REMARK    9  A    between atoms: C_27  and  C_30
REMARK                            x       y       z     vdW  Elec       q    Type
REMARK                         _______ _______ _______ _____ _____    ______ ____
ROOT
ATOM      1  N   UNL     1      -1.515  -0.623  -0.313  0.00  0.00    -0.274 N 
ATOM      2  C   UNL     1      -0.838   0.405  -0.862  0.00  0.00    +0.258 C 
ATOM      3  O   UNL     1       0.375   0.450  -0.775  0.00  0.00    -0.269 OA
ENDROOT
BRANCH   2   4
ATOM      4  C   UNL     1      -1.562   1.468  -1.561  0.00  0.00    +0.115 A 
ATOM      5  C   UNL     1      -1.082   2.671  -2.082  0.00  0.00    +0.076 A 
ATOM      6  C   UNL     1      -2.085   3.431  -2.684  0.00  0.00    +0.155 A 
ATOM      7  N   UNL     1      -3.316   2.971  -2.704  0.00  0.00    -0.203 NA
ATOM      8  S   UNL     1      -3.289   1.569  -1.982  0.00  0.00    +0.019 S 
BRANCH   6   9
ATOM      9  C   UNL     1      -1.768   4.737  -3.291  0.00  0.00    +0.262 C 
ATOM     10  O   UNL     1      -0.627   5.157  -3.268  0.00  0.00    -0.269 OA
ATOM     11  N   UNL     1      -2.743   5.465  -3.870  0.00  0.00    -0.324 N 
ATOM     12  H   UNL     1      -3.653   5.130  -3.888  0.00  0.00    +0.145 HD
ATOM     13  H   UNL     1      -2.534   6.324  -4.270  0.00  0.00    +0.145 HD
ENDBRANCH   6   9
BRANCH   5  14
ATOM     14  N   UNL     1       0.247   3.067  -2.009  0.00  0.00    -0.355 N 
ATOM     15  H   UNL     1       0.901   2.495  -1.577  0.00  0.00    +0.142 HD
ATOM     16  H   UNL     1       0.522   3.916  -2.389  0.00  0.00    +0.142 HD
ENDBRANCH   5  14
ENDBRANCH   2   4
BRANCH   1  17
ATOM     17  C   UNL     1      -2.955  -0.758  -0.544  0.00  0.00    +0.183 C 
BRANCH  17  20
ATOM     18  C   UNL     1      -4.719   1.254   1.991  0.00  0.00    +0.041 A 
ATOM     19  C   UNL     1      -4.014   1.140   0.770  0.00  0.00    +0.046 A 
ATOM     20  C   UNL     1      -3.708  -0.161   0.617  0.00  0.00    +0.122 A 
ATOM     21  O   UNL     1      -4.193  -0.838   1.671  0.00  0.00    -0.466 OA
ATOM     22  C   UNL     1      -4.801   0.016   2.510  0.00  0.00    +0.195 A 
ENDBRANCH  17  20
ENDBRANCH   1  17
BRANCH   1  23
ATOM     23  C   UNL     1      -0.810  -1.606   0.514  0.00  0.00    +0.199 C 
BRANCH  23  24
ATOM     24  C   UNL     1      -0.979  -2.979  -0.084  0.00  0.00    +0.019 A 
ATOM     25  C   UNL     1      -0.057  -3.959  -0.247  0.00  0.00    +0.013 A 
ATOM     26  C   UNL     1      -0.443  -5.154  -0.824  0.00  0.00    +0.008 A 
ATOM     27  C   UNL     1      -1.730  -5.307  -1.220  0.00  0.00    +0.045 A 
ATOM     28  S   UNL     1      -2.445  -3.734  -0.770  0.00  0.00    -0.099 S 
ENDBRANCH  23  24
BRANCH  23  29
ATOM     29  C   UNL     1      -1.382  -1.592   1.908  0.00  0.00    +0.239 C 
ATOM     30  O   UNL     1      -2.022  -0.636   2.291  0.00  0.00    -0.273 OA
ATOM     31  N   UNL     1      -1.182  -2.641   2.729  0.00  0.00    -0.311 N 
ATOM     32  H   UNL     1      -0.670  -3.406   2.423  0.00  0.00    +0.149 HD
BRANCH  31  33
ATOM     33  C   UNL     1      -1.738  -2.627   4.085  0.00  0.00    +0.073 C 
ATOM     34  C   UNL     1      -0.745  -1.956   5.056  0.00  0.00    +0.022 C 
ATOM     35  C   UNL     1      -0.883  -2.773   6.365  0.00  0.00    +0.002 C 
ATOM     36  C   UNL     1      -1.061  -4.222   5.846  0.00  0.00    +0.002 C 
ATOM     37  C   UNL     1      -1.939  -4.068   4.587  0.00  0.00    +0.022 C 
ENDBRANCH  31  33
ENDBRANCH  23  29
ENDBRANCH   1  23
TORSDOF 9
