REMARK  Name = ZINC20912096
REMARK  16 active torsions:
REMARK  status: ('A' for Active; 'I' for Inactive)
REMARK    1  A    between atoms: C_1  and  C_2
REMARK    2  A    between atoms: C_3  and  C_11
REMARK    3  A    between atoms: C_4  and  C_10
REMARK    4  A    between atoms: N_5  and  C_7
REMARK    5  A    between atoms: C_7  and  C_8
REMARK    6  A    between atoms: C_7  and  C_9
REMARK    7  A    between atoms: N_12  and  N_13
REMARK    8  A    between atoms: C_17  and  S_20
REMARK    9  A    between atoms: N_18  and  N_19
REMARK   10  A    between atoms: S_20  and  C_21
REMARK   11  A    between atoms: C_21  and  C_22
REMARK   12  A    between atoms: N_24  and  C_25
REMARK   13  A    between atoms: C_27  and  C_33
REMARK   14  A    between atoms: C_27  and  C_34
REMARK   15  A    between atoms: C_29  and  C_31
REMARK   16  A    between atoms: C_29  and  C_32
REMARK                            x       y       z     vdW  Elec       q    Type
REMARK                         _______ _______ _______ _____ _____    ______ ____
ROOT
ATOM      1  N   UNL     1      -2.939   1.588   0.045  0.00  0.00    -0.204 N 
ATOM      2  C   UNL     1      -2.081   1.760  -1.031  0.00  0.00    +0.254 A 
ATOM      3  N   UNL     1      -2.412   2.209  -2.217  0.00  0.00    -0.109 NA
ATOM      4  N   UNL     1      -1.258   2.230  -3.011  0.00  0.00    -0.119 NA
ATOM      5  C   UNL     1      -0.257   1.797  -2.281  0.00  0.00    +0.210 A 
ATOM      6  N   UNL     1      -0.741   1.490  -1.041  0.00  0.00    -0.211 N 
ATOM      7  H   UNL     1      -2.554   1.202   1.000  0.00  0.00    +0.177 HD
ENDROOT
BRANCH   6   8
ATOM      8  N   UNL     1      -0.012   1.005   0.008  0.00  0.00    -0.294 N 
ATOM      9  H   UNL     1       1.067   0.823  -0.110  0.00  0.00    +0.163 HD
ATOM     10  H   UNL     1      -0.503   0.796   0.969  0.00  0.00    +0.163 HD
ENDBRANCH   6   8
BRANCH   1  12
ATOM     11  C   UNL     1      -5.101   1.746   0.921  0.00  0.00    +0.141 C 
ATOM     12  N   UNL     1      -4.298   1.907  -0.085  0.00  0.00    -0.187 NA
BRANCH  11  15
ATOM     13  C   UNL     1      -6.500   2.873  -1.692  0.00  0.00    +0.068 C 
ATOM     14  C   UNL     1      -7.167   2.583  -0.372  0.00  0.00    +0.069 A 
ATOM     15  C   UNL     1      -6.532   2.081   0.785  0.00  0.00    +0.038 A 
ATOM     16  C   UNL     1      -7.497   1.957   1.760  0.00  0.00    +0.045 A 
ATOM     17  N   UNL     1      -8.664   2.372   1.228  0.00  0.00    -0.265 N 
ATOM     18  N   UNL     1      -8.433   2.752  -0.099  0.00  0.00    -0.175 NA
ATOM     19  C   UNL     1      -7.286   1.454   3.165  0.00  0.00    +0.066 C 
BRANCH  17  20
ATOM     20  C   UNL     1      -9.956   2.412   1.918  0.00  0.00    +0.101 C 
ATOM     21  C   UNL     1     -10.480   3.849   1.936  0.00  0.00    +0.032 C 
ATOM     22  C   UNL     1     -10.954   1.514   1.185  0.00  0.00    +0.032 C 
ENDBRANCH  17  20
ENDBRANCH  11  15
ENDBRANCH   1  12
BRANCH   5  23
ATOM     23  S   UNL     1       1.416   1.636  -2.810  0.00  0.00    -0.075 S 
BRANCH  23  24
ATOM     24  C   UNL     1       1.388   2.201  -4.533  0.00  0.00    +0.173 C 
BRANCH  24  25
ATOM     25  C   UNL     1       2.777   2.114  -5.113  0.00  0.00    +0.224 C 
ATOM     26  O   UNL     1       3.694   1.710  -4.431  0.00  0.00    -0.275 OA
ATOM     27  N   UNL     1       2.998   2.484  -6.390  0.00  0.00    -0.312 N 
ATOM     28  H   UNL     1       2.166   2.851  -7.008  0.00  0.00    +0.149 HD
BRANCH  27  29
ATOM     29  C   UNL     1       4.351   2.399  -6.955  0.00  0.00    +0.070 C 
ATOM     30  C   UNL     1       5.113   3.684  -6.633  0.00  0.00    +0.009 C 
ATOM     31  C   UNL     1       6.518   3.631  -7.227  0.00  0.00    -0.072 C 
ATOM     32  N   UNL     1       6.527   3.241  -8.621  0.00  0.00    +0.386 N 
ATOM     33  C   UNL     1       5.649   2.191  -9.091  0.00  0.00    -0.072 C 
ATOM     34  C   UNL     1       4.254   2.259  -8.473  0.00  0.00    +0.009 C 
ATOM     35  C   UNL     1       6.255   0.806  -8.836  0.00  0.00    -0.010 C 
ATOM     36  C   UNL     1       5.488   2.344 -10.620  0.00  0.00    -0.010 C 
ATOM     37  C   UNL     1       7.396   2.698  -6.385  0.00  0.00    -0.010 C 
ATOM     38  C   UNL     1       7.123   5.049  -7.119  0.00  0.00    -0.010 C 
ATOM     39  H   UNL     1       6.261   4.106  -9.246  0.00  0.00    -0.084 HD
ATOM     40  H   UNL     1       7.532   2.886  -8.896  0.00  0.00    -0.084 HD
ENDBRANCH  27  29
ENDBRANCH  24  25
ENDBRANCH  23  24
ENDBRANCH   5  23
TORSDOF 8
