REMARK  Name = ZINC63140221
REMARK  10 active torsions:
REMARK  status: ('A' for Active; 'I' for Inactive)
REMARK    1  A    between atoms: C_1  and  O_2
REMARK    2  A    between atoms: O_2  and  C_3
REMARK    3  A    between atoms: C_5  and  C_13
REMARK    4  A    between atoms: C_7  and  O_11
REMARK    5  A    between atoms: C_8  and  O_9
REMARK    6  A    between atoms: O_9  and  C_10
REMARK    7  A    between atoms: O_11  and  C_12
REMARK    8  A    between atoms: N_32  and  C_35
REMARK    9  A    between atoms: C_35  and  C_36
REMARK   10  A    between atoms: C_36  and  C_37
REMARK                            x       y       z     vdW  Elec       q    Type
REMARK                         _______ _______ _______ _____ _____    ______ ____
ROOT
ATOM      1  C   UNL     1      -4.871   0.264   0.038  0.00  0.00    +0.134 C 
ATOM      2  C   UNL     1      -5.399   0.419  -1.391  0.00  0.00    +0.131 C 
ATOM      3  C   UNL     1      -6.804   0.997  -1.279  0.00  0.00    -0.034 C 
ATOM      4  C   UNL     1      -6.813   2.106  -2.009  0.00  0.00    -0.001 A 
ATOM      5  C   UNL     1      -7.892   3.050  -2.342  0.00  0.00    +0.010 A 
ATOM      6  C   UNL     1      -7.543   4.109  -3.120  0.00  0.00    +0.001 A 
ATOM      7  C   UNL     1      -6.244   4.320  -3.593  0.00  0.00    +0.002 A 
ATOM      8  C   UNL     1      -5.192   3.501  -3.340  0.00  0.00    +0.026 A 
ATOM      9  C   UNL     1      -5.436   2.350  -2.536  0.00  0.00    +0.043 A 
ATOM     10  N   UNL     1      -4.615   1.387  -2.161  0.00  0.00    -0.375 N 
ATOM     11  C   UNL     1      -7.866   0.376  -0.405  0.00  0.00    +0.065 C 
ATOM     12  C   UNL     1      -7.226   0.161   0.979  0.00  0.00    +0.167 C 
ATOM     13  N   UNL     1      -5.906  -0.442   0.827  0.00  0.00    -0.279 N 
ATOM     14  C   UNL     1      -5.583  -1.621   1.371  0.00  0.00    +0.234 C 
ATOM     15  O   UNL     1      -4.466  -2.048   1.169  0.00  0.00    -0.274 OA
ATOM     16  C   UNL     1      -6.500  -2.449   2.209  0.00  0.00    +0.203 C 
ATOM     17  N   UNL     1      -7.801  -1.824   2.382  0.00  0.00    -0.291 N 
ATOM     18  C   UNL     1      -8.137  -0.657   1.833  0.00  0.00    +0.237 C 
ATOM     19  O   UNL     1      -9.252  -0.231   2.045  0.00  0.00    -0.274 OA
ATOM     20  H   UNL     1      -3.666   1.324  -2.351  0.00  0.00    +0.160 HD
ENDROOT
BRANCH   1  23
ATOM     21  C   UNL     1      -2.250  -2.281  -0.929  0.00  0.00    +0.165 A 
ATOM     22  C   UNL     1      -3.420  -1.537  -0.916  0.00  0.00    +0.055 A 
ATOM     23  C   UNL     1      -3.598  -0.543   0.028  0.00  0.00    -0.018 A 
ATOM     24  C   UNL     1      -2.612  -0.286   0.961  0.00  0.00    +0.055 A 
ATOM     25  C   UNL     1      -1.439  -1.026   0.955  0.00  0.00    +0.165 A 
ATOM     26  C   UNL     1      -1.258  -2.030   0.011  0.00  0.00    +0.204 A 
BRANCH  21  28
ATOM     27  C   UNL     1      -3.137  -3.462  -2.794  0.00  0.00    +0.277 C 
ATOM     28  O   UNL     1      -2.076  -3.259  -1.858  0.00  0.00    -0.491 OA
ENDBRANCH  21  28
BRANCH  26  29
ATOM     29  O   UNL     1      -0.111  -2.762   0.005  0.00  0.00    -0.488 OA
ATOM     30  C   UNL     1       0.971  -2.266  -0.787  0.00  0.00    +0.277 C 
ENDBRANCH  26  29
BRANCH  25  31
ATOM     31  O   UNL     1      -0.469  -0.772   1.873  0.00  0.00    -0.491 OA
ATOM     32  C   UNL     1      -0.725   0.271   2.816  0.00  0.00    +0.277 C 
ENDBRANCH  25  31
ENDBRANCH   1  23
BRANCH  17  33
ATOM     33  C   UNL     1      -8.799  -2.516   3.201  0.00  0.00    +0.113 C 
BRANCH  33  34
ATOM     34  C   UNL     1      -8.661  -2.071   4.658  0.00  0.00    +0.054 C 
BRANCH  34  35
ATOM     35  C   UNL     1      -9.687  -2.783   5.500  0.00  0.00    -0.046 A 
ATOM     36  C   UNL     1     -10.938  -2.225   5.684  0.00  0.00    +0.004 A 
ATOM     37  C   UNL     1     -11.880  -2.879   6.457  0.00  0.00    +0.000 A 
ATOM     38  C   UNL     1     -11.570  -4.091   7.046  0.00  0.00    +0.000 A 
ATOM     39  C   UNL     1     -10.319  -4.649   6.861  0.00  0.00    +0.000 A 
ATOM     40  C   UNL     1      -9.379  -3.998   6.085  0.00  0.00    +0.004 A 
ENDBRANCH  34  35
ENDBRANCH  33  34
ENDBRANCH  17  33
TORSDOF 7
