REMARK  Name = ZINC36503736
REMARK  14 active torsions:
REMARK  status: ('A' for Active; 'I' for Inactive)
REMARK    1  A    between atoms: C_1  and  C_2
REMARK    2  A    between atoms: C_2  and  C_3
REMARK    3  A    between atoms: C_2  and  C_4
REMARK    4  A    between atoms: C_2  and  N_5
REMARK    5  A    between atoms: C_6  and  C_8
REMARK    6  A    between atoms: C_8  and  C_10
REMARK    7  A    between atoms: C_8  and  N_19
REMARK    8  A    between atoms: C_11  and  O_18
REMARK    9  A    between atoms: C_13  and  O_17
REMARK   10  A    between atoms: C_15  and  O_16
REMARK   11  A    between atoms: N_19  and  C_20
REMARK   12  A    between atoms: C_20  and  C_21
REMARK   13  A    between atoms: C_26  and  C_28
REMARK   14  A    between atoms: C_28  and  O_29
REMARK                            x       y       z     vdW  Elec       q    Type
REMARK                         _______ _______ _______ _____ _____    ______ ____
ROOT
ATOM      1  C   UNL     1       2.685  -0.622  -2.628  0.00  0.00    +0.200 C 
ENDROOT
BRANCH   1   2
ATOM      2  C   UNL     1       1.901  -0.034  -3.773  0.00  0.00    +0.065 A 
ATOM      3  C   UNL     1       2.076   1.297  -4.122  0.00  0.00    +0.129 A 
ATOM      4  C   UNL     1       1.354   1.838  -5.175  0.00  0.00    +0.091 A 
ATOM      5  C   UNL     1       0.458   1.048  -5.880  0.00  0.00    +0.124 A 
ATOM      6  C   UNL     1       0.284  -0.283  -5.531  0.00  0.00    +0.091 A 
ATOM      7  C   UNL     1       1.009  -0.825  -4.481  0.00  0.00    +0.129 A 
BRANCH   7   8
ATOM      8  O   UNL     1       0.842  -2.130  -4.142  0.00  0.00    -0.506 OA
ATOM      9  H   UNL     1       0.148  -2.281  -3.486  0.00  0.00    +0.292 HD
ENDBRANCH   7   8
BRANCH   5  10
ATOM     10  O   UNL     1      -0.250   1.579  -6.911  0.00  0.00    -0.507 OA
ATOM     11  H   UNL     1       0.189   1.502  -7.770  0.00  0.00    +0.292 HD
ENDBRANCH   5  10
BRANCH   3  12
ATOM     12  O   UNL     1       2.954   2.071  -3.431  0.00  0.00    -0.506 OA
ATOM     13  H   UNL     1       3.864   2.014  -3.752  0.00  0.00    +0.292 HD
ENDBRANCH   3  12
ENDBRANCH   1   2
BRANCH   1  15
ATOM     14  N   UNL     1       0.821  -0.010  -1.121  0.00  0.00    -0.309 N 
ATOM     15  C   UNL     1       2.151  -0.085  -1.325  0.00  0.00    +0.239 C 
ATOM     16  O   UNL     1       2.919   0.280  -0.460  0.00  0.00    -0.273 OA
ATOM     17  H   UNL     1       0.207  -0.302  -1.814  0.00  0.00    +0.149 HD
BRANCH  14  19
ATOM     18  C   UNL     1       0.787   1.950   0.341  0.00  0.00    +0.031 C 
ATOM     19  C   UNL     1       0.302   0.512   0.145  0.00  0.00    +0.026 C 
ATOM     20  C   UNL     1       0.804  -0.358   1.299  0.00  0.00    +0.031 C 
ATOM     21  C   UNL     1      -1.227   0.489   0.118  0.00  0.00    +0.031 C 
ENDBRANCH  14  19
ENDBRANCH   1  15
BRANCH   1  22
ATOM     22  N   UNL     1       4.097  -0.257  -2.765  0.00  0.00    -0.276 N 
ATOM     23  C   UNL     1       4.852  -0.830  -3.723  0.00  0.00    +0.242 C 
ATOM     24  O   UNL     1       6.041  -0.596  -3.780  0.00  0.00    -0.273 OA
BRANCH  22  25
ATOM     25  C   UNL     1       4.689   0.732  -1.860  0.00  0.00    +0.183 C 
BRANCH  25  26
ATOM     26  C   UNL     1       5.431   0.023  -0.757  0.00  0.00    +0.122 A 
ATOM     27  C   UNL     1       6.728  -0.333  -0.784  0.00  0.00    +0.046 A 
ATOM     28  C   UNL     1       7.004  -0.969   0.449  0.00  0.00    +0.041 A 
ATOM     29  C   UNL     1       5.859  -0.963   1.155  0.00  0.00    +0.195 A 
ATOM     30  O   UNL     1       4.912  -0.356   0.422  0.00  0.00    -0.466 OA
ENDBRANCH  25  26
ENDBRANCH  22  25
BRANCH  23  31
ATOM     31  C   UNL     1       4.219  -1.762  -4.723  0.00  0.00    +0.251 C 
BRANCH  31  32
ATOM     32  O   UNL     1       5.234  -2.336  -5.550  0.00  0.00    -0.386 OA
ATOM     33  H   UNL     1       4.898  -2.948  -6.218  0.00  0.00    +0.210 HD
ENDBRANCH  31  32
ENDBRANCH  23  31
ENDBRANCH   1  22
TORSDOF 11
