REMARK  Name = ZINC04856256
REMARK  8 active torsions:
REMARK  status: ('A' for Active; 'I' for Inactive)
REMARK    1  A    between atoms: C_4  and  C_7
REMARK    2  A    between atoms: C_7  and  C_8
REMARK    3  A    between atoms: C_8  and  N_9
REMARK    4  A    between atoms: C_10  and  N_28
REMARK    5  A    between atoms: C_15  and  S_16
REMARK    6  A    between atoms: S_16  and  C_17
REMARK    7  A    between atoms: C_17  and  C_18
REMARK    8  A    between atoms: N_20  and  C_21
REMARK                            x       y       z     vdW  Elec       q    Type
REMARK                         _______ _______ _______ _____ _____    ______ ____
ROOT
ATOM      1  N   UNL     1       5.450  -1.679   1.394  0.00  0.00    -0.310 N 
ATOM      2  C   UNL     1       5.467  -3.049   1.389  0.00  0.00    +0.103 A 
ATOM      3  C   UNL     1       6.668  -3.698   1.382  0.00  0.00    +0.111 A 
ATOM      4  C   UNL     1       7.853  -2.937   1.380  0.00  0.00    +0.254 A 
ATOM      5  O   UNL     1       8.941  -3.494   1.373  0.00  0.00    -0.268 OA
ATOM      6  N   UNL     1       7.783  -1.596   1.385  0.00  0.00    -0.303 N 
ATOM      7  C   UNL     1       6.620  -0.979   1.386  0.00  0.00    +0.151 A 
ATOM      8  H   UNL     1       8.601  -1.074   1.383  0.00  0.00    +0.171 HD
ENDROOT
BRANCH   2   9
ATOM      9  N   UNL     1       4.289  -3.761   1.393  0.00  0.00    -0.344 N 
ATOM     10  H   UNL     1       3.440  -3.293   1.398  0.00  0.00    +0.144 HD
ATOM     11  H   UNL     1       4.309  -4.731   1.389  0.00  0.00    +0.144 HD
ENDBRANCH   2   9
BRANCH   1  12
ATOM     12  C   UNL     1       4.172  -0.964   1.401  0.00  0.00    +0.130 C 
BRANCH  12  13
ATOM     13  C   UNL     1       3.718  -0.716  -0.039  0.00  0.00    +0.057 C 
BRANCH  13  17
ATOM     14  C   UNL     1      -0.010   1.369  -0.021  0.00  0.00    +0.000 A 
ATOM     15  C   UNL     1       1.177   2.076  -0.027  0.00  0.00    +0.000 A 
ATOM     16  C   UNL     1       2.384   1.401  -0.033  0.00  0.00    +0.004 A 
ATOM     17  C   UNL     1       2.403   0.019  -0.032  0.00  0.00    -0.046 A 
ATOM     18  C   UNL     1       1.215  -0.688  -0.024  0.00  0.00    +0.004 A 
ATOM     19  C   UNL     1       0.009  -0.014  -0.020  0.00  0.00    +0.000 A 
ENDBRANCH  13  17
ENDBRANCH  12  13
ENDBRANCH   1  12
BRANCH   7  20
ATOM     20  S   UNL     1       6.574   0.782   1.385  0.00  0.00    -0.080 S 
BRANCH  20  21
ATOM     21  C   UNL     1       8.322   1.266   1.374  0.00  0.00    +0.173 C 
BRANCH  21  22
ATOM     22  C   UNL     1       8.427   2.769   1.372  0.00  0.00    +0.227 C 
ATOM     23  O   UNL     1       7.422   3.448   1.378  0.00  0.00    -0.275 OA
ATOM     24  N   UNL     1       9.639   3.361   1.364  0.00  0.00    -0.285 N 
ATOM     25  H   UNL     1      10.442   2.821   1.427  0.00  0.00    +0.155 HD
BRANCH  24  26
ATOM     26  C   UNL     1       9.737   4.754   1.265  0.00  0.00    +0.034 A 
ATOM     27  C   UNL     1      10.784   5.328   0.555  0.00  0.00    +0.026 A 
ATOM     28  C   UNL     1      10.879   6.702   0.459  0.00  0.00    +0.040 A 
ATOM     29  C   UNL     1       9.932   7.508   1.069  0.00  0.00    +0.124 A 
ATOM     30  C   UNL     1       8.888   6.937   1.777  0.00  0.00    +0.040 A 
ATOM     31  C   UNL     1       8.785   5.563   1.871  0.00  0.00    +0.026 A 
ATOM     32  F   UNL     1      10.028   8.852   0.974  0.00  0.00    -0.205 F 
ENDBRANCH  24  26
ENDBRANCH  21  22
ENDBRANCH  20  21
ENDBRANCH   7  20
TORSDOF 8
