REMARK  Name = ZINC61807163
REMARK  10 active torsions:
REMARK  status: ('A' for Active; 'I' for Inactive)
REMARK    1  A    between atoms: C_4  and  O_10
REMARK    2  A    between atoms: C_5  and  C_7
REMARK    3  A    between atoms: C_7  and  N_9
REMARK    4  A    between atoms: O_10  and  C_11
REMARK    5  A    between atoms: C_11  and  C_12
REMARK    6  A    between atoms: C_12  and  N_13
REMARK    7  A    between atoms: N_13  and  C_14
REMARK    8  A    between atoms: N_13  and  C_18
REMARK    9  A    between atoms: C_14  and  C_15
REMARK   10  A    between atoms: C_18  and  C_19
REMARK                            x       y       z     vdW  Elec       q    Type
REMARK                         _______ _______ _______ _____ _____    ______ ____
ROOT
ATOM      1  C   UNL     1       5.934  -1.108   0.059  0.00  0.00    -0.036 C 
ENDROOT
BRANCH   1   2
ATOM      2  N   UNL     1       6.073  -1.564  -1.330  0.00  0.00    +0.393 N 
ATOM      3  H   UNL     1       5.209  -1.987  -1.634  0.00  0.00    -0.080 HD
BRANCH   2   4
ATOM      4  C   UNL     1       6.386  -0.416  -2.193  0.00  0.00    +0.019 C 
BRANCH   4   5
ATOM      5  C   UNL     1       7.705   0.180  -1.777  0.00  0.00    +0.194 C 
ATOM      6  O   UNL     1       8.277  -0.240  -0.793  0.00  0.00    -0.278 OA
ATOM      7  N   UNL     1       8.250   1.180  -2.498  0.00  0.00    -0.331 N 
ATOM      8  H   UNL     1       7.793   1.515  -3.285  0.00  0.00    +0.145 HD
ATOM      9  H   UNL     1       9.100   1.564  -2.230  0.00  0.00    +0.145 HD
ENDBRANCH   4   5
ENDBRANCH   2   4
BRANCH   2  10
ATOM     10  C   UNL     1       7.158  -2.550  -1.415  0.00  0.00    +0.019 C 
BRANCH  10  11
ATOM     11  C   UNL     1       7.196  -3.138  -2.803  0.00  0.00    +0.194 C 
ATOM     12  O   UNL     1       6.407  -2.759  -3.643  0.00  0.00    -0.278 OA
ATOM     13  N   UNL     1       8.105  -4.084  -3.110  0.00  0.00    -0.331 N 
ATOM     14  H   UNL     1       8.735  -4.387  -2.438  0.00  0.00    +0.145 HD
ATOM     15  H   UNL     1       8.129  -4.462  -4.003  0.00  0.00    +0.145 HD
ENDBRANCH  10  11
ENDBRANCH   2  10
ENDBRANCH   1   2
BRANCH   1  16
ATOM     16  C   UNL     1       4.706  -0.203   0.178  0.00  0.00    +0.210 C 
BRANCH  16  17
ATOM     17  O   UNL     1       3.526  -0.963  -0.091  0.00  0.00    -0.493 OA
BRANCH  17  21
ATOM     18  C   UNL     1      -0.082   1.046   0.104  0.00  0.00    +0.001 A 
ATOM     19  C   UNL     1       1.105   1.715   0.353  0.00  0.00    +0.004 A 
ATOM     20  C   UNL     1       2.311   1.046   0.289  0.00  0.00    +0.046 A 
ATOM     21  C   UNL     1       2.341  -0.304  -0.027  0.00  0.00    +0.130 A 
ATOM     22  C   UNL     1       1.142  -0.985  -0.279  0.00  0.00    +0.045 A 
ATOM     23  C   UNL     1      -0.071  -0.296  -0.210  0.00  0.00    +0.014 A 
BRANCH  22  24
ATOM     24  C   UNL     1       1.162  -2.420  -0.615  0.00  0.00    +0.080 C 
ATOM     25  S   UNL     1       2.651  -3.260  -0.698  0.00  0.00    -0.035 S 
BRANCH  24  26
ATOM     26  N   UNL     1       0.007  -3.071  -0.857  0.00  0.00    -0.352 N 
ATOM     27  H   UNL     1      -0.837  -2.595  -0.810  0.00  0.00    +0.143 HD
ATOM     28  H   UNL     1       0.019  -4.015  -1.078  0.00  0.00    +0.143 HD
ENDBRANCH  24  26
ENDBRANCH  22  24
ENDBRANCH  17  21
ENDBRANCH  16  17
ENDBRANCH   1  16
TORSDOF 10
