REMARK  Name = ZINC21584291
REMARK  12 active torsions:
REMARK  status: ('A' for Active; 'I' for Inactive)
REMARK    1  A    between atoms: C_1  and  C_2
REMARK    2  A    between atoms: C_3  and  N_15
REMARK    3  A    between atoms: N_6  and  C_9
REMARK    4  A    between atoms: N_7  and  C_8
REMARK    5  A    between atoms: C_16  and  C_18
REMARK    6  A    between atoms: C_18  and  N_19
REMARK    7  A    between atoms: N_19  and  C_20
REMARK    8  A    between atoms: C_20  and  C_22
REMARK    9  A    between atoms: C_20  and  C_34
REMARK   10  A    between atoms: C_25  and  C_28
REMARK   11  A    between atoms: C_34  and  C_35
REMARK   12  A    between atoms: C_34  and  C_36
REMARK                            x       y       z     vdW  Elec       q    Type
REMARK                         _______ _______ _______ _____ _____    ______ ____
ROOT
ATOM      1  C   UNL     1      -2.790  -1.269  -0.911  0.00  0.00    +0.016 C 
ENDROOT
BRANCH   1   3
ATOM      2  N   UNL     1      -1.957  -3.585  -1.157  0.00  0.00    -0.281 N 
ATOM      3  C   UNL     1      -2.669  -2.695  -0.438  0.00  0.00    +0.200 C 
ATOM      4  O   UNL     1      -3.213  -3.042   0.589  0.00  0.00    -0.278 OA
ATOM      5  H   UNL     1      -1.404  -3.256  -2.049  0.00  0.00    +0.155 HD
BRANCH   2   8
ATOM      6  C   UNL     1       0.606  -5.159  -0.549  0.00  0.00    +0.067 C 
ATOM      7  C   UNL     1      -0.812  -5.663  -0.490  0.00  0.00    +0.059 A 
ATOM      8  C   UNL     1      -1.920  -4.938  -0.765  0.00  0.00    +0.121 A 
ATOM      9  C   UNL     1      -3.072  -5.822  -0.587  0.00  0.00    +0.293 A 
ATOM     10  O   UNL     1      -4.243  -5.529  -0.748  0.00  0.00    -0.264 OA
ATOM     11  N   UNL     1      -2.590  -7.025  -0.210  0.00  0.00    -0.216 N 
ATOM     12  N   UNL     1      -1.195  -6.933  -0.145  0.00  0.00    -0.282 N 
ATOM     13  C   UNL     1      -0.289  -8.022   0.227  0.00  0.00    +0.171 C 
BRANCH  11  14
ATOM     14  C   UNL     1      -3.352  -8.165   0.067  0.00  0.00    +0.067 A 
ATOM     15  C   UNL     1      -3.005  -9.387  -0.494  0.00  0.00    +0.028 A 
ATOM     16  C   UNL     1      -3.756 -10.512  -0.214  0.00  0.00    +0.002 A 
ATOM     17  C   UNL     1      -4.859 -10.419   0.615  0.00  0.00    +0.000 A 
ATOM     18  C   UNL     1      -5.210  -9.203   1.171  0.00  0.00    +0.002 A 
ATOM     19  C   UNL     1      -4.460  -8.076   0.899  0.00  0.00    +0.028 A 
ENDBRANCH  11  14
ENDBRANCH   2   8
ENDBRANCH   1   3
BRANCH   1  20
ATOM     20  N   UNL     1      -3.610  -0.506   0.039  0.00  0.00    +0.389 N 
ATOM     21  H   UNL     1      -4.579  -1.010   0.175  0.00  0.00    -0.084 HD
ATOM     22  H   UNL     1      -3.090  -0.446   1.006  0.00  0.00    -0.084 HD
BRANCH  20  23
ATOM     23  C   UNL     1      -3.853   0.857  -0.452  0.00  0.00    -0.038 C 
BRANCH  23  24
ATOM     24  C   UNL     1      -5.128   1.388   0.151  0.00  0.00    -0.061 A 
ATOM     25  C   UNL     1      -5.430   1.123   1.474  0.00  0.00    +0.002 A 
ATOM     26  C   UNL     1      -6.597   1.614   2.028  0.00  0.00    +0.004 A 
ATOM     27  C   UNL     1      -7.467   2.362   1.257  0.00  0.00    -0.044 A 
ATOM     28  C   UNL     1      -7.168   2.623  -0.067  0.00  0.00    +0.004 A 
ATOM     29  C   UNL     1      -5.998   2.135  -0.620  0.00  0.00    +0.002 A 
BRANCH  27  30
ATOM     30  C   UNL     1      -8.742   2.893   1.860  0.00  0.00    +0.019 C 
ATOM     31  C   UNL     1      -8.406   3.813   3.036  0.00  0.00    +0.008 C 
ATOM     32  C   UNL     1      -9.700   4.352   3.648  0.00  0.00    +0.001 C 
ATOM     33  C   UNL     1     -10.556   3.184   4.143  0.00  0.00    +0.000 C 
ATOM     34  C   UNL     1     -10.892   2.264   2.967  0.00  0.00    +0.001 C 
ATOM     35  C   UNL     1      -9.598   1.725   2.355  0.00  0.00    +0.008 C 
ENDBRANCH  27  30
ENDBRANCH  23  24
BRANCH  23  36
ATOM     36  C   UNL     1      -2.684   1.759  -0.050  0.00  0.00    -0.027 C 
ATOM     37  C   UNL     1      -2.598   1.833   1.476  0.00  0.00    +0.006 C 
ATOM     38  C   UNL     1      -2.906   3.163  -0.617  0.00  0.00    +0.006 C 
ENDBRANCH  23  36
ENDBRANCH  20  23
ENDBRANCH   1  20
TORSDOF 8
