REMARK  Name = ZINC58107134
REMARK  6 active torsions:
REMARK  status: ('A' for Active; 'I' for Inactive)
REMARK    1  A    between atoms: C_1  and  C_2
REMARK    2  A    between atoms: C_6  and  C_14
REMARK    3  A    between atoms: C_14  and  C_16
REMARK    4  A    between atoms: C_14  and  N_24
REMARK    5  A    between atoms: C_21  and  O_22
REMARK    6  A    between atoms: O_22  and  C_23
REMARK                            x       y       z     vdW  Elec       q    Type
REMARK                         _______ _______ _______ _____ _____    ______ ____
ROOT
ATOM      1  C   UNL     1      -0.019   1.526   0.010  0.00  0.00    +0.022 C 
ATOM      2  C   UNL     1       0.002  -0.004   0.002  0.00  0.00    +0.104 C 
ATOM      3  C   UNL     1       0.746  -0.517  -1.210  0.00  0.00    -0.012 A 
ATOM      4  C   UNL     1       0.531  -0.387  -2.564  0.00  0.00    +0.008 A 
ATOM      5  C   UNL     1       1.400  -0.982  -3.462  0.00  0.00    -0.054 A 
ATOM      6  C   UNL     1       2.483  -1.705  -2.995  0.00  0.00    +0.042 A 
ATOM      7  C   UNL     1       2.701  -1.837  -1.638  0.00  0.00    +0.145 A 
ATOM      8  C   UNL     1       1.828  -1.240  -0.727  0.00  0.00    +0.073 A 
ATOM      9  N   UNL     1       1.832  -1.229   0.669  0.00  0.00    -0.282 N 
ATOM     10  C   UNL     1       0.799  -0.530   1.177  0.00  0.00    +0.224 C 
ATOM     11  O   UNL     1       0.552  -0.354   2.351  0.00  0.00    -0.275 OA
ATOM     12  F   UNL     1       3.760  -2.546  -1.191  0.00  0.00    -0.204 F 
ATOM     13  H   UNL     1       2.502  -1.674   1.212  0.00  0.00    +0.155 HD
ENDROOT
BRANCH   5  14
ATOM     14  C   UNL     1       1.168  -0.842  -4.944  0.00  0.00    -0.010 C 
BRANCH  14  15
ATOM     15  C   UNL     1       2.072   0.230  -5.495  0.00  0.00    -0.016 A 
ATOM     16  C   UNL     1       3.238  -0.118  -6.150  0.00  0.00    +0.006 A 
ATOM     17  C   UNL     1       4.069   0.865  -6.655  0.00  0.00    +0.000 A 
ATOM     18  C   UNL     1       3.735   2.199  -6.508  0.00  0.00    +0.004 A 
ATOM     19  C   UNL     1       2.570   2.552  -5.855  0.00  0.00    +0.046 A 
ATOM     20  C   UNL     1       1.732   1.567  -5.351  0.00  0.00    +0.122 A 
BRANCH  20  21
ATOM     21  O   UNL     1       0.583   1.912  -4.713  0.00  0.00    -0.495 OA
ATOM     22  C   UNL     1       0.297   3.308  -4.601  0.00  0.00    +0.277 C 
ENDBRANCH  20  21
ENDBRANCH  14  15
BRANCH  14  23
ATOM     23  N   UNL     1       1.460  -2.119  -5.608  0.00  0.00    +0.385 N 
ATOM     24  H   UNL     1       2.423  -2.372  -5.441  0.00  0.00    -0.089 HD
ATOM     25  H   UNL     1       0.855  -2.836  -5.239  0.00  0.00    -0.089 HD
ATOM     26  H   UNL     1       1.305  -2.025  -6.601  0.00  0.00    -0.089 HD
ENDBRANCH  14  23
ENDBRANCH   5  14
TORSDOF 4
