REMARK  Name = ZINC66196137
REMARK  15 active torsions:
REMARK  status: ('A' for Active; 'I' for Inactive)
REMARK    1  A    between atoms: C_1  and  C_2
REMARK    2  A    between atoms: C_2  and  C_3
REMARK    3  A    between atoms: C_3  and  C_5
REMARK    4  A    between atoms: C_3  and  N_6
REMARK    5  A    between atoms: N_6  and  C_7
REMARK    6  A    between atoms: N_6  and  C_8
REMARK    7  A    between atoms: C_8  and  C_9
REMARK    8  A    between atoms: C_9  and  N_10
REMARK    9  A    between atoms: N_13  and  C_14
REMARK   10  A    between atoms: C_14  and  C_15
REMARK   11  A    between atoms: C_15  and  C_16
REMARK   12  A    between atoms: C_16  and  C_17
REMARK   13  A    between atoms: C_18  and  C_29
REMARK   14  A    between atoms: C_19  and  N_28
REMARK   15  A    between atoms: N_20  and  C_22
REMARK                            x       y       z     vdW  Elec       q    Type
REMARK                         _______ _______ _______ _____ _____    ______ ____
ROOT
ATOM      1  C   UNL     1     -10.036  -2.607   3.521  0.00  0.00    +0.025 C 
ENDROOT
BRANCH   1   2
ATOM      2  C   UNL     1      -8.804  -1.825   3.979  0.00  0.00    +0.106 C 
BRANCH   2   6
ATOM      3  N   UNL     1      -5.618  -1.375   2.199  0.00  0.00    -0.301 N 
ATOM      4  C   UNL     1      -6.578  -1.295   3.142  0.00  0.00    +0.300 C 
ATOM      5  O   UNL     1      -6.376  -0.665   4.162  0.00  0.00    -0.253 OA
ATOM      6  N   UNL     1      -7.761  -1.912   2.954  0.00  0.00    -0.299 N 
ATOM      7  H   UNL     1      -5.779  -1.878   1.385  0.00  0.00    +0.150 HD
ATOM      8  H   UNL     1      -7.922  -2.415   2.140  0.00  0.00    +0.150 HD
BRANCH   3   9
ATOM      9  C   UNL     1      -4.332  -0.704   2.404  0.00  0.00    +0.087 C 
BRANCH   9  10
ATOM     10  C   UNL     1      -3.429  -0.952   1.193  0.00  0.00    -0.060 C 
BRANCH  10  11
ATOM     11  N   UNL     1      -2.140  -0.279   1.398  0.00  0.00    +0.381 N 
ATOM     12  C   UNL     1      -2.349   1.174   1.454  0.00  0.00    -0.096 C 
ATOM     13  H   UNL     1      -1.730  -0.593   2.265  0.00  0.00    -0.082 HD
BRANCH  11  14
ATOM     14  C   UNL     1      -1.237  -0.601   0.285  0.00  0.00    -0.072 C 
ATOM     15  C   UNL     1      -1.905  -0.225  -1.039  0.00  0.00    -0.013 C 
BRANCH  14  17
ATOM     16  C   UNL     1      -0.177  -2.459   1.576  0.00  0.00    +0.002 C 
ATOM     17  C   UNL     1      -0.931  -2.100   0.294  0.00  0.00    -0.019 C 
ENDBRANCH  14  17
ENDBRANCH  11  14
ENDBRANCH  10  11
ENDBRANCH   9  10
ENDBRANCH   3   9
ENDBRANCH   2   6
ENDBRANCH   1   2
BRANCH   1  18
ATOM     18  C   UNL     1     -11.126  -2.515   4.591  0.00  0.00    +0.060 C 
BRANCH  18  19
ATOM     19  C   UNL     1     -12.339  -3.286   4.140  0.00  0.00    +0.083 A 
ATOM     20  C   UNL     1     -13.418  -2.767   3.386  0.00  0.00    +0.114 A 
ATOM     21  C   UNL     1     -14.317  -3.811   3.190  0.00  0.00    +0.138 A 
ATOM     22  N   UNL     1     -13.799  -4.902   3.799  0.00  0.00    -0.217 N 
ATOM     23  N   UNL     1     -12.574  -4.547   4.373  0.00  0.00    -0.168 NA
BRANCH  22  24
ATOM     24  C   UNL     1     -14.388  -6.173   3.843  0.00  0.00    +0.067 A 
ATOM     25  C   UNL     1     -15.768  -6.298   3.918  0.00  0.00    +0.028 A 
ATOM     26  C   UNL     1     -16.346  -7.552   3.960  0.00  0.00    +0.002 A 
ATOM     27  C   UNL     1     -15.550  -8.682   3.929  0.00  0.00    +0.000 A 
ATOM     28  C   UNL     1     -14.174  -8.561   3.855  0.00  0.00    +0.002 A 
ATOM     29  C   UNL     1     -13.591  -7.310   3.806  0.00  0.00    +0.028 A 
ENDBRANCH  22  24
BRANCH  21  30
ATOM     30  N   UNL     1     -15.514  -3.745   2.502  0.00  0.00    -0.342 N 
ATOM     31  H   UNL     1     -15.797  -2.910   2.099  0.00  0.00    +0.144 HD
ATOM     32  H   UNL     1     -16.072  -4.535   2.423  0.00  0.00    +0.144 HD
ENDBRANCH  21  30
BRANCH  20  33
ATOM     33  C   UNL     1     -13.557  -1.422   2.914  0.00  0.00    +0.104 C 
ATOM     34  N   UNL     1     -13.668  -0.356   2.539  0.00  0.00    -0.191 NA
ENDBRANCH  20  33
ENDBRANCH  18  19
ENDBRANCH   1  18
TORSDOF 12
