REMARK  Name = ZINC59170604
REMARK  6 active torsions:
REMARK  status: ('A' for Active; 'I' for Inactive)
REMARK    1  A    between atoms: C_1  and  C_2
REMARK    2  A    between atoms: C_5  and  S_8
REMARK    3  A    between atoms: S_8  and  N_11
REMARK    4  A    between atoms: N_11  and  N_12
REMARK    5  A    between atoms: C_14  and  C_23
REMARK    6  A    between atoms: N_25  and  C_26
REMARK                            x       y       z     vdW  Elec       q    Type
REMARK                         _______ _______ _______ _____ _____    ______ ____
ROOT
ATOM      1  N   UNL     1       3.301  -3.611  -0.172  0.00  0.00    -0.260 N 
ATOM      2  C   UNL     1       4.392  -4.286   0.053  0.00  0.00    +0.225 A 
ATOM      3  C   UNL     1       5.050  -4.253   1.380  0.00  0.00    +0.099 A 
ATOM      4  C   UNL     1       5.808  -5.343   1.734  0.00  0.00    +0.030 A 
ATOM      5  C   UNL     1       5.901  -6.447   0.771  0.00  0.00    +0.018 A 
ATOM      6  C   UNL     1       6.421  -7.688   1.155  0.00  0.00    +0.011 A 
ATOM      7  C   UNL     1       6.496  -8.710   0.234  0.00  0.00    +0.001 A 
ATOM      8  C   UNL     1       6.060  -8.514  -1.068  0.00  0.00    +0.004 A 
ATOM      9  C   UNL     1       5.546  -7.293  -1.461  0.00  0.00    +0.047 A 
ATOM     10  C   UNL     1       5.463  -6.252  -0.551  0.00  0.00    +0.137 A 
ATOM     11  O   UNL     1       4.963  -5.050  -0.923  0.00  0.00    -0.437 OA
ATOM     12  H   UNL     1       2.862  -3.141   0.554  0.00  0.00    +0.189 HD
ENDROOT
BRANCH   3  13
ATOM     13  C   UNL     1       4.899  -3.099   2.283  0.00  0.00    +0.253 C 
ATOM     14  O   UNL     1       4.160  -2.182   1.979  0.00  0.00    -0.270 OA
ATOM     15  N   UNL     1       5.581  -3.059   3.445  0.00  0.00    -0.281 N 
ATOM     16  H   UNL     1       6.239  -3.742   3.645  0.00  0.00    +0.155 HD
BRANCH  15  17
ATOM     17  C   UNL     1       5.338  -2.031   4.362  0.00  0.00    +0.035 A 
ATOM     18  C   UNL     1       4.065  -1.487   4.477  0.00  0.00    +0.025 A 
ATOM     19  C   UNL     1       3.828  -0.473   5.384  0.00  0.00    +0.023 A 
ATOM     20  C   UNL     1       4.857   0.003   6.177  0.00  0.00    +0.059 A 
ATOM     21  C   UNL     1       6.127  -0.537   6.065  0.00  0.00    +0.061 A 
ATOM     22  C   UNL     1       6.368  -1.557   5.164  0.00  0.00    +0.044 A 
ATOM     23 CL   UNL     1       7.416   0.063   7.061  0.00  0.00    -0.082 Cl
ATOM     24 CL   UNL     1       4.555   1.279   7.315  0.00  0.00    -0.082 Cl
ENDBRANCH  15  17
ENDBRANCH   3  13
BRANCH   1  25
ATOM     25  N   UNL     1       2.760  -3.566  -1.464  0.00  0.00    -0.157 N 
ATOM     26  H   UNL     1       3.156  -4.095  -2.174  0.00  0.00    +0.194 HD
BRANCH  25  27
ATOM     27  S   UNL     1       1.445  -2.609  -1.778  0.00  0.00    +0.085 S 
ATOM     28  O   UNL     1       0.403  -3.057  -0.922  0.00  0.00    -0.149 OA
ATOM     29  O   UNL     1       1.304  -2.564  -3.191  0.00  0.00    -0.149 OA
BRANCH  27  34
ATOM     30  C   UNL     1       2.844   2.987  -0.007  0.00  0.00    +0.044 C 
ATOM     31  C   UNL     1       2.495   1.589  -0.449  0.00  0.00    -0.050 A 
ATOM     32  C   UNL     1       2.864   1.150  -1.707  0.00  0.00    +0.005 A 
ATOM     33  C   UNL     1       2.544  -0.132  -2.112  0.00  0.00    +0.029 A 
ATOM     34  C   UNL     1       1.855  -0.975  -1.260  0.00  0.00    +0.110 A 
ATOM     35  C   UNL     1       1.486  -0.536  -0.003  0.00  0.00    +0.029 A 
ATOM     36  C   UNL     1       1.810   0.745   0.405  0.00  0.00    +0.005 A 
ENDBRANCH  27  34
ENDBRANCH  25  27
ENDBRANCH   1  25
TORSDOF 5
