REMARK  Name = ZINC36539663
REMARK  13 active torsions:
REMARK  status: ('A' for Active; 'I' for Inactive)
REMARK    1  A    between atoms: C_1  and  C_2
REMARK    2  A    between atoms: C_5  and  S_8
REMARK    3  A    between atoms: S_8  and  C_11
REMARK    4  A    between atoms: C_11  and  N_12
REMARK    5  A    between atoms: C_13  and  C_15
REMARK    6  A    between atoms: C_15  and  C_17
REMARK    7  A    between atoms: C_15  and  N_26
REMARK    8  A    between atoms: C_18  and  O_25
REMARK    9  A    between atoms: C_20  and  O_24
REMARK   10  A    between atoms: C_22  and  O_23
REMARK   11  A    between atoms: N_26  and  C_27
REMARK   12  A    between atoms: C_28  and  C_30
REMARK   13  A    between atoms: C_30  and  C_31
REMARK                            x       y       z     vdW  Elec       q    Type
REMARK                         _______ _______ _______ _____ _____    ______ ____
ROOT
ATOM      1  C   UNL     1       3.640  -5.251   3.157  0.00  0.00    +0.199 C 
ENDROOT
BRANCH   1   2
ATOM      2  C   UNL     1       2.835  -4.208   3.888  0.00  0.00    +0.065 A 
ATOM      3  C   UNL     1       3.351  -3.603   5.024  0.00  0.00    +0.129 A 
ATOM      4  C   UNL     1       2.610  -2.643   5.696  0.00  0.00    +0.091 A 
ATOM      5  C   UNL     1       1.353  -2.288   5.232  0.00  0.00    +0.124 A 
ATOM      6  C   UNL     1       0.837  -2.892   4.095  0.00  0.00    +0.091 A 
ATOM      7  C   UNL     1       1.580  -3.849   3.421  0.00  0.00    +0.129 A 
BRANCH   7   8
ATOM      8  O   UNL     1       1.076  -4.437   2.304  0.00  0.00    -0.506 OA
ATOM      9  H   UNL     1       0.491  -5.186   2.484  0.00  0.00    +0.292 HD
ENDBRANCH   7   8
BRANCH   5  10
ATOM     10  O   UNL     1       0.626  -1.347   5.891  0.00  0.00    -0.507 OA
ATOM     11  H   UNL     1       0.779  -0.444   5.582  0.00  0.00    +0.292 HD
ENDBRANCH   5  10
BRANCH   3  12
ATOM     12  O   UNL     1       4.584  -3.952   5.479  0.00  0.00    -0.506 OA
ATOM     13  H   UNL     1       5.295  -3.374   5.170  0.00  0.00    +0.292 HD
ENDBRANCH   3  12
ENDBRANCH   1   2
BRANCH   1  15
ATOM     14  N   UNL     1       3.956  -4.311   0.891  0.00  0.00    -0.294 N 
ATOM     15  C   UNL     1       3.320  -5.194   1.686  0.00  0.00    +0.240 C 
ATOM     16  O   UNL     1       2.489  -5.943   1.217  0.00  0.00    -0.273 OA
ATOM     17  H   UNL     1       4.584  -3.679   1.274  0.00  0.00    +0.150 HD
BRANCH  14  18
ATOM     18  C   UNL     1       3.698  -4.306  -0.551  0.00  0.00    +0.278 C 
BRANCH  18  19
ATOM     19  S   UNL     1       2.455  -3.043  -0.939  0.00  0.00    +0.013 S 
ATOM     20  O   UNL     1       1.387  -3.105  -0.005  0.00  0.00    -0.168 OA
ATOM     21  O   UNL     1       2.196  -3.024  -2.336  0.00  0.00    -0.168 OA
BRANCH  19  26
ATOM     22  C   UNL     1       5.183   2.219   0.191  0.00  0.00    +0.044 C 
ATOM     23  C   UNL     1       4.502   0.905  -0.091  0.00  0.00    -0.050 A 
ATOM     24  C   UNL     1       4.663   0.293  -1.320  0.00  0.00    +0.005 A 
ATOM     25  C   UNL     1       4.038  -0.913  -1.579  0.00  0.00    +0.027 A 
ATOM     26  C   UNL     1       3.253  -1.507  -0.609  0.00  0.00    +0.090 A 
ATOM     27  C   UNL     1       3.093  -0.895   0.621  0.00  0.00    +0.027 A 
ATOM     28  C   UNL     1       3.721   0.308   0.881  0.00  0.00    +0.005 A 
ENDBRANCH  19  26
ENDBRANCH  18  19
ENDBRANCH  14  18
ENDBRANCH   1  15
BRANCH   1  29
ATOM     29  N   UNL     1       3.307  -6.579   3.679  0.00  0.00    -0.289 N 
ATOM     30  C   UNL     1       1.927  -7.067   3.613  0.00  0.00    +0.133 C 
ATOM     31  C   UNL     1       4.270  -7.352   4.219  0.00  0.00    +0.221 C 
ATOM     32  O   UNL     1       5.412  -6.949   4.273  0.00  0.00    -0.275 OA
BRANCH  31  33
ATOM     33  C   UNL     1       3.927  -8.718   4.755  0.00  0.00    +0.131 C 
BRANCH  33  34
ATOM     34  C   UNL     1       5.171  -9.371   5.300  0.00  0.00    -0.039 A 
ATOM     35  C   UNL     1       5.965 -10.143   4.473  0.00  0.00    +0.004 A 
ATOM     36  C   UNL     1       7.107 -10.742   4.972  0.00  0.00    +0.000 A 
ATOM     37  C   UNL     1       7.455 -10.568   6.298  0.00  0.00    +0.000 A 
ATOM     38  C   UNL     1       6.661  -9.795   7.125  0.00  0.00    +0.000 A 
ATOM     39  C   UNL     1       5.522  -9.193   6.625  0.00  0.00    +0.004 A 
ENDBRANCH  33  34
ENDBRANCH  31  33
ENDBRANCH   1  29
TORSDOF 11
