REMARK  Name = ZINC13687637
REMARK  10 active torsions:
REMARK  status: ('A' for Active; 'I' for Inactive)
REMARK    1  A    between atoms: C_1  and  C_2
REMARK    2  A    between atoms: C_2  and  C_3
REMARK    3  A    between atoms: C_2  and  C_4
REMARK    4  A    between atoms: C_2  and  N_66
REMARK    5  A    between atoms: N_6  and  C_7
REMARK    6  A    between atoms: C_7  and  C_9
REMARK    7  A    between atoms: C_7  and  C_18
REMARK    8  A    between atoms: C_9  and  O_10
REMARK    9  A    between atoms: O_10  and  C_11
REMARK   10  A    between atoms: C_11  and  C_12
REMARK                            x       y       z     vdW  Elec       q    Type
REMARK                         _______ _______ _______ _____ _____    ______ ____
ROOT
ATOM      1  C   UNL     1       8.386   3.055  -0.725  0.00  0.00    +0.185 C 
ENDROOT
BRANCH   1   2
ATOM      2  C   UNL     1       7.440   3.340   0.413  0.00  0.00    +0.238 C 
ATOM      3  O   UNL     1       7.873   3.509   1.533  0.00  0.00    -0.273 OA
ATOM      4  N   UNL     1       6.113   3.405   0.186  0.00  0.00    -0.300 N 
ATOM      5  C   UNL     1       5.179   3.682   1.287  0.00  0.00    +0.109 C 
ATOM      6  C   UNL     1       4.124   2.570   1.326  0.00  0.00    +0.034 C 
ATOM      7  C   UNL     1       3.481   2.431  -0.047  0.00  0.00    +0.036 C 
ATOM      8  C   UNL     1       4.516   2.093  -1.111  0.00  0.00    +0.034 C 
ATOM      9  C   UNL     1       5.574   3.202  -1.165  0.00  0.00    +0.109 C 
ATOM     10  C   UNL     1       2.724   3.720  -0.420  0.00  0.00    +0.240 C 
ATOM     11  O   UNL     1       1.385   3.439   0.026  0.00  0.00    -0.491 OA
ATOM     12  C   UNL     1       1.176   2.094   0.002  0.00  0.00    +0.124 A 
ATOM     13  C   UNL     1       2.380   1.397  -0.021  0.00  0.00    +0.004 A 
ATOM     14  C   UNL     1       2.394   0.020  -0.025  0.00  0.00    +0.008 A 
ATOM     15  C   UNL     1       1.205  -0.686  -0.014  0.00  0.00    +0.001 A 
ATOM     16  C   UNL     1       0.002  -0.004   0.002  0.00  0.00    +0.004 A 
ATOM     17  C   UNL     1      -0.017   1.375   0.010  0.00  0.00    +0.046 A 
ENDBRANCH   1   2
BRANCH   1  20
ATOM     18  C   UNL     1      10.380   3.342   0.645  0.00  0.00    +0.202 C 
ATOM     19  O   UNL     1       9.973   4.442   0.955  0.00  0.00    -0.277 OA
ATOM     20  N   UNL     1       9.660   2.568  -0.191  0.00  0.00    -0.303 N 
ATOM     21  H   UNL     1       9.985   1.689  -0.440  0.00  0.00    +0.149 HD
BRANCH  18  23
ATOM     22  C   UNL     1      12.809   3.136   0.193  0.00  0.00    -0.001 C 
ATOM     23  C   UNL     1      11.691   2.841   1.194  0.00  0.00    +0.001 C 
ATOM     24  C   UNL     1      11.992   3.546   2.518  0.00  0.00    -0.001 C 
BRANCH  23  27
ATOM     25  H   UNL     1      12.492   1.021   1.727  0.00  0.00    -0.089 HD
ATOM     26  H   UNL     1      10.873   1.171   2.078  0.00  0.00    -0.089 HD
ATOM     27  N   UNL     1      11.600   1.384   1.396  0.00  0.00    +0.387 N 
ATOM     28  H   UNL     1      11.364   0.934   0.504  0.00  0.00    -0.089 HD
ENDBRANCH  23  27
ENDBRANCH  18  23
ENDBRANCH   1  20
BRANCH   1  29
ATOM     29  C   UNL     1       8.624   4.339  -1.523  0.00  0.00    +0.192 C 
BRANCH  29  30
ATOM     30  O   UNL     1       9.427   4.046  -2.668  0.00  0.00    -0.373 OA
BRANCH  30  31
ATOM     31  C   UNL     1       9.710   5.183  -3.486  0.00  0.00    +0.195 C 
BRANCH  31  32
ATOM     32  C   UNL     1      10.557   4.761  -4.658  0.00  0.00    -0.022 A 
ATOM     33  C   UNL     1      11.936   4.785  -4.559  0.00  0.00    +0.006 A 
ATOM     34  C   UNL     1      12.713   4.393  -5.632  0.00  0.00    +0.000 A 
ATOM     35  C   UNL     1      12.112   3.986  -6.809  0.00  0.00    +0.000 A 
ATOM     36  C   UNL     1      10.734   3.967  -6.910  0.00  0.00    +0.000 A 
ATOM     37  C   UNL     1       9.956   4.354  -5.835  0.00  0.00    +0.006 A 
ENDBRANCH  31  32
ENDBRANCH  30  31
ENDBRANCH  29  30
ENDBRANCH   1  29
TORSDOF 8
