REMARK  Name = ZINC56072599
REMARK  8 active torsions:
REMARK  status: ('A' for Active; 'I' for Inactive)
REMARK    1  A    between atoms: C_1  and  C_2
REMARK    2  A    between atoms: C_8  and  C_26
REMARK    3  A    between atoms: C_8  and  C_27
REMARK    4  A    between atoms: C_10  and  N_12
REMARK    5  A    between atoms: N_12  and  S_13
REMARK    6  A    between atoms: S_13  and  C_16
REMARK    7  A    between atoms: C_19  and  S_22
REMARK    8  A    between atoms: S_22  and  N_25
REMARK                            x       y       z     vdW  Elec       q    Type
REMARK                         _______ _______ _______ _____ _____    ______ ____
ROOT
ATOM      1  S   UNL     1      -4.001  -2.840   0.448  0.00  0.00    +0.059 S 
ATOM      2  O   UNL     1      -4.842  -2.865   1.594  0.00  0.00    -0.153 OA
ATOM      3  O   UNL     1      -3.819  -1.671  -0.338  0.00  0.00    -0.153 OA
ENDROOT
BRANCH   1   4
ATOM      4  C   UNL     1      -4.596  -4.091  -0.640  0.00  0.00    +0.105 A 
ATOM      5  C   UNL     1      -4.333  -4.011  -1.995  0.00  0.00    +0.030 A 
ATOM      6  C   UNL     1      -4.800  -4.992  -2.849  0.00  0.00    +0.030 A 
ATOM      7  C   UNL     1      -5.529  -6.055  -2.349  0.00  0.00    +0.105 A 
ATOM      8  C   UNL     1      -5.791  -6.136  -0.994  0.00  0.00    +0.030 A 
ATOM      9  C   UNL     1      -5.321  -5.156  -0.139  0.00  0.00    +0.030 A 
BRANCH   7  10
ATOM     10  S   UNL     1      -6.125  -7.305  -3.438  0.00  0.00    +0.056 S 
ATOM     11  O   UNL     1      -7.243  -7.903  -2.796  0.00  0.00    -0.153 OA
ATOM     12  O   UNL     1      -6.213  -6.713  -4.727  0.00  0.00    -0.153 OA
BRANCH  10  13
ATOM     13  N   UNL     1      -4.954  -8.472  -3.531  0.00  0.00    -0.204 NA
ATOM     14  H   UNL     1      -5.201  -9.396  -3.691  0.00  0.00    +0.144 HD
ATOM     15  H   UNL     1      -4.020  -8.231  -3.426  0.00  0.00    +0.144 HD
ENDBRANCH  10  13
ENDBRANCH   7  10
ENDBRANCH   1   4
BRANCH   1  16
ATOM     16  N   UNL     1      -2.496  -3.308   0.956  0.00  0.00    -0.182 NA
ATOM     17  H   UNL     1      -2.342  -3.515   1.891  0.00  0.00    +0.149 HD
BRANCH  16  27
ATOM     18  C   UNL     1      -0.018   1.503   0.010  0.00  0.00    +0.086 C 
ATOM     19  C   UNL     1       0.002  -0.004   0.002  0.00  0.00    +0.103 A 
ATOM     20  C   UNL     1      -1.081  -0.806   0.003  0.00  0.00    +0.050 A 
ATOM     21  C   UNL     1      -0.602  -2.129  -0.007  0.00  0.00    +0.012 A 
ATOM     22  C   UNL     1       0.745  -2.064  -0.014  0.00  0.00    +0.110 A 
ATOM     23  O   UNL     1       1.104  -0.775  -0.013  0.00  0.00    -0.464 OA
ATOM     24  C   UNL     1       1.646  -3.276  -0.028  0.00  0.00    +0.081 C 
ATOM     25  C   UNL     1       0.815  -4.493  -0.450  0.00  0.00    -0.026 C 
ATOM     26  C   UNL     1      -0.462  -4.558   0.393  0.00  0.00    +0.032 C 
ATOM     27  C   UNL     1      -1.397  -3.409  -0.008  0.00  0.00    +0.110 C 
ATOM     28  C   UNL     1       0.444  -4.369  -1.929  0.00  0.00    +0.011 C 
ATOM     29  C   UNL     1       1.633  -5.768  -0.235  0.00  0.00    +0.011 C 
ENDBRANCH  16  27
ENDBRANCH   1  16
TORSDOF 5
