REMARK  Name = ZINC39660435
REMARK  9 active torsions:
REMARK  status: ('A' for Active; 'I' for Inactive)
REMARK    1  A    between atoms: C_1  and  C_2
REMARK    2  A    between atoms: C_2  and  C_3
REMARK    3  A    between atoms: C_3  and  C_4
REMARK    4  A    between atoms: C_4  and  C_5
REMARK    5  A    between atoms: C_5  and  C_6
REMARK    6  A    between atoms: C_6  and  N_7
REMARK    7  A    between atoms: C_8  and  C_10
REMARK    8  A    between atoms: C_21  and  C_23
REMARK    9  A    between atoms: C_26  and  C_28
REMARK                            x       y       z     vdW  Elec       q    Type
REMARK                         _______ _______ _______ _____ _____    ______ ____
ROOT
ATOM      1  C   UNL     1       3.006  -6.331  -5.199  0.00  0.00    +0.100 C 
ATOM      2  C   UNL     1       2.171  -6.002  -6.457  0.00  0.00    +0.121 C 
ATOM      3  N   UNL     1       2.359  -7.172  -7.348  0.00  0.00    -0.294 N 
ATOM      4  C   UNL     1       2.340  -8.338  -6.434  0.00  0.00    +0.115 C 
ATOM      5  C   UNL     1       3.115  -7.865  -5.187  0.00  0.00    -0.004 C 
ATOM      6  C   UNL     1       4.576  -8.292  -5.280  0.00  0.00    -0.010 C 
ATOM      7  C   UNL     1       4.662  -9.819  -5.209  0.00  0.00    -0.082 C 
ATOM      8  N   UNL     1       4.074 -10.286  -3.947  0.00  0.00    +0.379 N 
ATOM      9  C   UNL     1       2.646  -9.952  -3.907  0.00  0.00    -0.082 C 
ATOM     10  C   UNL     1       2.474  -8.431  -3.923  0.00  0.00    -0.010 C 
ATOM     11  C   UNL     1       2.513  -7.174  -8.687  0.00  0.00    +0.282 C 
ATOM     12  O   UNL     1       2.659  -8.226  -9.281  0.00  0.00    -0.267 OA
ATOM     13  H   UNL     1       4.187 -11.286  -3.875  0.00  0.00    -0.086 HD
ATOM     14  H   UNL     1       4.545  -9.841  -3.174  0.00  0.00    -0.086 HD
ENDROOT
BRANCH  11  15
ATOM     15  C   UNL     1       2.506  -5.909  -9.427  0.00  0.00    +0.190 A 
ATOM     16  C   UNL     1       2.647  -5.769 -10.790  0.00  0.00    +0.055 A 
ATOM     17  C   UNL     1       2.580  -4.399 -11.064  0.00  0.00    +0.050 A 
ATOM     18  C   UNL     1       2.403  -3.760  -9.871  0.00  0.00    +0.136 A 
ATOM     19  O   UNL     1       2.354  -4.679  -8.893  0.00  0.00    -0.450 OA
BRANCH  18  20
ATOM     20  C   UNL     1       2.280  -2.299  -9.687  0.00  0.00    +0.017 A 
ATOM     21  C   UNL     1       2.336  -1.446 -10.791  0.00  0.00    +0.011 A 
ATOM     22  C   UNL     1       2.220  -0.083 -10.613  0.00  0.00    +0.001 A 
ATOM     23  C   UNL     1       2.048   0.439  -9.343  0.00  0.00    +0.000 A 
ATOM     24  C   UNL     1       1.992  -0.401  -8.244  0.00  0.00    +0.001 A 
ATOM     25  C   UNL     1       2.101  -1.766  -8.409  0.00  0.00    +0.011 A 
ENDBRANCH  18  20
ENDBRANCH  11  15
BRANCH   1  27
ATOM     26  N   UNL     1       3.015  -5.493  -2.872  0.00  0.00    -0.315 N 
ATOM     27  C   UNL     1       2.301  -5.845  -3.959  0.00  0.00    +0.218 C 
ATOM     28  O   UNL     1       1.090  -5.771  -3.940  0.00  0.00    -0.275 OA
ATOM     29  H   UNL     1       3.983  -5.552  -2.888  0.00  0.00    +0.149 HD
BRANCH  26  30
ATOM     30  C   UNL     1       2.329  -5.020  -1.667  0.00  0.00    +0.104 C 
BRANCH  30  31
ATOM     31  C   UNL     1       3.363  -4.689  -0.589  0.00  0.00    +0.019 C 
BRANCH  31  32
ATOM     32  C   UNL     1       2.647  -4.196   0.670  0.00  0.00    +0.002 C 
BRANCH  32  33
ATOM     33  C   UNL     1       3.681  -3.864   1.748  0.00  0.00    -0.000 C 
BRANCH  33  35
ATOM     34  C   UNL     1       3.998  -3.039   4.085  0.00  0.00    +0.004 C 
ATOM     35  C   UNL     1       2.965  -3.371   3.007  0.00  0.00    -0.003 C 
ENDBRANCH  33  35
ENDBRANCH  32  33
ENDBRANCH  31  32
ENDBRANCH  30  31
ENDBRANCH  26  30
ENDBRANCH   1  27
TORSDOF 8
