REMARK  Name = ZINC05656098
REMARK  9 active torsions:
REMARK  status: ('A' for Active; 'I' for Inactive)
REMARK    1  A    between atoms: C_1  and  C_2
REMARK    2  A    between atoms: C_2  and  C_4
REMARK    3  A    between atoms: C_2  and  O_17
REMARK    4  A    between atoms: N_6  and  C_7
REMARK    5  A    between atoms: C_10  and  S_13
REMARK    6  A    between atoms: S_13  and  N_16
REMARK    7  A    between atoms: O_17  and  C_18
REMARK    8  A    between atoms: C_18  and  C_20
REMARK    9  A    between atoms: C_24  and  N_26
REMARK                            x       y       z     vdW  Elec       q    Type
REMARK                         _______ _______ _______ _____ _____    ______ ____
ROOT
ATOM      1  C   UNL     1       4.791   5.517   0.697  0.00  0.00    +0.258 C 
ATOM      2  O   UNL     1       3.723   5.855   1.162  0.00  0.00    -0.271 OA
ATOM      3  N   UNL     1       5.864   6.324   0.816  0.00  0.00    -0.282 N 
ATOM      4  H   UNL     1       6.732   6.026   0.504  0.00  0.00    +0.155 HD
ENDROOT
BRANCH   3   5
ATOM      5  C   UNL     1       5.724   7.592   1.391  0.00  0.00    +0.034 A 
ATOM      6  C   UNL     1       6.488   8.655   0.924  0.00  0.00    +0.025 A 
ATOM      7  C   UNL     1       6.344   9.907   1.490  0.00  0.00    +0.030 A 
ATOM      8  C   UNL     1       5.449  10.100   2.527  0.00  0.00    +0.105 A 
ATOM      9  C   UNL     1       4.692   9.043   2.997  0.00  0.00    +0.030 A 
ATOM     10  C   UNL     1       4.827   7.790   2.432  0.00  0.00    +0.025 A 
BRANCH   8  11
ATOM     11  S   UNL     1       5.274  11.697   3.250  0.00  0.00    +0.056 S 
ATOM     12  O   UNL     1       5.696  12.636   2.270  0.00  0.00    -0.153 OA
ATOM     13  O   UNL     1       3.980  11.738   3.835  0.00  0.00    -0.153 OA
BRANCH  11  14
ATOM     14  N   UNL     1       6.360  11.793   4.496  0.00  0.00    -0.204 NA
ATOM     15  H   UNL     1       6.937  11.039   4.696  0.00  0.00    +0.144 HD
ATOM     16  H   UNL     1       6.420  12.603   5.026  0.00  0.00    +0.144 HD
ENDBRANCH  11  14
ENDBRANCH   8  11
ENDBRANCH   3   5
BRANCH   1  18
ATOM     17  C   UNL     1       5.363   4.434  -1.459  0.00  0.00    +0.062 C 
ATOM     18  C   UNL     1       4.918   4.195  -0.015  0.00  0.00    +0.259 C 
BRANCH  18  19
ATOM     19  O   UNL     1       3.634   3.517  -0.011  0.00  0.00    -0.449 OA
BRANCH  19  20
ATOM     20  C   UNL     1       3.654   2.170  -0.012  0.00  0.00    +0.340 C 
ATOM     21  O   UNL     1       4.715   1.578  -0.016  0.00  0.00    -0.245 OA
BRANCH  20  22
ATOM     22  C   UNL     1       2.386   1.413  -0.007  0.00  0.00    +0.061 A 
ATOM     23  C   UNL     1       1.165   2.091  -0.001  0.00  0.00    +0.016 A 
ATOM     24  C   UNL     1      -0.018   1.383   0.003  0.00  0.00    +0.022 A 
ATOM     25  C   UNL     1      -0.001  -0.001   0.003  0.00  0.00    +0.062 A 
ATOM     26  C   UNL     1       1.210  -0.686  -0.003  0.00  0.00    +0.044 A 
ATOM     27  C   UNL     1       2.404   0.017  -0.008  0.00  0.00    +0.039 A 
ATOM     28 CL   UNL     1      -1.495  -0.885   0.009  0.00  0.00    -0.082 Cl
BRANCH  26  29
ATOM     29  N   UNL     1       1.222  -2.084  -0.004  0.00  0.00    -0.357 N 
ATOM     30  H   UNL     1       0.386  -2.576  -0.000  0.00  0.00    +0.142 HD
ATOM     31  H   UNL     1       2.066  -2.562  -0.008  0.00  0.00    +0.142 HD
ENDBRANCH  26  29
ENDBRANCH  20  22
ENDBRANCH  19  20
ENDBRANCH  18  19
ENDBRANCH   1  18
TORSDOF 8
