REMARK  Name = ZINC09319388
REMARK  5 active torsions:
REMARK  status: ('A' for Active; 'I' for Inactive)
REMARK    1  A    between atoms: C_1  and  O_2
REMARK    2  A    between atoms: O_2  and  C_3
REMARK    3  A    between atoms: C_8  and  N_9
REMARK    4  A    between atoms: C_10  and  C_12
REMARK    5  A    between atoms: N_30  and  C_33
REMARK                            x       y       z     vdW  Elec       q    Type
REMARK                         _______ _______ _______ _____ _____    ______ ____
ROOT
ATOM      1  C   UNL     1       1.509  -2.129  -0.370  0.00  0.00    +0.156 C 
ATOM      2  C   UNL     1       3.032  -2.217  -0.469  0.00  0.00    +0.117 C 
ATOM      3  C   UNL     1       3.356  -0.685  -0.711  0.00  0.00    +0.113 C 
ATOM      4  C   UNL     1       2.494  -0.040   0.295  0.00  0.00    +0.100 C 
ATOM      5  C   UNL     1       0.030   0.003  -0.001  0.00  0.00    +0.054 C 
ATOM      6  C   UNL     1       0.017   1.335   0.004  0.00  0.00    +0.022 C 
ATOM      7  C   UNL     1       1.266   2.115  -0.015  0.00  0.00    -0.019 A 
ATOM      8  C   UNL     1       2.489   1.462   0.144  0.00  0.00    -0.021 A 
ATOM      9  C   UNL     1       3.660   2.183   0.134  0.00  0.00    +0.006 A 
ATOM     10  C   UNL     1       3.621   3.561  -0.009  0.00  0.00    +0.000 A 
ATOM     11  C   UNL     1       2.409   4.215  -0.138  0.00  0.00    +0.001 A 
ATOM     12  C   UNL     1       1.227   3.502  -0.126  0.00  0.00    +0.008 A 
ATOM     13  C   UNL     1       4.734  -0.772  -1.129  0.00  0.00    +0.228 C 
ATOM     14  O   UNL     1       5.637  -0.005  -0.873  0.00  0.00    -0.275 OA
ATOM     15  N   UNL     1       4.793  -1.920  -1.883  0.00  0.00    -0.238 N 
ATOM     16  C   UNL     1       3.663  -2.687  -1.758  0.00  0.00    +0.228 C 
ATOM     17  O   UNL     1       3.261  -3.546  -2.513  0.00  0.00    -0.275 OA
ATOM     18  N   UNL     1       1.290  -0.800   0.330  0.00  0.00    -0.383 NA
ATOM     19  H   UNL     1       1.167  -1.050   1.318  0.00  0.00    +0.127 HD
ENDROOT
BRANCH  15  20
ATOM     20  C   UNL     1       5.936  -2.284  -2.725  0.00  0.00    +0.084 C 
ATOM     21  C   UNL     1       5.478  -2.409  -4.180  0.00  0.00    +0.023 C 
ATOM     22  C   UNL     1       6.671  -2.789  -5.059  0.00  0.00    +0.002 C 
ATOM     23  C   UNL     1       7.246  -4.127  -4.588  0.00  0.00    +0.000 C 
ATOM     24  C   UNL     1       7.704  -4.001  -3.134  0.00  0.00    +0.002 C 
ATOM     25  C   UNL     1       6.511  -3.621  -2.255  0.00  0.00    +0.023 C 
ENDBRANCH  15  20
BRANCH   1  27
ATOM     26  N   UNL     1       0.718  -3.787  -2.027  0.00  0.00    -0.281 N 
ATOM     27  C   UNL     1       0.883  -2.491  -1.692  0.00  0.00    +0.237 C 
ATOM     28  O   UNL     1       0.529  -1.618  -2.455  0.00  0.00    -0.273 OA
ATOM     29  H   UNL     1       1.060  -4.485  -1.446  0.00  0.00    +0.155 HD
BRANCH  26  35
ATOM     30  C   UNL     1      -0.738  -5.270  -3.268  0.00  0.00    +0.141 A 
ATOM     31  C   UNL     1      -1.398  -5.596  -4.441  0.00  0.00    +0.049 A 
ATOM     32  C   UNL     1      -1.262  -4.793  -5.558  0.00  0.00    +0.024 A 
ATOM     33  C   UNL     1      -0.472  -3.659  -5.506  0.00  0.00    +0.043 A 
ATOM     34  C   UNL     1       0.185  -3.323  -4.337  0.00  0.00    +0.047 A 
ATOM     35  C   UNL     1       0.053  -4.125  -3.213  0.00  0.00    +0.077 A 
ATOM     36 CL   UNL     1      -0.306  -2.654  -6.912  0.00  0.00    -0.083 Cl
BRANCH  30  38
ATOM     37  C   UNL     1      -1.694  -7.220  -2.299  0.00  0.00    +0.277 C 
ATOM     38  O   UNL     1      -0.867  -6.062  -2.170  0.00  0.00    -0.493 OA
ENDBRANCH  30  38
ENDBRANCH  26  35
ENDBRANCH   1  27
TORSDOF 4
