REMARK  Name = ZINC43217040
REMARK  10 active torsions:
REMARK  status: ('A' for Active; 'I' for Inactive)
REMARK    1  A    between atoms: C_3  and  N_33
REMARK    2  A    between atoms: C_6  and  C_7
REMARK    3  A    between atoms: C_7  and  C_8
REMARK    4  A    between atoms: C_11  and  N_14
REMARK    5  A    between atoms: C_15  and  C_17
REMARK    6  A    between atoms: C_20  and  C_22
REMARK    7  A    between atoms: C_22  and  C_24
REMARK    8  A    between atoms: C_22  and  N_32
REMARK    9  A    between atoms: C_24  and  C_25
REMARK   10  A    between atoms: C_28  and  O_31
REMARK                            x       y       z     vdW  Elec       q    Type
REMARK                         _______ _______ _______ _____ _____    ______ ____
ROOT
ATOM      1  N   UNL     1      -2.973  -1.711  -5.326  0.00  0.00    -0.280 N 
ATOM      2  C   UNL     1      -2.501  -2.776  -6.004  0.00  0.00    +0.270 C 
ATOM      3  O   UNL     1      -1.786  -3.585  -5.444  0.00  0.00    -0.268 OA
ATOM      4  H   UNL     1      -3.603  -1.107  -5.749  0.00  0.00    +0.155 HD
ENDROOT
BRANCH   1   8
ATOM      5  C   UNL     1      -1.726  -1.013  -1.413  0.00  0.00    -0.043 A 
ATOM      6  C   UNL     1      -3.011  -0.676  -1.798  0.00  0.00    +0.006 A 
ATOM      7  C   UNL     1      -3.427  -0.906  -3.095  0.00  0.00    +0.023 A 
ATOM      8  C   UNL     1      -2.554  -1.476  -4.012  0.00  0.00    +0.034 A 
ATOM      9  C   UNL     1      -1.264  -1.813  -3.622  0.00  0.00    +0.023 A 
ATOM     10  C   UNL     1      -0.852  -1.576  -2.326  0.00  0.00    +0.006 A 
BRANCH   5  11
ATOM     11  C   UNL     1      -1.275  -0.761   0.003  0.00  0.00    +0.070 C 
BRANCH  11  17
ATOM     12  C   UNL     1      -1.487   1.699   0.411  0.00  0.00    +0.006 A 
ATOM     13  C   UNL     1      -0.944   2.965   0.503  0.00  0.00    +0.023 A 
ATOM     14  C   UNL     1       0.415   3.155   0.284  0.00  0.00    +0.025 A 
ATOM     15  C   UNL     1       1.223   2.068  -0.027  0.00  0.00    +0.023 A 
ATOM     16  C   UNL     1       0.674   0.805  -0.117  0.00  0.00    +0.006 A 
ATOM     17  C   UNL     1      -0.679   0.620   0.102  0.00  0.00    -0.043 A 
BRANCH  14  18
ATOM     18  N   UNL     1       0.967   4.434   0.376  0.00  0.00    -0.358 N 
ATOM     19  H   UNL     1       0.401   5.192   0.593  0.00  0.00    +0.142 HD
ATOM     20  H   UNL     1       1.916   4.565   0.223  0.00  0.00    +0.142 HD
ENDBRANCH  14  18
ENDBRANCH  11  17
ENDBRANCH   5  11
ENDBRANCH   1   8
BRANCH   2  21
ATOM     21  C   UNL     1      -2.850  -2.959  -7.424  0.00  0.00    +0.164 A 
ATOM     22  C   UNL     1      -2.454  -3.983  -8.228  0.00  0.00    +0.230 A 
ATOM     23  O   UNL     1      -2.994  -3.763  -9.437  0.00  0.00    -0.449 OA
ATOM     24  C   UNL     1      -3.707  -2.629  -9.378  0.00  0.00    +0.182 A 
ATOM     25  N   UNL     1      -3.634  -2.140  -8.176  0.00  0.00    -0.210 NA
BRANCH  24  26
ATOM     26  C   UNL     1      -4.476  -2.021 -10.522  0.00  0.00    +0.017 C 
BRANCH  26  27
ATOM     27  N   UNL     1      -3.650  -2.046 -11.736  0.00  0.00    +0.386 N 
ATOM     28  H   UNL     1      -2.805  -1.517 -11.580  0.00  0.00    -0.089 HD
ATOM     29  H   UNL     1      -3.412  -3.001 -11.961  0.00  0.00    -0.089 HD
ATOM     30  H   UNL     1      -4.165  -1.639 -12.502  0.00  0.00    -0.089 HD
ENDBRANCH  26  27
BRANCH  26  31
ATOM     31  C   UNL     1      -5.757  -2.823 -10.759  0.00  0.00    +0.028 C 
BRANCH  31  32
ATOM     32  C   UNL     1      -6.585  -2.145 -11.820  0.00  0.00    -0.048 A 
ATOM     33  C   UNL     1      -7.519  -1.190 -11.461  0.00  0.00    +0.007 A 
ATOM     34  C   UNL     1      -8.279  -0.568 -12.432  0.00  0.00    +0.045 A 
ATOM     35  C   UNL     1      -8.106  -0.901 -13.767  0.00  0.00    +0.117 A 
ATOM     36  C   UNL     1      -7.169  -1.859 -14.125  0.00  0.00    +0.045 A 
ATOM     37  C   UNL     1      -6.407  -2.475 -13.151  0.00  0.00    +0.007 A 
BRANCH  35  38
ATOM     38  O   UNL     1      -8.854  -0.290 -14.724  0.00  0.00    -0.507 OA
ATOM     39  H   UNL     1      -8.456   0.517 -15.078  0.00  0.00    +0.292 HD
ENDBRANCH  35  38
ENDBRANCH  31  32
ENDBRANCH  26  31
ENDBRANCH  24  26
ENDBRANCH   2  21
TORSDOF 10
