REMARK  Name = ZINC45463788
REMARK  10 active torsions:
REMARK  status: ('A' for Active; 'I' for Inactive)
REMARK    1  A    between atoms: C_1  and  C_2
REMARK    2  A    between atoms: C_2  and  C_3
REMARK    3  A    between atoms: C_2  and  C_4
REMARK    4  A    between atoms: C_4  and  N_5
REMARK    5  A    between atoms: C_8  and  N_11
REMARK    6  A    between atoms: N_14  and  N_15
REMARK    7  A    between atoms: C_16  and  C_18
REMARK    8  A    between atoms: C_18  and  O_19
REMARK    9  A    between atoms: O_19  and  C_20
REMARK   10  A    between atoms: C_23  and  C_26
REMARK                            x       y       z     vdW  Elec       q    Type
REMARK                         _______ _______ _______ _____ _____    ______ ____
ROOT
ATOM      1  N   UNL     1      -2.106  -0.237   6.102  0.00  0.00    -0.296 N 
ATOM      2  C   UNL     1      -1.938  -0.818   7.307  0.00  0.00    +0.316 C 
ATOM      3  O   UNL     1      -1.168  -1.751   7.429  0.00  0.00    -0.251 OA
ATOM      4  N   UNL     1      -2.624  -0.365   8.375  0.00  0.00    -0.218 N 
ATOM      5  H   UNL     1      -2.721   0.507   6.005  0.00  0.00    +0.151 HD
ATOM      6  H   UNL     1      -2.503  -0.784   9.242  0.00  0.00    +0.174 HD
ENDROOT
BRANCH   1  10
ATOM      7  N   UNL     1      -0.010  -0.139   2.447  0.00  0.00    +0.380 N 
ATOM      8  C   UNL     1      -1.305  -0.831   2.447  0.00  0.00    -0.077 C 
ATOM      9  C   UNL     1      -2.126  -0.386   3.659  0.00  0.00    +0.004 C 
ATOM     10  C   UNL     1      -1.361  -0.729   4.941  0.00  0.00    +0.071 C 
ATOM     11  C   UNL     1       0.016  -0.062   4.896  0.00  0.00    +0.004 C 
ATOM     12  C   UNL     1       0.758  -0.520   3.639  0.00  0.00    -0.077 C 
ATOM     13  H   UNL     1      -0.165   0.858   2.452  0.00  0.00    -0.082 HD
BRANCH   7  14
ATOM     14  C   UNL     1       0.742  -0.511   1.242  0.00  0.00    -0.076 C 
BRANCH  14  16
ATOM     15  C   UNL     1      -0.019   1.526   0.010  0.00  0.00    +0.005 C 
ATOM     16  C   UNL     1       0.002  -0.004   0.002  0.00  0.00    -0.034 C 
ATOM     17  C   UNL     1       0.718  -0.497  -1.257  0.00  0.00    +0.005 C 
ENDBRANCH  14  16
ENDBRANCH   7  14
ENDBRANCH   1  10
BRANCH   4  18
ATOM     18  N   UNL     1      -3.511   0.710   8.234  0.00  0.00    -0.230 N 
ATOM     19  C   UNL     1      -4.196   1.162   9.303  0.00  0.00    +0.267 C 
ATOM     20  O   UNL     1      -4.045   0.639  10.386  0.00  0.00    -0.271 OA
ATOM     21  H   UNL     1      -3.632   1.128   7.367  0.00  0.00    +0.173 HD
BRANCH  19  22
ATOM     22  C   UNL     1      -5.151   2.318   9.151  0.00  0.00    +0.326 C 
BRANCH  22  23
ATOM     23  O   UNL     1      -5.751   2.610  10.414  0.00  0.00    -0.483 OA
BRANCH  23  24
ATOM     24  C   UNL     1      -6.643   3.633  10.452  0.00  0.00    +0.121 A 
ATOM     25  C   UNL     1      -6.938   4.338   9.291  0.00  0.00    +0.047 A 
ATOM     26  C   UNL     1      -7.842   5.376   9.325  0.00  0.00    +0.022 A 
ATOM     27  C   UNL     1      -8.464   5.720  10.529  0.00  0.00    +0.052 A 
ATOM     28  C   UNL     1      -8.165   5.008  11.693  0.00  0.00    +0.022 A 
ATOM     29  C   UNL     1      -7.263   3.968  11.650  0.00  0.00    +0.047 A 
BRANCH  27  30
ATOM     30  C   UNL     1      -9.405   6.799  10.568  0.00  0.00    +0.099 C 
ATOM     31  N   UNL     1     -10.151   7.655  10.600  0.00  0.00    -0.191 NA
ENDBRANCH  27  30
ENDBRANCH  23  24
ENDBRANCH  22  23
ENDBRANCH  19  22
ENDBRANCH   4  18
TORSDOF 8
