REMARK  Name = ZINC33452292
REMARK  8 active torsions:
REMARK  status: ('A' for Active; 'I' for Inactive)
REMARK    1  A    between atoms: C_1  and  C_2
REMARK    2  A    between atoms: C_2  and  N_3
REMARK    3  A    between atoms: N_3  and  C_4
REMARK    4  A    between atoms: N_3  and  C_10
REMARK    5  A    between atoms: C_10  and  C_12
REMARK    6  A    between atoms: C_10  and  C_14
REMARK    7  A    between atoms: C_12  and  N_13
REMARK    8  A    between atoms: C_23  and  O_24
REMARK                            x       y       z     vdW  Elec       q    Type
REMARK                         _______ _______ _______ _____ _____    ______ ____
ROOT
ATOM      1  C   UNL     1      -0.011  -0.950  -1.231  0.00  0.00    +0.090 C 
ENDROOT
BRANCH   1   2
ATOM      2  C   UNL     1       1.323  -0.591  -1.832  0.00  0.00    +0.020 A 
ATOM      3  C   UNL     1       2.462  -0.494  -1.016  0.00  0.00    -0.010 A 
ATOM      4  C   UNL     1       2.389  -0.728   0.368  0.00  0.00    +0.009 A 
ATOM      5  C   UNL     1       3.514  -0.626   1.129  0.00  0.00    +0.001 A 
ATOM      6  C   UNL     1       4.740  -0.293   0.556  0.00  0.00    +0.001 A 
ATOM      7  C   UNL     1       4.848  -0.060  -0.781  0.00  0.00    +0.008 A 
ATOM      8  C   UNL     1       3.709  -0.155  -1.599  0.00  0.00    -0.017 A 
ATOM      9  C   UNL     1       3.784   0.079  -2.983  0.00  0.00    +0.012 A 
ATOM     10  C   UNL     1       2.663  -0.023  -3.746  0.00  0.00    +0.046 A 
ATOM     11  C   UNL     1       1.433  -0.362  -3.174  0.00  0.00    +0.122 A 
BRANCH  11  12
ATOM     12  O   UNL     1       0.331  -0.461  -3.963  0.00  0.00    -0.506 OA
ATOM     13  H   UNL     1       0.411  -0.279  -5.045  0.00  0.00    +0.292 HD
ENDBRANCH  11  12
ENDBRANCH   1   2
BRANCH   1  14
ATOM     14  N   UNL     1      -0.247  -0.131  -0.040  0.00  0.00    -0.325 N 
BRANCH  14  15
ATOM     15  C   UNL     1      -0.151   1.260  -0.119  0.00  0.00    +0.030 A 
ATOM     16  C   UNL     1       0.101   1.872  -1.340  0.00  0.00    +0.023 A 
ATOM     17  C   UNL     1       0.191   3.248  -1.415  0.00  0.00    +0.002 A 
ATOM     18  C   UNL     1       0.040   4.016  -0.275  0.00  0.00    +0.000 A 
ATOM     19  C   UNL     1      -0.207   3.410   0.943  0.00  0.00    +0.002 A 
ATOM     20  C   UNL     1      -0.302   2.035   1.024  0.00  0.00    +0.023 A 
ENDBRANCH  14  15
BRANCH  14  22
ATOM     21  C   UNL     1      -2.103  -0.791   1.409  0.00  0.00    +0.024 C 
ATOM     22  C   UNL     1      -0.584  -0.771   1.235  0.00  0.00    +0.102 C 
ENDBRANCH  14  22
ENDBRANCH   1  14
BRANCH   1  23
ATOM     23  C   UNL     1      -1.118  -0.692  -2.255  0.00  0.00    -0.059 C 
BRANCH  23  24
ATOM     24  N   UNL     1      -2.428  -0.897  -1.623  0.00  0.00    +0.380 N 
ATOM     25  H   UNL     1      -3.224  -0.711  -2.359  0.00  0.00    -0.090 HD
ATOM     26  H   UNL     1      -2.540  -0.202  -0.778  0.00  0.00    -0.090 HD
ATOM     27  H   UNL     1      -2.500  -1.932  -1.257  0.00  0.00    -0.090 HD
ENDBRANCH  23  24
ENDBRANCH   1  23
TORSDOF 7
