REMARK  Name = ZINC38785436
REMARK  11 active torsions:
REMARK  status: ('A' for Active; 'I' for Inactive)
REMARK    1  A    between atoms: C_1  and  C_2
REMARK    2  A    between atoms: C_2  and  C_4
REMARK    3  A    between atoms: C_2  and  S_16
REMARK    4  A    between atoms: N_6  and  C_7
REMARK    5  A    between atoms: C_12  and  O_13
REMARK    6  A    between atoms: O_13  and  C_14
REMARK    7  A    between atoms: S_16  and  C_17
REMARK    8  A    between atoms: C_22  and  C_27
REMARK    9  A    between atoms: C_30  and  C_33
REMARK   10  A    between atoms: C_33  and  C_34
REMARK   11  A    between atoms: C_33  and  C_35
REMARK                            x       y       z     vdW  Elec       q    Type
REMARK                         _______ _______ _______ _____ _____    ______ ____
ROOT
ATOM      1  C   UNL     1       2.524  -0.002   1.248  0.00  0.00    +0.182 C 
ATOM      2  N   UNL     1       2.803   0.694   0.160  0.00  0.00    -0.151 NA
ATOM      3  C   UNL     1       4.022   1.169  -0.096  0.00  0.00    +0.272 C 
ATOM      4  O   UNL     1       4.246   1.809  -1.111  0.00  0.00    -0.268 OA
ATOM      5  C   UNL     1       5.105   0.896   0.895  0.00  0.00    +0.075 C 
ATOM      6  C   UNL     1       6.419   1.281   0.845  0.00  0.00    -0.015 C 
ATOM      7  C   UNL     1       7.306   0.865   1.995  0.00  0.00    +0.112 C 
ATOM      8  S   UNL     1       6.132  -0.062   3.063  0.00  0.00    -0.100 S 
ATOM      9  C   UNL     1       4.675   0.112   2.065  0.00  0.00    +0.112 C 
ATOM     10  N   UNL     1       3.430  -0.284   2.182  0.00  0.00    -0.217 NA
ENDROOT
BRANCH   6  11
ATOM     11  C   UNL     1       6.943   2.063  -0.278  0.00  0.00    -0.020 A 
ATOM     12  C   UNL     1       6.977   1.511  -1.567  0.00  0.00    +0.008 A 
ATOM     13  C   UNL     1       7.471   2.254  -2.617  0.00  0.00    +0.004 A 
ATOM     14  C   UNL     1       7.932   3.542  -2.403  0.00  0.00    -0.045 A 
ATOM     15  C   UNL     1       7.902   4.096  -1.134  0.00  0.00    +0.004 A 
ATOM     16  C   UNL     1       7.407   3.370  -0.072  0.00  0.00    +0.008 A 
BRANCH  14  17
ATOM     17  C   UNL     1       8.470   4.346  -3.558  0.00  0.00    +0.013 C 
ATOM     18  C   UNL     1       7.637   5.618  -3.726  0.00  0.00    +0.012 C 
ATOM     19  C   UNL     1       9.927   4.724  -3.281  0.00  0.00    +0.012 C 
ENDBRANCH  14  17
ENDBRANCH   6  11
BRANCH   1  20
ATOM     20  S   UNL     1       0.875  -0.578   1.476  0.00  0.00    -0.076 S 
BRANCH  20  22
ATOM     21  C   UNL     1      -0.038   1.544   0.012  0.00  0.00    +0.029 C 
ATOM     22  C   UNL     1      -0.005   0.014   0.005  0.00  0.00    +0.137 C 
BRANCH  22  23
ATOM     23  C   UNL     1      -1.415  -0.519   0.014  0.00  0.00    +0.230 C 
ATOM     24  O   UNL     1      -1.941  -0.824   1.063  0.00  0.00    -0.274 OA
ATOM     25  N   UNL     1      -2.090  -0.657  -1.144  0.00  0.00    -0.282 N 
ATOM     26  H   UNL     1      -1.694  -0.354  -1.976  0.00  0.00    +0.155 HD
BRANCH  25  27
ATOM     27  C   UNL     1      -3.365  -1.240  -1.147  0.00  0.00    +0.077 A 
ATOM     28  C   UNL     1      -4.226  -1.033  -0.079  0.00  0.00    +0.047 A 
ATOM     29  C   UNL     1      -5.483  -1.609  -0.084  0.00  0.00    +0.043 A 
ATOM     30  C   UNL     1      -5.885  -2.390  -1.152  0.00  0.00    +0.024 A 
ATOM     31  C   UNL     1      -5.032  -2.600  -2.220  0.00  0.00    +0.049 A 
ATOM     32  C   UNL     1      -3.773  -2.022  -2.224  0.00  0.00    +0.141 A 
ATOM     33 CL   UNL     1      -6.559  -1.350   1.254  0.00  0.00    -0.083 Cl
BRANCH  32  34
ATOM     34  O   UNL     1      -2.935  -2.223  -3.277  0.00  0.00    -0.493 OA
ATOM     35  C   UNL     1      -3.421  -3.036  -4.347  0.00  0.00    +0.277 C 
ENDBRANCH  32  34
ENDBRANCH  25  27
ENDBRANCH  22  23
ENDBRANCH  20  22
ENDBRANCH   1  20
TORSDOF 7
