REMARK  Name = ZINC00691487
REMARK  5 active torsions:
REMARK  status: ('A' for Active; 'I' for Inactive)
REMARK    1  A    between atoms: C_4  and  C_7
REMARK    2  A    between atoms: C_12  and  C_26
REMARK    3  A    between atoms: C_14  and  C_24
REMARK    4  A    between atoms: C_15  and  N_23
REMARK    5  A    between atoms: N_16  and  N_17
REMARK                            x       y       z     vdW  Elec       q    Type
REMARK                         _______ _______ _______ _____ _____    ______ ____
ROOT
ATOM      1  C   UNL     1      -1.051   6.395   0.610  0.00  0.00    +0.032 C 
ATOM      2  C   UNL     1       0.228   5.605   0.897  0.00  0.00    +0.061 C 
ATOM      3  C   UNL     1       0.051   4.175   0.449  0.00  0.00    +0.037 C 
ATOM      4  C   UNL     1      -1.163   3.584   0.473  0.00  0.00    +0.026 C 
ATOM      5  C   UNL     1      -1.337   2.154   0.022  0.00  0.00    +0.097 C 
ATOM      6  C   UNL     1      -0.022   1.431  -0.001  0.00  0.00    +0.078 C 
ATOM      7  C   UNL     1       1.153   2.113  -0.009  0.00  0.00    +0.117 C 
ATOM      8  N   UNL     1       1.153   3.487   0.018  0.00  0.00    -0.223 N 
ATOM      9  C   UNL     1      -2.301   4.283   0.911  0.00  0.00    +0.162 C 
ATOM     10  O   UNL     1      -3.375   3.717   0.937  0.00  0.00    -0.292 OA
ATOM     11  C   UNL     1      -2.213   5.720   1.347  0.00  0.00    +0.088 C 
ENDROOT
BRANCH   5  12
ATOM     12  C   UNL     1      -1.935   2.137  -1.361  0.00  0.00    -0.033 A 
ATOM     13  C   UNL     1      -3.167   1.547  -1.575  0.00  0.00    +0.004 A 
ATOM     14  C   UNL     1      -3.715   1.531  -2.843  0.00  0.00    +0.002 A 
ATOM     15  C   UNL     1      -3.032   2.105  -3.899  0.00  0.00    +0.020 A 
ATOM     16  C   UNL     1      -1.800   2.695  -3.686  0.00  0.00    +0.041 A 
ATOM     17  C   UNL     1      -1.254   2.716  -2.415  0.00  0.00    +0.024 A 
ATOM     18 CL   UNL     1      -0.941   3.416  -5.012  0.00  0.00    -0.084 Cl
ENDBRANCH   5  12
BRANCH   1  22
ATOM     19  C   UNL     1      -0.604  10.407   2.006  0.00  0.00    +0.000 A 
ATOM     20  C   UNL     1      -0.871  10.166   0.671  0.00  0.00    +0.000 A 
ATOM     21  C   UNL     1      -1.016   8.867   0.220  0.00  0.00    +0.004 A 
ATOM     22  C   UNL     1      -0.893   7.811   1.103  0.00  0.00    -0.044 A 
ATOM     23  C   UNL     1      -0.631   8.053   2.438  0.00  0.00    +0.004 A 
ATOM     24  C   UNL     1      -0.481   9.351   2.889  0.00  0.00    +0.000 A 
ENDBRANCH   1  22
BRANCH   8  25
ATOM     25  N   UNL     1       2.263   4.173  -0.388  0.00  0.00    -0.217 NA
ATOM     26  C   UNL     1       2.904   4.856   0.745  0.00  0.00    +0.134 C 
ATOM     27  C   UNL     1       4.173   5.561   0.258  0.00  0.00    +0.177 C 
ATOM     28  O   UNL     1       3.835   6.463  -0.799  0.00  0.00    -0.377 OA
ATOM     29  C   UNL     1       3.210   5.831  -1.919  0.00  0.00    +0.177 C 
ATOM     30  C   UNL     1       1.931   5.129  -1.453  0.00  0.00    +0.134 C 
ENDBRANCH   8  25
BRANCH   7  31
ATOM     31  N   UNL     1       2.343   1.427  -0.044  0.00  0.00    -0.344 N 
ATOM     32  H   UNL     1       2.347   0.459   0.010  0.00  0.00    +0.144 HD
ATOM     33  H   UNL     1       3.180   1.912  -0.123  0.00  0.00    +0.144 HD
ENDBRANCH   7  31
BRANCH   6  34
ATOM     34  C   UNL     1      -0.006  -0.000  -0.021  0.00  0.00    +0.099 C 
ATOM     35  N   UNL     1       0.007  -1.136  -0.036  0.00  0.00    -0.191 NA
ENDBRANCH   6  34
TORSDOF 5
