REMARK  Name = ZINC12506147
REMARK  3 active torsions:
REMARK  status: ('A' for Active; 'I' for Inactive)
REMARK    1  A    between atoms: C_1  and  C_2
REMARK    2  A    between atoms: C_4  and  N_8
REMARK    3  A    between atoms: N_5  and  C_7
REMARK                            x       y       z     vdW  Elec       q    Type
REMARK                         _______ _______ _______ _____ _____    ______ ____
ROOT
ATOM      1  C   UNL     1       3.606   0.789  -0.029  0.00  0.00    +0.068 C 
ATOM      2  C   UNL     1       2.099   0.756  -0.014  0.00  0.00    +0.075 A 
ATOM      3  C   UNL     1       1.307  -0.395  -0.013  0.00  0.00    +0.075 A 
ATOM      4  C   UNL     1       0.002  -0.004   0.002  0.00  0.00    +0.128 A 
ATOM      5  N   UNL     1      -0.016   1.354   0.009  0.00  0.00    -0.253 N 
ATOM      6  N   UNL     1       1.311   1.801  -0.001  0.00  0.00    -0.174 NA
ATOM      7  C   UNL     1      -1.212   2.201   0.020  0.00  0.00    +0.174 C 
ATOM      8  I   UNL     1       2.002  -2.371  -0.029  0.00  0.00    -0.038 I 
ENDROOT
BRANCH   4   9
ATOM      9  N   UNL     1      -1.109  -0.843   0.008  0.00  0.00    -0.343 N 
ATOM     10  H   UNL     1      -2.002  -0.465   0.019  0.00  0.00    +0.144 HD
ATOM     11  H   UNL     1      -0.990  -1.806   0.002  0.00  0.00    +0.144 HD
ENDBRANCH   4   9
TORSDOF 1
