REMARK  Name = ZINC19354070
REMARK  1 active torsions:
REMARK  status: ('A' for Active; 'I' for Inactive)
REMARK    1  A    between atoms: C_4  and  C_8
REMARK                            x       y       z     vdW  Elec       q    Type
REMARK                         _______ _______ _______ _____ _____    ______ ____
ROOT
ATOM      1  C   UNL     1       1.655  -1.868   0.040  0.00  0.00    +0.222 C 
ATOM      2  N   UNL     1       0.491  -2.591  -0.504  0.00  0.00    -0.337 N 
ATOM      3  C   UNL     1      -0.776  -2.155  -0.220  0.00  0.00    +0.159 C 
ATOM      4  N   UNL     1      -1.033  -0.878   0.000  0.00  0.00    -0.259 N 
ATOM      5  C   UNL     1       0.002  -0.004   0.002  0.00  0.00    +0.205 A 
ATOM      6  N   UNL     1       1.313  -0.442   0.014  0.00  0.00    -0.286 N 
ATOM      7  C   UNL     1       2.125   0.668   0.003  0.00  0.00    +0.076 A 
ATOM      8  C   UNL     1       3.500   0.864  -0.004  0.00  0.00    +0.077 A 
ATOM      9  C   UNL     1       4.013   2.147  -0.017  0.00  0.00    +0.164 A 
ATOM     10  C   UNL     1       3.160   3.247  -0.023  0.00  0.00    +0.164 A 
ATOM     11  C   UNL     1       1.792   3.072  -0.013  0.00  0.00    +0.079 A 
ATOM     12  C   UNL     1       1.260   1.778  -0.000  0.00  0.00    +0.095 A 
ATOM     13  N   UNL     1      -0.016   1.303   0.009  0.00  0.00    -0.214 NA
ATOM     14  O   UNL     1       3.687   4.507  -0.038  0.00  0.00    -0.488 OA
ATOM     15  C   UNL     1       4.359   4.889  -1.240  0.00  0.00    +0.232 C 
ATOM     16  C   UNL     1       5.802   4.409  -1.227  0.00  0.00    +0.082 C 
ATOM     17  C   UNL     1       5.907   2.892  -1.230  0.00  0.00    +0.232 C 
ATOM     18  O   UNL     1       5.364   2.343  -0.027  0.00  0.00    -0.488 OA
ATOM     19  N   UNL     1      -1.799  -3.063  -0.163  0.00  0.00    -0.332 N 
ATOM     20  H   UNL     1      -2.821  -2.727   0.064  0.00  0.00    +0.145 HD
ATOM     21  H   UNL     1      -2.067  -0.547   0.176  0.00  0.00    +0.158 HD
ATOM     22  H   UNL     1      -1.598  -4.130  -0.345  0.00  0.00    +0.145 HD
ATOM     23  H   UNL     1       0.639  -3.478  -1.138  0.00  0.00    +0.164 HD
ENDROOT
BRANCH   1  27
ATOM     24  C   UNL     1       2.412  -3.126   4.054  0.00  0.00    +0.004 A 
ATOM     25  C   UNL     1       1.120  -2.846   3.651  0.00  0.00    +0.039 A 
ATOM     26  C   UNL     1       0.875  -2.433   2.352  0.00  0.00    +0.132 A 
ATOM     27  C   UNL     1       1.922  -2.312   1.455  0.00  0.00    +0.049 A 
ATOM     28  C   UNL     1       3.214  -2.592   1.861  0.00  0.00    +0.051 A 
ATOM     29  C   UNL     1       3.459  -3.000   3.160  0.00  0.00    +0.020 A 
ATOM     30 CL   UNL     1       4.530  -2.433   0.739  0.00  0.00    -0.083 Cl
ATOM     31  F   UNL     1      -0.388  -2.154   1.959  0.00  0.00    -0.205 F 
ENDBRANCH   1  27
TORSDOF 1
