REMARK  Name = ZINC44751952
REMARK  7 active torsions:
REMARK  status: ('A' for Active; 'I' for Inactive)
REMARK    1  A    between atoms: C_1  and  C_2
REMARK    2  A    between atoms: C_2  and  C_3
REMARK    3  A    between atoms: C_2  and  C_4
REMARK    4  A    between atoms: C_2  and  C_6
REMARK    5  A    between atoms: C_4  and  N_5
REMARK    6  A    between atoms: C_11  and  C_14
REMARK    7  A    between atoms: N_16  and  C_17
REMARK                            x       y       z     vdW  Elec       q    Type
REMARK                         _______ _______ _______ _____ _____    ______ ____
ROOT
ATOM      1  C   UNL     1       0.744  -0.202  -1.293  0.00  0.00    +0.219 C 
ATOM      2  O   UNL     1       0.229  -0.822  -2.199  0.00  0.00    -0.275 OA
ATOM      3  N   UNL     1       1.982   0.310  -1.445  0.00  0.00    -0.301 N 
ATOM      4  C   UNL     1       2.579   1.148  -0.396  0.00  0.00    +0.108 C 
ATOM      5  C   UNL     1       3.037   2.469  -1.022  0.00  0.00    +0.032 C 
ATOM      6  C   UNL     1       3.970   2.175  -2.199  0.00  0.00    +0.078 C 
ATOM      7  C   UNL     1       3.215   1.373  -3.262  0.00  0.00    +0.032 C 
ATOM      8  C   UNL     1       2.762   0.035  -2.659  0.00  0.00    +0.108 C 
ENDROOT
BRANCH   6   9
ATOM      9  C   UNL     1       4.449   3.473  -2.796  0.00  0.00    +0.216 C 
ATOM     10  O   UNL     1       4.081   4.529  -2.326  0.00  0.00    -0.276 OA
ATOM     11  N   UNL     1       5.287   3.461  -3.852  0.00  0.00    -0.318 N 
ATOM     12  C   UNL     1       5.753   4.723  -4.432  0.00  0.00    +0.128 C 
ATOM     13  H   UNL     1       5.581   2.616  -4.227  0.00  0.00    +0.148 HD
ENDBRANCH   6   9
BRANCH   1  15
ATOM     14  C   UNL     1      -0.317   1.483   0.185  0.00  0.00    +0.018 C 
ATOM     15  C   UNL     1      -0.000  -0.002   0.002  0.00  0.00    +0.026 C 
ATOM     16  C   UNL     1       0.865  -0.486   1.167  0.00  0.00    +0.018 C 
BRANCH  15  17
ATOM     17  C   UNL     1      -1.304  -0.802  -0.031  0.00  0.00    -0.071 C 
BRANCH  17  18
ATOM     18  N   UNL     1      -2.030  -0.608   1.232  0.00  0.00    +0.379 N 
ATOM     19  H   UNL     1      -1.459  -0.927   2.000  0.00  0.00    -0.090 HD
ATOM     20  H   UNL     1      -2.239   0.372   1.352  0.00  0.00    -0.090 HD
ATOM     21  H   UNL     1      -2.890  -1.135   1.210  0.00  0.00    -0.090 HD
ENDBRANCH  17  18
ENDBRANCH  15  17
ENDBRANCH   1  15
TORSDOF 4
