REMARK  Name = ZINC39779287
REMARK  13 active torsions:
REMARK  status: ('A' for Active; 'I' for Inactive)
REMARK    1  A    between atoms: C_1  and  C_2
REMARK    2  A    between atoms: C_4  and  C_38
REMARK    3  A    between atoms: C_5  and  C_37
REMARK    4  A    between atoms: C_6  and  C_8
REMARK    5  A    between atoms: C_8  and  C_10
REMARK    6  A    between atoms: C_10  and  C_12
REMARK    7  A    between atoms: C_10  and  O_13
REMARK    8  A    between atoms: O_13  and  C_14
REMARK    9  A    between atoms: C_14  and  C_16
REMARK   10  A    between atoms: C_29  and  C_30
REMARK   11  A    between atoms: C_33  and  O_36
REMARK   12  A    between atoms: C_38  and  O_40
REMARK   13  A    between atoms: O_40  and  C_41
REMARK                            x       y       z     vdW  Elec       q    Type
REMARK                         _______ _______ _______ _____ _____    ______ ____
ROOT
ATOM      1  C   UNL     1       3.814  -4.284   5.716  0.00  0.00    +0.073 A 
ATOM      2  C   UNL     1       4.888  -3.912   6.638  0.00  0.00    +0.015 A 
ATOM      3  C   UNL     1       5.143  -2.577   6.967  0.00  0.00    +0.011 A 
ATOM      4  C   UNL     1       6.154  -2.278   7.831  0.00  0.00    +0.001 A 
ATOM      5  C   UNL     1       6.936  -3.286   8.390  0.00  0.00    +0.002 A 
ATOM      6  C   UNL     1       6.715  -4.595   8.092  0.00  0.00    +0.028 A 
ATOM      7  C   UNL     1       5.679  -4.943   7.204  0.00  0.00    +0.072 A 
ATOM      8  N   UNL     1       5.439  -6.215   6.893  0.00  0.00    -0.247 NA
ATOM      9  C   UNL     1       4.471  -6.585   6.060  0.00  0.00    +0.072 A 
ATOM     10  C   UNL     1       3.632  -5.634   5.455  0.00  0.00    -0.007 A 
ATOM     11  C   UNL     1       2.626  -6.331   4.571  0.00  0.00    +0.043 C 
ATOM     12  C   UNL     1       2.918  -7.832   4.688  0.00  0.00    +0.042 C 
ATOM     13  C   UNL     1       4.093  -7.944   5.627  0.00  0.00    -0.021 C 
ATOM     14  C   UNL     1       4.685  -9.087   6.016  0.00  0.00    +0.013 C 
ENDROOT
BRANCH  14  15
ATOM     15  C   UNL     1       4.115 -10.384   5.615  0.00  0.00    -0.024 A 
ATOM     16  C   UNL     1       4.619 -11.570   6.159  0.00  0.00    +0.011 A 
ATOM     17  C   UNL     1       4.083 -12.781   5.780  0.00  0.00    +0.046 A 
ATOM     18  C   UNL     1       3.043 -12.826   4.860  0.00  0.00    +0.117 A 
ATOM     19  C   UNL     1       2.539 -11.651   4.317  0.00  0.00    +0.046 A 
ATOM     20  C   UNL     1       3.065 -10.434   4.693  0.00  0.00    +0.011 A 
BRANCH  18  21
ATOM     21  O   UNL     1       2.518 -14.022   4.489  0.00  0.00    -0.507 OA
ATOM     22  H   UNL     1       1.780 -14.316   5.041  0.00  0.00    +0.292 HD
ENDBRANCH  18  21
ENDBRANCH  14  15
BRANCH   1  23
ATOM     23  C   UNL     1       2.951  -3.259   5.091  0.00  0.00    +0.341 C 
ATOM     24  O   UNL     1       1.930  -2.905   5.645  0.00  0.00    -0.245 OA
BRANCH  23  25
ATOM     25  O   UNL     1       3.298  -2.718   3.907  0.00  0.00    -0.450 OA
BRANCH  25  26
ATOM     26  C   UNL     1       2.418  -1.734   3.362  0.00  0.00    +0.246 C 
ATOM     27  C   UNL     1       2.836  -0.347   3.854  0.00  0.00    +0.061 C 
BRANCH  26  28
ATOM     28  C   UNL     1       2.489  -1.774   1.857  0.00  0.00    +0.221 C 
ATOM     29  O   UNL     1       3.396  -2.357   1.311  0.00  0.00    -0.286 OA
BRANCH  28  34
ATOM     30  C   UNL     1      -0.420   1.598   0.485  0.00  0.00    +0.038 C 
ATOM     31  C   UNL     1      -0.365   0.070   0.427  0.00  0.00    +0.140 C 
ATOM     32  C   UNL     1       0.340  -0.380  -0.833  0.00  0.00    +0.065 C 
ATOM     33  C   UNL     1       1.419  -1.077  -0.423  0.00  0.00    -0.010 C 
ATOM     34  C   UNL     1       1.447  -1.100   1.047  0.00  0.00    +0.109 C 
ATOM     35  N   UNL     1       0.436  -0.451   1.540  0.00  0.00    -0.272 NA
ATOM     36  C   UNL     1       2.434  -1.728  -1.327  0.00  0.00    +0.046 C 
BRANCH  32  37
ATOM     37  C   UNL     1      -0.067  -0.114  -2.219  0.00  0.00    +0.337 C 
ATOM     38  O   UNL     1       0.600  -0.540  -3.141  0.00  0.00    -0.245 OA
BRANCH  37  39
ATOM     39  O   UNL     1      -1.181   0.604  -2.468  0.00  0.00    -0.465 OA
ATOM     40  C   UNL     1      -1.518   0.825  -3.839  0.00  0.00    +0.280 C 
ENDBRANCH  37  39
ENDBRANCH  32  37
ENDBRANCH  28  34
ENDBRANCH  26  28
ENDBRANCH  25  26
ENDBRANCH  23  25
ENDBRANCH   1  23
TORSDOF 9
