REMARK  Name = ZINC06501294
REMARK  17 active torsions:
REMARK  status: ('A' for Active; 'I' for Inactive)
REMARK    1  A    between atoms: C_1  and  C_2
REMARK    2  A    between atoms: C_2  and  C_3
REMARK    3  A    between atoms: C_3  and  C_4
REMARK    4  A    between atoms: C_4  and  C_6
REMARK    5  A    between atoms: C_4  and  N_13
REMARK    6  A    between atoms: N_8  and  C_9
REMARK    7  A    between atoms: C_9  and  C_10
REMARK    8  A    between atoms: C_9  and  C_11
REMARK    9  A    between atoms: C_9  and  C_12
REMARK   10  A    between atoms: N_13  and  C_14
REMARK   11  A    between atoms: C_17  and  O_22
REMARK   12  A    between atoms: C_18  and  O_20
REMARK   13  A    between atoms: O_20  and  C_21
REMARK   14  A    between atoms: O_22  and  C_23
REMARK   15  A    between atoms: C_24  and  C_26
REMARK   16  A    between atoms: C_27  and  N_34
REMARK   17  A    between atoms: C_28  and  C_31
REMARK                            x       y       z     vdW  Elec       q    Type
REMARK                         _______ _______ _______ _____ _____    ______ ____
ROOT
ATOM      1  N   UNL     1       3.323   1.213  -0.481  0.00  0.00    -0.255 N 
ATOM      2  C   UNL     1       2.948  -0.018  -0.078  0.00  0.00    +0.261 C 
ATOM      3  O   UNL     1       1.889  -0.172   0.503  0.00  0.00    -0.269 OA
ENDROOT
BRANCH   1   4
ATOM      4  C   UNL     1       2.589   2.335  -0.078  0.00  0.00    +0.041 A 
ATOM      5  C   UNL     1       3.055   3.611  -0.368  0.00  0.00    +0.027 A 
ATOM      6  C   UNL     1       2.332   4.719   0.029  0.00  0.00    +0.051 A 
ATOM      7  C   UNL     1       1.140   4.561   0.717  0.00  0.00    +0.162 A 
ATOM      8  C   UNL     1       0.667   3.284   1.005  0.00  0.00    +0.163 A 
ATOM      9  C   UNL     1       1.395   2.173   0.612  0.00  0.00    +0.073 A 
BRANCH   8  10
ATOM     10  O   UNL     1      -0.505   3.127   1.676  0.00  0.00    -0.491 OA
ATOM     11  C   UNL     1      -0.927   1.788   1.941  0.00  0.00    +0.277 C 
ENDBRANCH   8  10
BRANCH   7  12
ATOM     12  O   UNL     1       0.429   5.653   1.107  0.00  0.00    -0.491 OA
ATOM     13  C   UNL     1       0.971   6.933   0.773  0.00  0.00    +0.277 C 
ENDBRANCH   7  12
ENDBRANCH   1   4
BRANCH   2  14
ATOM     14  C   UNL     1       3.814  -1.169  -0.339  0.00  0.00    +0.116 A 
ATOM     15  C   UNL     1       3.521  -2.532  -0.265  0.00  0.00    +0.076 A 
ATOM     16  C   UNL     1       4.615  -3.332  -0.594  0.00  0.00    +0.155 A 
ATOM     17  N   UNL     1       5.756  -2.763  -0.914  0.00  0.00    -0.203 NA
ATOM     18  S   UNL     1       5.525  -1.206  -0.830  0.00  0.00    +0.019 S 
BRANCH  16  19
ATOM     19  C   UNL     1       4.495  -4.801  -0.576  0.00  0.00    +0.262 C 
ATOM     20  O   UNL     1       3.437  -5.322  -0.278  0.00  0.00    -0.269 OA
ATOM     21  N   UNL     1       5.558  -5.568  -0.890  0.00  0.00    -0.324 N 
ATOM     22  H   UNL     1       6.402  -5.153  -1.127  0.00  0.00    +0.145 HD
ATOM     23  H   UNL     1       5.479  -6.535  -0.878  0.00  0.00    +0.145 HD
ENDBRANCH  16  19
BRANCH  15  24
ATOM     24  N   UNL     1       2.277  -3.035   0.095  0.00  0.00    -0.355 N 
ATOM     25  H   UNL     1       1.553  -2.427   0.311  0.00  0.00    +0.142 HD
ATOM     26  H   UNL     1       2.134  -3.993   0.129  0.00  0.00    +0.142 HD
ENDBRANCH  15  24
ENDBRANCH   2  14
BRANCH   1  27
ATOM     27  C   UNL     1       4.498   1.376  -1.340  0.00  0.00    +0.167 C 
BRANCH  27  28
ATOM     28  C   UNL     1       4.125   2.189  -2.552  0.00  0.00    +0.234 C 
ATOM     29  O   UNL     1       3.024   2.691  -2.631  0.00  0.00    -0.274 OA
ATOM     30  N   UNL     1       5.016   2.359  -3.550  0.00  0.00    -0.309 N 
ATOM     31  H   UNL     1       5.897   1.958  -3.487  0.00  0.00    +0.149 HD
BRANCH  30  32
ATOM     32  C   UNL     1       4.653   3.150  -4.728  0.00  0.00    +0.026 C 
ATOM     33  C   UNL     1       4.303   4.576  -4.298  0.00  0.00    +0.031 C 
ATOM     34  C   UNL     1       5.833   3.186  -5.701  0.00  0.00    +0.031 C 
ATOM     35  C   UNL     1       3.444   2.514  -5.417  0.00  0.00    +0.031 C 
ENDBRANCH  30  32
ENDBRANCH  27  28
BRANCH  27  36
ATOM     36  C   UNL     1       5.602   2.096  -0.562  0.00  0.00    +0.032 C 
BRANCH  36  38
ATOM     37  C   UNL     1       6.982   2.068   1.520  0.00  0.00    +0.004 C 
ATOM     38  C   UNL     1       5.878   1.347   0.743  0.00  0.00    -0.001 C 
ENDBRANCH  36  38
ENDBRANCH  27  36
ENDBRANCH   1  27
TORSDOF 11
