REMARK  Name = ZINC38652752
REMARK  4 active torsions:
REMARK  status: ('A' for Active; 'I' for Inactive)
REMARK    1  A    between atoms: C_1  and  C_2
REMARK    2  A    between atoms: C_2  and  N_3
REMARK    3  A    between atoms: C_14  and  N_24
REMARK    4  A    between atoms: C_17  and  C_18
REMARK                            x       y       z     vdW  Elec       q    Type
REMARK                         _______ _______ _______ _____ _____    ______ ____
ROOT
ATOM      1  N   UNL     1       0.684  -0.586  -1.168  0.00  0.00    -0.340 N 
ATOM      2  C   UNL     1      -0.068  -0.913  -2.279  0.00  0.00    +0.052 A 
ATOM      3  C   UNL     1      -1.450  -0.902  -2.217  0.00  0.00    +0.051 A 
ATOM      4  C   UNL     1      -2.200  -1.237  -3.355  0.00  0.00    +0.035 A 
ATOM      5  N   UNL     1      -3.537  -1.228  -3.299  0.00  0.00    -0.398 N 
ATOM      6  C   UNL     1      -1.547  -1.582  -4.558  0.00  0.00    +0.026 A 
ATOM      7  C   UNL     1      -0.189  -1.593  -4.620  0.00  0.00    +0.012 A 
ATOM      8  C   UNL     1       0.570  -1.261  -3.491  0.00  0.00    +0.006 A 
ATOM      9  C   UNL     1       2.035  -1.265  -3.535  0.00  0.00    -0.007 A 
ATOM     10  C   UNL     1       2.732  -1.598  -4.697  0.00  0.00    +0.011 A 
ATOM     11  C   UNL     1       4.097  -1.589  -4.697  0.00  0.00    +0.023 A 
ATOM     12  C   UNL     1       4.810  -1.250  -3.543  0.00  0.00    +0.025 A 
ATOM     13  C   UNL     1       4.149  -0.917  -2.379  0.00  0.00    +0.033 A 
ATOM     14  C   UNL     1       2.746  -0.919  -2.357  0.00  0.00    +0.009 A 
ATOM     15  C   UNL     1       2.031  -0.579  -1.191  0.00  0.00    +0.057 A 
ATOM     16  H   UNL     1      -3.986  -0.990  -2.474  0.00  0.00    +0.156 HD
ATOM     17  H   UNL     1      -4.056  -1.459  -4.085  0.00  0.00    +0.156 HD
ENDROOT
BRANCH  15  18
ATOM     18  C   UNL     1       2.770  -0.214   0.028  0.00  0.00    -0.001 A 
ATOM     19  C   UNL     1       3.124  -1.198   0.957  0.00  0.00    +0.010 A 
ATOM     20  C   UNL     1       3.817  -0.849   2.097  0.00  0.00    +0.001 A 
ATOM     21  C   UNL     1       4.162   0.473   2.323  0.00  0.00    +0.000 A 
ATOM     22  C   UNL     1       3.815   1.453   1.409  0.00  0.00    +0.001 A 
ATOM     23  C   UNL     1       3.128   1.119   0.262  0.00  0.00    +0.010 A 
ENDBRANCH  15  18
BRANCH  12  24
ATOM     24  N   UNL     1       6.207  -1.250  -3.569  0.00  0.00    -0.358 N 
ATOM     25  H   UNL     1       6.677  -1.483  -4.384  0.00  0.00    +0.142 HD
ATOM     26  H   UNL     1       6.707  -1.015  -2.771  0.00  0.00    +0.142 HD
ENDBRANCH  12  24
BRANCH   1  28
ATOM     27  C   UNL     1      -0.378   1.254   0.043  0.00  0.00    +0.027 C 
ATOM     28  C   UNL     1      -0.006  -0.230   0.074  0.00  0.00    +0.119 C 
ENDBRANCH   1  28
TORSDOF 3
