REMARK  Name = ZINC58229553
REMARK  6 active torsions:
REMARK  status: ('A' for Active; 'I' for Inactive)
REMARK    1  A    between atoms: C_1  and  C_2
REMARK    2  A    between atoms: C_2  and  N_3
REMARK    3  A    between atoms: C_7  and  C_15
REMARK    4  A    between atoms: C_15  and  C_17
REMARK    5  A    between atoms: C_15  and  N_24
REMARK    6  A    between atoms: C_21  and  C_23
REMARK                            x       y       z     vdW  Elec       q    Type
REMARK                         _______ _______ _______ _____ _____    ______ ____
ROOT
ATOM      1  N   UNL     1       0.711  -0.489   1.189  0.00  0.00    -0.271 N 
ATOM      2  C   UNL     1       2.096  -0.703   1.156  0.00  0.00    +0.039 A 
ATOM      3  C   UNL     1       2.946   0.274   0.659  0.00  0.00    +0.024 A 
ATOM      4  C   UNL     1       4.310   0.053   0.646  0.00  0.00    +0.004 A 
ATOM      5  C   UNL     1       4.823  -1.137   1.130  0.00  0.00    -0.057 A 
ATOM      6  C   UNL     1       3.976  -2.113   1.620  0.00  0.00    +0.007 A 
ATOM      7  C   UNL     1       2.611  -1.901   1.629  0.00  0.00    -0.026 A 
ATOM      8  C   UNL     1       1.678  -2.971   2.127  0.00  0.00    +0.037 C 
ATOM      9  C   UNL     1       1.164  -2.618   3.525  0.00  0.00    +0.014 C 
ATOM     10  C   UNL     1       0.794  -1.135   3.572  0.00  0.00    +0.096 C 
ATOM     11  C   UNL     1       0.045  -0.733   2.333  0.00  0.00    +0.220 C 
ATOM     12  O   UNL     1      -1.163  -0.632   2.363  0.00  0.00    -0.275 OA
ENDROOT
BRANCH   1  14
ATOM     13  C   UNL     1      -0.019   1.526   0.010  0.00  0.00    +0.025 C 
ATOM     14  C   UNL     1       0.002  -0.004   0.002  0.00  0.00    +0.110 C 
ENDBRANCH   1  14
BRANCH   5  15
ATOM     15  C   UNL     1       6.312  -1.371   1.121  0.00  0.00    -0.013 C 
BRANCH  15  16
ATOM     16  C   UNL     1       6.747  -1.786  -0.261  0.00  0.00    -0.057 A 
ATOM     17  C   UNL     1       6.931  -0.832  -1.244  0.00  0.00    +0.002 A 
ATOM     18  C   UNL     1       7.330  -1.213  -2.511  0.00  0.00    +0.000 A 
ATOM     19  C   UNL     1       7.545  -2.549  -2.796  0.00  0.00    +0.003 A 
ATOM     20  C   UNL     1       7.362  -3.503  -1.813  0.00  0.00    -0.050 A 
ATOM     21  C   UNL     1       6.967  -3.121  -0.544  0.00  0.00    +0.005 A 
ATOM     22  C   UNL     1       7.596  -4.959  -2.123  0.00  0.00    +0.044 C 
ENDBRANCH  15  16
BRANCH  15  23
ATOM     23  N   UNL     1       7.005  -0.132   1.500  0.00  0.00    +0.385 N 
ATOM     24  H   UNL     1       6.713   0.146   2.425  0.00  0.00    -0.089 HD
ATOM     25  H   UNL     1       8.001  -0.289   1.494  0.00  0.00    -0.089 HD
ATOM     26  H   UNL     1       6.775   0.597   0.842  0.00  0.00    -0.089 HD
ENDBRANCH  15  23
ENDBRANCH   5  15
TORSDOF 4
