REMARK  Name = ZINC01502859
REMARK  6 active torsions:
REMARK  status: ('A' for Active; 'I' for Inactive)
REMARK    1  A    between atoms: C_1  and  S_2
REMARK    2  A    between atoms: S_2  and  C_5
REMARK    3  A    between atoms: C_7  and  C_36
REMARK    4  A    between atoms: C_9  and  C_10
REMARK    5  A    between atoms: N_25  and  C_26
REMARK    6  A    between atoms: C_30  and  C_32
REMARK                            x       y       z     vdW  Elec       q    Type
REMARK                         _______ _______ _______ _____ _____    ______ ____
ROOT
ATOM      1  C   UNL     1       3.713   8.417   9.367  0.00  0.00    +0.113 A 
ATOM      2  C   UNL     1       4.212   7.131   9.425  0.00  0.00    +0.051 A 
ATOM      3  C   UNL     1       3.361   6.103   9.851  0.00  0.00    +0.092 A 
ATOM      4  C   UNL     1       2.035   6.417  10.201  0.00  0.00    +0.117 A 
ATOM      5  C   UNL     1       2.387   8.654   9.730  0.00  0.00    +0.073 A 
ATOM      6  N   UNL     1       1.180   5.413  10.624  0.00  0.00    -0.313 N 
ATOM      7  C   UNL     1       0.290   5.894  11.688  0.00  0.00    +0.125 C 
ATOM      8  C   UNL     1      -0.510   4.715  12.252  0.00  0.00    +0.128 C 
ATOM      9  N   UNL     1      -1.186   4.034  11.136  0.00  0.00    -0.282 N 
ATOM     10  C   UNL     1      -0.379   3.638   9.972  0.00  0.00    +0.128 C 
ATOM     11  C   UNL     1       0.415   4.865   9.496  0.00  0.00    +0.125 C 
ATOM     12  C   UNL     1      -2.507   3.774  11.183  0.00  0.00    +0.307 C 
ATOM     13  O   UNL     1      -3.165   4.138  12.139  0.00  0.00    -0.252 OA
ATOM     14  N   UNL     1      -3.100   3.112  10.170  0.00  0.00    -0.269 N 
ATOM     15  H   UNL     1      -2.579   2.839   9.398  0.00  0.00    +0.156 HD
ATOM     16  N   UNL     1       1.523   7.678  10.144  0.00  0.00    -0.340 N 
ATOM     17  H   UNL     1       0.549   7.883  10.397  0.00  0.00    +0.167 HD
ENDROOT
BRANCH   5  18
ATOM     18  C   UNL     1       1.849  10.034   9.668  0.00  0.00    +0.000 A 
ATOM     19  C   UNL     1       2.063  10.916  10.727  0.00  0.00    +0.011 A 
ATOM     20  C   UNL     1       1.564  12.201  10.662  0.00  0.00    +0.020 A 
ATOM     21  C   UNL     1       0.844  12.611   9.553  0.00  0.00    +0.041 A 
ATOM     22  C   UNL     1       0.624  11.738   8.501  0.00  0.00    +0.020 A 
ATOM     23  C   UNL     1       1.123  10.452   8.554  0.00  0.00    +0.011 A 
ATOM     24 CL   UNL     1       0.212  14.227   9.481  0.00  0.00    -0.084 Cl
ENDBRANCH   5  18
BRANCH  14  25
ATOM     25  C   UNL     1      -4.467   2.816  10.232  0.00  0.00    +0.035 A 
ATOM     26  C   UNL     1      -5.101   2.709  11.463  0.00  0.00    +0.023 A 
ATOM     27  C   UNL     1      -6.449   2.419  11.520  0.00  0.00    +0.002 A 
ATOM     28  C   UNL     1      -7.170   2.239  10.353  0.00  0.00    +0.012 A 
ATOM     29  C   UNL     1      -6.540   2.340   9.126  0.00  0.00    +0.057 A 
ATOM     30  C   UNL     1      -5.191   2.630   9.062  0.00  0.00    +0.035 A 
BRANCH  29  31
ATOM     31  C   UNL     1      -7.328   2.138   7.857  0.00  0.00    +0.417 C 
ATOM     32  F   UNL     1      -7.293   0.787   7.496  0.00  0.00    -0.166 F 
ATOM     33  F   UNL     1      -6.768   2.909   6.833  0.00  0.00    -0.166 F 
ATOM     34  F   UNL     1      -8.655   2.530   8.065  0.00  0.00    -0.166 F 
ENDBRANCH  29  31
ENDBRANCH  14  25
BRANCH   1  36
ATOM     35  C   UNL     1       4.044  10.271   7.247  0.00  0.00    +0.200 C 
ATOM     36  S   UNL     1       4.741   9.747   8.838  0.00  0.00    -0.004 S 
ATOM     37  O   UNL     1       4.551  10.762   9.814  0.00  0.00    -0.170 OA
ATOM     38  O   UNL     1       6.020   9.160   8.643  0.00  0.00    -0.170 OA
ENDBRANCH   1  36
BRANCH   3  39
ATOM     39  C   UNL     1       3.833   4.753   9.927  0.00  0.00    +0.103 C 
ATOM     40  N   UNL     1       4.208   3.682   9.987  0.00  0.00    -0.191 NA
ENDBRANCH   3  39
TORSDOF 5
