REMARK  Name = ZINC23483083
REMARK  12 active torsions:
REMARK  status: ('A' for Active; 'I' for Inactive)
REMARK    1  A    between atoms: C_1  and  C_2
REMARK    2  A    between atoms: C_2  and  C_4
REMARK    3  A    between atoms: C_2  and  N_34
REMARK    4  A    between atoms: C_7  and  S_16
REMARK    5  A    between atoms: N_8  and  C_9
REMARK    6  A    between atoms: S_16  and  C_17
REMARK    7  A    between atoms: C_17  and  C_18
REMARK    8  A    between atoms: N_20  and  C_21
REMARK    9  A    between atoms: C_21  and  C_23
REMARK   10  A    between atoms: C_21  and  C_24
REMARK   11  A    between atoms: N_34  and  C_35
REMARK   12  A    between atoms: N_34  and  C_36
REMARK                            x       y       z     vdW  Elec       q    Type
REMARK                         _______ _______ _______ _____ _____    ______ ____
ROOT
ATOM      1  C   UNL     1      -9.253   1.418  -5.280  0.00  0.00    +0.125 A 
ATOM      2  N   UNL     1      -8.610   0.540  -4.562  0.00  0.00    -0.135 NA
ATOM      3  N   UNL     1      -7.368   0.859  -4.482  0.00  0.00    -0.122 NA
ATOM      4  C   UNL     1      -7.146   1.967  -5.149  0.00  0.00    +0.197 A 
ATOM      5  N   UNL     1      -8.344   2.363  -5.676  0.00  0.00    -0.275 N 
ENDROOT
BRANCH   5   6
ATOM      6  C   UNL     1      -8.591   3.499  -6.462  0.00  0.00    +0.050 A 
ATOM      7  C   UNL     1      -9.413   4.510  -5.983  0.00  0.00    +0.029 A 
ATOM      8  C   UNL     1      -9.650   5.631  -6.755  0.00  0.00    +0.040 A 
ATOM      9  C   UNL     1      -9.077   5.740  -8.012  0.00  0.00    +0.124 A 
ATOM     10  C   UNL     1      -8.262   4.730  -8.493  0.00  0.00    +0.040 A 
ATOM     11  C   UNL     1      -8.018   3.611  -7.721  0.00  0.00    +0.029 A 
ATOM     12  F   UNL     1      -9.315   6.834  -8.768  0.00  0.00    -0.205 F 
ENDBRANCH   5   6
BRANCH   1  14
ATOM     13  C   UNL     1     -11.526   1.823  -4.375  0.00  0.00    -0.005 C 
ATOM     14  C   UNL     1     -10.724   1.400  -5.608  0.00  0.00    -0.003 C 
BRANCH  14  15
ATOM     15  N   UNL     1     -11.119   0.043  -6.008  0.00  0.00    +0.382 N 
ATOM     16  C   UNL     1     -12.550  -0.013  -6.335  0.00  0.00    -0.096 C 
ATOM     17  C   UNL     1     -10.303  -0.434  -7.132  0.00  0.00    -0.096 C 
ATOM     18  H   UNL     1     -10.942  -0.626  -5.153  0.00  0.00    -0.082 HD
ENDBRANCH  14  15
ENDBRANCH   1  14
BRANCH   4  19
ATOM     19  S   UNL     1      -5.599   2.792  -5.326  0.00  0.00    -0.076 S 
BRANCH  19  20
ATOM     20  C   UNL     1      -4.540   1.685  -4.363  0.00  0.00    +0.173 C 
BRANCH  20  21
ATOM     21  C   UNL     1      -3.126   2.206  -4.374  0.00  0.00    +0.224 C 
ATOM     22  O   UNL     1      -2.861   3.227  -4.973  0.00  0.00    -0.275 OA
ATOM     23  N   UNL     1      -2.157   1.539  -3.717  0.00  0.00    -0.312 N 
ATOM     24  H   UNL     1      -2.398   0.614  -3.173  0.00  0.00    +0.149 HD
BRANCH  23  25
ATOM     25  C   UNL     1      -0.782   2.046  -3.727  0.00  0.00    +0.076 C 
ATOM     26  C   UNL     1      -0.066   1.553  -4.986  0.00  0.00    +0.028 C 
BRANCH  25  27
ATOM     27  C   UNL     1      -0.043   1.539  -2.488  0.00  0.00    -0.010 C 
ATOM     28  C   UNL     1      -0.759   2.033  -1.229  0.00  0.00    +0.012 C 
ATOM     29  C   UNL     1      -0.019   1.526   0.010  0.00  0.00    -0.010 C 
ATOM     30  C   UNL     1       1.417   2.055  -0.000  0.00  0.00    +0.007 C 
ATOM     31  C   UNL     1       2.133   1.562  -1.259  0.00  0.00    -0.010 C 
ATOM     32  C   UNL     1       1.393   2.069  -2.499  0.00  0.00    +0.012 C 
ATOM     33  C   UNL     1       2.154   0.032  -1.268  0.00  0.00    +0.007 C 
ATOM     34  C   UNL     1       0.718  -0.497  -1.257  0.00  0.00    -0.010 C 
ATOM     35  C   UNL     1       0.002  -0.004   0.002  0.00  0.00    +0.007 C 
ATOM     36  C   UNL     1      -0.022   0.009  -2.496  0.00  0.00    +0.012 C 
ENDBRANCH  25  27
ENDBRANCH  23  25
ENDBRANCH  20  21
ENDBRANCH  19  20
ENDBRANCH   4  19
TORSDOF 8
