REMARK  Name = ZINC01845544
REMARK  6 active torsions:
REMARK  status: ('A' for Active; 'I' for Inactive)
REMARK    1  A    between atoms: C_1  and  C_2
REMARK    2  A    between atoms: C_13  and  C_38
REMARK    3  A    between atoms: C_15  and  C_27
REMARK    4  A    between atoms: C_27  and  C_29
REMARK    5  A    between atoms: C_33  and  N_35
REMARK    6  A    between atoms: C_38  and  C_40
REMARK                            x       y       z     vdW  Elec       q    Type
REMARK                         _______ _______ _______ _____ _____    ______ ____
ROOT
ATOM      1  C   UNL     1      -0.665   1.169   1.302  0.00  0.00    +0.044 C 
ATOM      2  C   UNL     1      -0.495  -0.305   1.034  0.00  0.00    -0.050 A 
ATOM      3  C   UNL     1      -0.519  -0.772  -0.269  0.00  0.00    +0.005 A 
ATOM      4  C   UNL     1      -0.372  -2.123  -0.532  0.00  0.00    +0.024 A 
ATOM      5  C   UNL     1      -0.198  -3.004   0.512  0.00  0.00    +0.038 A 
ATOM      6  C   UNL     1      -0.158  -2.534   1.841  0.00  0.00    -0.004 A 
ATOM      7  C   UNL     1      -0.310  -1.175   2.090  0.00  0.00    +0.013 A 
ATOM      8  C   UNL     1       0.078  -3.505   2.928  0.00  0.00    +0.007 C 
ATOM      9  C   UNL     1      -0.085  -4.810   2.730  0.00  0.00    -0.003 C 
ATOM     10  C   UNL     1      -0.522  -5.331   1.388  0.00  0.00    +0.117 C 
ATOM     11  N   UNL     1      -0.062  -4.377   0.353  0.00  0.00    -0.311 N 
ATOM     12  C   UNL     1       0.573  -5.136  -0.727  0.00  0.00    +0.157 C 
ATOM     13  C   UNL     1       1.200  -6.357   0.004  0.00  0.00    +0.110 C 
ATOM     14  C   UNL     1       0.114  -6.682   1.067  0.00  0.00    +0.108 C 
ATOM     15  C   UNL     1       0.691  -7.343   2.273  0.00  0.00    -0.008 A 
ATOM     16  C   UNL     1       1.653  -6.940   3.174  0.00  0.00    +0.006 A 
ATOM     17  C   UNL     1       1.961  -7.820   4.206  0.00  0.00    +0.000 A 
ATOM     18  C   UNL     1       1.330  -9.041   4.321  0.00  0.00    +0.002 A 
ATOM     19  C   UNL     1       0.361  -9.455   3.419  0.00  0.00    +0.023 A 
ATOM     20  C   UNL     1       0.042  -8.582   2.378  0.00  0.00    +0.038 A 
ATOM     21  N   UNL     1      -0.872  -8.736   1.351  0.00  0.00    -0.284 N 
ATOM     22  C   UNL     1      -0.896  -7.662   0.529  0.00  0.00    +0.231 C 
ATOM     23  O   UNL     1      -1.596  -7.516  -0.451  0.00  0.00    -0.274 OA
ATOM     24  H   UNL     1      -1.430  -9.520   1.234  0.00  0.00    +0.155 HD
ENDROOT
BRANCH  13  25
ATOM     25  C   UNL     1       2.506  -5.982   0.657  0.00  0.00    +0.170 C 
ATOM     26  O   UNL     1       2.691  -4.844   1.034  0.00  0.00    -0.292 OA
BRANCH  25  27
ATOM     27  C   UNL     1       3.556  -6.997   0.838  0.00  0.00    +0.020 A 
ATOM     28  C   UNL     1       3.390  -8.282   0.312  0.00  0.00    +0.011 A 
ATOM     29  C   UNL     1       4.378  -9.227   0.486  0.00  0.00    +0.003 A 
ATOM     30  C   UNL     1       5.533  -8.907   1.179  0.00  0.00    +0.033 A 
ATOM     31  C   UNL     1       5.705  -7.638   1.702  0.00  0.00    +0.127 A 
ATOM     32  C   UNL     1       4.728  -6.679   1.532  0.00  0.00    +0.044 A 
BRANCH  31  33
ATOM     33  N   UNL     1       6.944  -7.306   2.441  0.00  0.00    +0.056 N 
ATOM     34  O   UNL     1       7.803  -8.143   2.587  0.00  0.00    -0.126 OA
ATOM     35  O   UNL     1       7.096  -6.197   2.899  0.00  0.00    -0.126 OA
ENDBRANCH  31  33
ENDBRANCH  25  27
ENDBRANCH  13  25
BRANCH  12  36
ATOM     36  C   UNL     1      -0.455  -5.587  -1.733  0.00  0.00    +0.184 C 
ATOM     37  O   UNL     1      -1.636  -5.505  -1.471  0.00  0.00    -0.290 OA
BRANCH  36  38
ATOM     38  C   UNL     1      -0.025  -6.126  -3.032  0.00  0.00    +0.019 A 
ATOM     39  C   UNL     1       1.330  -6.125  -3.380  0.00  0.00    +0.013 A 
ATOM     40  C   UNL     1       1.726  -6.632  -4.599  0.00  0.00    +0.020 A 
ATOM     41  C   UNL     1       0.785  -7.142  -5.479  0.00  0.00    +0.041 A 
ATOM     42  C   UNL     1      -0.558  -7.147  -5.141  0.00  0.00    +0.020 A 
ATOM     43  C   UNL     1      -0.968  -6.649  -3.923  0.00  0.00    +0.013 A 
ATOM     44 CL   UNL     1       1.293  -7.778  -7.012  0.00  0.00    -0.084 Cl
ENDBRANCH  36  38
ENDBRANCH  12  36
TORSDOF 5
