REMARK  Name = ZINC49181271
REMARK  15 active torsions:
REMARK  status: ('A' for Active; 'I' for Inactive)
REMARK    1  A    between atoms: C_1  and  C_2
REMARK    2  A    between atoms: C_3  and  C_12
REMARK    3  A    between atoms: C_4  and  C_10
REMARK    4  A    between atoms: C_4  and  C_11
REMARK    5  A    between atoms: C_6  and  O_9
REMARK    6  A    between atoms: C_12  and  C_13
REMARK    7  A    between atoms: C_13  and  C_14
REMARK    8  A    between atoms: C_14  and  C_16
REMARK    9  A    between atoms: C_14  and  O_17
REMARK   10  A    between atoms: O_17  and  C_18
REMARK   11  A    between atoms: C_20  and  O_33
REMARK   12  A    between atoms: C_22  and  O_32
REMARK   13  A    between atoms: C_24  and  O_31
REMARK   14  A    between atoms: C_26  and  C_29
REMARK   15  A    between atoms: C_29  and  O_30
REMARK                            x       y       z     vdW  Elec       q    Type
REMARK                         _______ _______ _______ _____ _____    ______ ____
ROOT
ATOM      1  O   UNL     1      -5.206   0.501  -0.757  0.00  0.00    -0.346 OA
ENDROOT
BRANCH   1   2
ATOM      2  C   UNL     1      -6.160   1.342  -0.106  0.00  0.00    +0.282 C 
ATOM      3  C   UNL     1      -7.286   0.483   0.475  0.00  0.00    +0.201 C 
ATOM      4  C   UNL     1      -8.273   1.386   1.222  0.00  0.00    +0.179 C 
ATOM      5  C   UNL     1      -7.518   2.164   2.303  0.00  0.00    +0.177 C 
ATOM      6  C   UNL     1      -6.383   2.958   1.652  0.00  0.00    +0.178 C 
ATOM      7  O   UNL     1      -5.520   2.063   0.948  0.00  0.00    -0.341 OA
BRANCH   5   8
ATOM      8  O   UNL     1      -8.415   3.062   2.960  0.00  0.00    -0.386 OA
ATOM      9  H   UNL     1      -9.163   2.626   3.392  0.00  0.00    +0.210 HD
ENDBRANCH   5   8
BRANCH   4  10
ATOM     10  O   UNL     1      -9.289   0.584   1.828  0.00  0.00    -0.386 OA
ATOM     11  H   UNL     1      -9.803   0.059   1.199  0.00  0.00    +0.210 HD
ENDBRANCH   4  10
BRANCH   3  12
ATOM     12  O   UNL     1      -7.965  -0.195  -0.584  0.00  0.00    -0.384 OA
ATOM     13  H   UNL     1      -7.397  -0.782  -1.103  0.00  0.00    +0.210 HD
ENDBRANCH   3  12
BRANCH   6  14
ATOM     14  C   UNL     1      -5.587   3.692   2.733  0.00  0.00    +0.190 C 
BRANCH  14  15
ATOM     15  O   UNL     1      -4.602   4.524   2.117  0.00  0.00    -0.392 OA
ATOM     16  H   UNL     1      -4.059   5.020   2.744  0.00  0.00    +0.210 HD
ENDBRANCH  14  15
ENDBRANCH   6  14
ENDBRANCH   1   2
BRANCH   1  17
ATOM     17  C   UNL     1      -4.168   1.213  -1.433  0.00  0.00    +0.119 C 
ATOM     18  C   UNL     1      -4.596   1.491  -2.875  0.00  0.00    +0.038 C 
BRANCH  17  19
ATOM     19  C   UNL     1      -2.889   0.373  -1.433  0.00  0.00    +0.036 C 
BRANCH  19  20
ATOM     20  C   UNL     1      -2.393   0.201   0.004  0.00  0.00    +0.034 C 
BRANCH  20  23
ATOM     21  C   UNL     1      -0.018   1.503   0.010  0.00  0.00    +0.039 C 
ATOM     22  C   UNL     1       0.002  -0.004   0.002  0.00  0.00    -0.070 C 
ATOM     23  C   UNL     1      -1.133  -0.626   0.004  0.00  0.00    -0.065 C 
ATOM     24  C   UNL     1      -1.272  -2.121   0.007  0.00  0.00    -0.011 C 
ATOM     25  C   UNL     1       0.045  -2.774  -0.416  0.00  0.00    +0.042 C 
ATOM     26  C   UNL     1       1.181  -2.154   0.408  0.00  0.00    +0.119 C 
ATOM     27  C   UNL     1       1.337  -0.690  -0.014  0.00  0.00    +0.061 C 
ATOM     28  C   UNL     1      -1.643  -2.592   1.415  0.00  0.00    +0.015 C 
ATOM     29  C   UNL     1      -2.378  -2.529  -0.969  0.00  0.00    +0.015 C 
BRANCH  26  30
ATOM     30  O   UNL     1       2.397  -2.861   0.158  0.00  0.00    -0.391 OA
ATOM     31  H   UNL     1       3.158  -2.520   0.647  0.00  0.00    +0.210 HD
ENDBRANCH  26  30
ENDBRANCH  20  23
ENDBRANCH  19  20
ENDBRANCH  17  19
ENDBRANCH   1  17
TORSDOF 11
