REMARK  Name = ZINC41119196
REMARK  9 active torsions:
REMARK  status: ('A' for Active; 'I' for Inactive)
REMARK    1  A    between atoms: C_1  and  N_2
REMARK    2  A    between atoms: N_2  and  C_3
REMARK    3  A    between atoms: N_2  and  S_4
REMARK    4  A    between atoms: S_4  and  C_7
REMARK    5  A    between atoms: C_10  and  N_14
REMARK    6  A    between atoms: C_11  and  N_13
REMARK    7  A    between atoms: N_14  and  C_15
REMARK    8  A    between atoms: C_15  and  C_16
REMARK    9  A    between atoms: C_16  and  N_17
REMARK                            x       y       z     vdW  Elec       q    Type
REMARK                         _______ _______ _______ _____ _____    ______ ____
ROOT
ATOM      1  C   UNL     1       1.682  -1.059  -1.905  0.00  0.00    +0.107 A 
ATOM      2  C   UNL     1       2.322  -0.108  -2.677  0.00  0.00    +0.030 A 
ATOM      3  C   UNL     1       3.642  -0.286  -3.048  0.00  0.00    +0.027 A 
ATOM      4  C   UNL     1       4.328  -1.422  -2.646  0.00  0.00    +0.048 A 
ATOM      5  C   UNL     1       3.682  -2.382  -1.866  0.00  0.00    +0.048 A 
ATOM      6  C   UNL     1       2.360  -2.192  -1.495  0.00  0.00    +0.053 A 
ENDROOT
BRANCH   1   7
ATOM      7  S   UNL     1      -0.000  -0.824  -1.437  0.00  0.00    +0.060 S 
ATOM      8  O   UNL     1      -0.531  -2.115  -1.167  0.00  0.00    -0.153 OA
ATOM      9  O   UNL     1      -0.572   0.049  -2.401  0.00  0.00    -0.153 OA
BRANCH   7  11
ATOM     10  C   UNL     1      -0.018   1.461   0.010  0.00  0.00    +0.131 C 
ATOM     11  N   UNL     1       0.002  -0.004   0.002  0.00  0.00    -0.183 NA
ATOM     12  C   UNL     1       0.024  -0.743   1.267  0.00  0.00    +0.131 C 
ENDBRANCH   7  11
ENDBRANCH   1   7
BRANCH   5  13
ATOM     13  N   UNL     1       4.369  -3.531  -1.457  0.00  0.00    -0.356 N 
ATOM     14  H   UNL     1       5.295  -3.661  -1.715  0.00  0.00    +0.142 HD
ATOM     15  H   UNL     1       3.919  -4.198  -0.915  0.00  0.00    +0.142 HD
ENDBRANCH   5  13
BRANCH   4  16
ATOM     16  N   UNL     1       5.664  -1.605  -3.021  0.00  0.00    -0.341 N 
ATOM     17  H   UNL     1       6.143  -2.400  -2.738  0.00  0.00    +0.146 HD
BRANCH  16  18
ATOM     18  C   UNL     1       6.340  -0.595  -3.840  0.00  0.00    +0.123 C 
BRANCH  18  19
ATOM     19  C   UNL     1       7.781  -1.036  -4.105  0.00  0.00    +0.141 C 
BRANCH  19  20
ATOM     20  N   UNL     1       8.457  -0.026  -4.924  0.00  0.00    -0.337 N 
ATOM     21  C   UNL     1       8.499   0.015  -6.292  0.00  0.00    +0.104 A 
ATOM     22  C   UNL     1       9.220   1.102  -6.627  0.00  0.00    +0.101 A 
ATOM     23  N   UNL     1       9.607   1.708  -5.495  0.00  0.00    -0.352 N 
ATOM     24  C   UNL     1       9.150   1.041  -4.471  0.00  0.00    +0.173 A 
ATOM     25  H   UNL     1      10.140   2.517  -5.445  0.00  0.00    +0.166 HD
ENDBRANCH  19  20
ENDBRANCH  18  19
ENDBRANCH  16  18
ENDBRANCH   4  16
TORSDOF 7
