REMARK  Name = ZINC36648013
REMARK  9 active torsions:
REMARK  status: ('A' for Active; 'I' for Inactive)
REMARK    1  A    between atoms: C_1  and  C_2
REMARK    2  A    between atoms: N_11  and  C_12
REMARK    3  A    between atoms: C_12  and  C_13
REMARK    4  A    between atoms: C_13  and  N_14
REMARK    5  A    between atoms: N_14  and  C_15
REMARK    6  A    between atoms: N_14  and  C_16
REMARK    7  A    between atoms: C_17  and  C_19
REMARK    8  A    between atoms: N_24  and  S_26
REMARK    9  A    between atoms: S_26  and  C_29
REMARK                            x       y       z     vdW  Elec       q    Type
REMARK                         _______ _______ _______ _____ _____    ______ ____
ROOT
ATOM      1  C   UNL     1      -1.771   1.272   0.074  0.00  0.00    +0.044 C 
ATOM      2  C   UNL     1      -1.593  -0.224   0.088  0.00  0.00    -0.049 A 
ATOM      3  C   UNL     1      -1.922  -0.979  -1.028  0.00  0.00    +0.005 A 
ATOM      4  C   UNL     1      -1.770  -2.341  -1.042  0.00  0.00    +0.029 A 
ATOM      5  C   UNL     1      -1.269  -3.023   0.091  0.00  0.00    +0.080 A 
ATOM      6  C   UNL     1      -0.944  -2.222   1.210  0.00  0.00    +0.041 A 
ATOM      7  C   UNL     1      -1.095  -0.857   1.212  0.00  0.00    +0.020 A 
ATOM      8  S   UNL     1      -0.367  -3.425   2.383  0.00  0.00    -0.052 S 
ATOM      9  C   UNL     1      -0.586  -4.867   1.351  0.00  0.00    +0.168 A 
ATOM     10  N   UNL     1      -1.059  -4.349   0.242  0.00  0.00    -0.224 NA
ATOM     11  N   UNL     1      -0.322  -6.195   1.646  0.00  0.00    -0.252 N 
ATOM     12  C   UNL     1       0.035  -6.549   2.897  0.00  0.00    +0.226 C 
ATOM     13  O   UNL     1       0.368  -7.691   3.132  0.00  0.00    -0.275 OA
ENDROOT
BRANCH  12  14
ATOM     14  C   UNL     1       0.019  -5.526   4.003  0.00  0.00    +0.091 C 
ATOM     15  C   UNL     1       1.354  -4.777   4.024  0.00  0.00    +0.015 C 
ATOM     16  C   UNL     1       1.327  -3.715   5.125  0.00  0.00    +0.018 C 
ATOM     17  C   UNL     1       1.135  -4.398   6.483  0.00  0.00    +0.109 C 
ATOM     18  N   UNL     1      -0.070  -5.237   6.424  0.00  0.00    -0.175 NA
ATOM     19  C   UNL     1      -0.188  -6.230   5.348  0.00  0.00    +0.122 C 
BRANCH  18  20
ATOM     20  S   UNL     1      -1.272  -5.066   7.550  0.00  0.00    +0.067 S 
ATOM     21  O   UNL     1      -1.973  -6.302   7.586  0.00  0.00    -0.152 OA
ATOM     22  O   UNL     1      -0.670  -4.498   8.705  0.00  0.00    -0.152 OA
BRANCH  20  23
ATOM     23  C   UNL     1      -2.401  -3.865   6.928  0.00  0.00    +0.144 A 
ATOM     24  C   UNL     1      -3.502  -4.046   6.159  0.00  0.00    +0.038 A 
ATOM     25  C   UNL     1      -4.248  -2.944   5.785  0.00  0.00    +0.030 A 
ATOM     26  C   UNL     1      -3.856  -1.714   6.200  0.00  0.00    +0.080 A 
ATOM     27  S   UNL     1      -2.396  -2.094   7.155  0.00  0.00    -0.057 S 
ATOM     28 CL   UNL     1      -4.587  -0.170   5.889  0.00  0.00    -0.076 Cl
ENDBRANCH  20  23
ENDBRANCH  18  20
ENDBRANCH  12  14
BRANCH  11  29
ATOM     29  C   UNL     1      -0.431  -7.214   0.599  0.00  0.00    +0.097 C 
BRANCH  29  30
ATOM     30  C   UNL     1       0.889  -7.300  -0.168  0.00  0.00    -0.060 C 
BRANCH  30  31
ATOM     31  N   UNL     1       0.780  -8.322  -1.218  0.00  0.00    +0.377 N 
ATOM     32  C   UNL     1       2.003  -8.322  -2.031  0.00  0.00    -0.097 C 
ATOM     33  C   UNL     1       0.603  -9.643  -0.600  0.00  0.00    -0.097 C 
ATOM     34  H   UNL     1      -0.014  -8.117  -1.806  0.00  0.00    -0.083 HD
ENDBRANCH  30  31
ENDBRANCH  29  30
ENDBRANCH  11  29
TORSDOF 6
