REMARK  Name = ZINC02088984
REMARK  9 active torsions:
REMARK  status: ('A' for Active; 'I' for Inactive)
REMARK    1  A    between atoms: C_1  and  C_2
REMARK    2  A    between atoms: C_2  and  O_3
REMARK    3  A    between atoms: O_3  and  C_4
REMARK    4  A    between atoms: C_4  and  C_6
REMARK    5  A    between atoms: C_10  and  N_11
REMARK    6  A    between atoms: C_13  and  C_24
REMARK    7  A    between atoms: C_17  and  O_22
REMARK    8  A    between atoms: O_22  and  C_23
REMARK    9  A    between atoms: N_26  and  C_27
REMARK                            x       y       z     vdW  Elec       q    Type
REMARK                         _______ _______ _______ _____ _____    ______ ____
ROOT
ATOM      1  N   UNL     1      -3.037  -1.501   3.060  0.00  0.00    -0.319 N 
ATOM      2  C   UNL     1      -3.770  -2.505   3.508  0.00  0.00    +0.212 A 
ATOM      3  C   UNL     1      -3.336  -3.307   4.667  0.00  0.00    +0.098 A 
ATOM      4  C   UNL     1      -4.323  -3.942   5.407  0.00  0.00    +0.030 A 
ATOM      5  C   UNL     1      -5.671  -3.803   4.983  0.00  0.00    +0.022 A 
ATOM      6  C   UNL     1      -6.721  -4.246   5.801  0.00  0.00    +0.057 A 
ATOM      7  C   UNL     1      -8.026  -4.083   5.384  0.00  0.00    +0.121 A 
ATOM      8  C   UNL     1      -8.303  -3.481   4.159  0.00  0.00    +0.049 A 
ATOM      9  C   UNL     1      -7.278  -3.050   3.343  0.00  0.00    +0.050 A 
ATOM     10  C   UNL     1      -5.958  -3.215   3.738  0.00  0.00    +0.138 A 
ATOM     11  O   UNL     1      -4.949  -2.828   2.922  0.00  0.00    -0.439 OA
ATOM     12  H   UNL     1      -2.257  -1.210   3.558  0.00  0.00    +0.169 HD
ENDROOT
BRANCH   1  17
ATOM     13  C   UNL     1      -2.737   0.189   1.271  0.00  0.00    +0.093 A 
ATOM     14  C   UNL     1      -3.313   0.664   0.024  0.00  0.00    -0.021 A 
ATOM     15  C   UNL     1      -4.425   0.025  -0.404  0.00  0.00    -0.004 A 
ATOM     16  S   UNL     1      -4.743  -1.216   0.819  0.00  0.00    -0.075 S 
ATOM     17  C   UNL     1      -3.373  -0.883   1.912  0.00  0.00    +0.095 A 
ATOM     18  C   UNL     1      -5.213   0.312  -1.646  0.00  0.00    +0.043 C 
ATOM     19  C   UNL     1      -4.790   1.687  -2.182  0.00  0.00    +0.005 C 
ATOM     20  C   UNL     1      -3.260   1.754  -2.208  0.00  0.00    +0.005 C 
ATOM     21  C   UNL     1      -2.719   1.817  -0.780  0.00  0.00    +0.037 C 
BRANCH  13  22
ATOM     22  C   UNL     1      -1.571   0.784   1.815  0.00  0.00    +0.342 C 
ATOM     23  O   UNL     1      -0.472   0.361   1.509  0.00  0.00    -0.245 OA
BRANCH  22  24
ATOM     24  O   UNL     1      -1.680   1.820   2.673  0.00  0.00    -0.461 OA
BRANCH  24  26
ATOM     25  C   UNL     1      -0.786   3.527   4.132  0.00  0.00    +0.048 C 
ATOM     26  C   UNL     1      -0.464   2.371   3.183  0.00  0.00    +0.229 C 
ENDBRANCH  24  26
ENDBRANCH  22  24
ENDBRANCH  13  22
ENDBRANCH   1  17
BRANCH   3  27
ATOM     27  C   UNL     1      -1.912  -3.431   5.023  0.00  0.00    +0.253 C 
ATOM     28  O   UNL     1      -1.589  -3.989   6.054  0.00  0.00    -0.270 OA
ATOM     29  N   UNL     1      -0.967  -2.925   4.206  0.00  0.00    -0.281 N 
ATOM     30  H   UNL     1      -1.225  -2.430   3.413  0.00  0.00    +0.155 HD
BRANCH  29  31
ATOM     31  C   UNL     1       0.387  -3.114   4.502  0.00  0.00    +0.034 A 
ATOM     32  C   UNL     1       0.813  -3.144   5.824  0.00  0.00    +0.023 A 
ATOM     33  C   UNL     1       2.150  -3.331   6.113  0.00  0.00    +0.002 A 
ATOM     34  C   UNL     1       3.065  -3.488   5.088  0.00  0.00    +0.000 A 
ATOM     35  C   UNL     1       2.645  -3.458   3.771  0.00  0.00    +0.002 A 
ATOM     36  C   UNL     1       1.308  -3.276   3.475  0.00  0.00    +0.023 A 
ENDBRANCH  29  31
ENDBRANCH   3  27
BRANCH   7  37
ATOM     37  O   UNL     1      -9.047  -4.512   6.173  0.00  0.00    -0.495 OA
ATOM     38  C   UNL     1     -10.374  -4.313   5.682  0.00  0.00    +0.277 C 
ENDBRANCH   7  37
TORSDOF 7
