REMARK  Name = ZINC04702768
REMARK  4 active torsions:
REMARK  status: ('A' for Active; 'I' for Inactive)
REMARK    1  A    between atoms: C_1  and  C_2
REMARK    2  A    between atoms: N_14  and  C_15
REMARK    3  A    between atoms: C_15  and  N_17
REMARK    4  A    between atoms: N_17  and  C_18
REMARK                            x       y       z     vdW  Elec       q    Type
REMARK                         _______ _______ _______ _____ _____    ______ ____
ROOT
ATOM      1  C   UNL     1       3.171  -1.704  -1.673  0.00  0.00    +0.066 C 
ATOM      2  C   UNL     1       1.779  -1.228  -1.346  0.00  0.00    +0.051 A 
ATOM      3  C   UNL     1       1.539   0.117  -1.009  0.00  0.00    +0.022 A 
ATOM      4  C   UNL     1       2.569   1.067  -0.961  0.00  0.00    +0.012 A 
ATOM      5  C   UNL     1       2.279   2.356  -0.628  0.00  0.00    +0.001 A 
ATOM      6  C   UNL     1       0.973   2.743  -0.333  0.00  0.00    +0.002 A 
ATOM      7  C   UNL     1      -0.052   1.846  -0.371  0.00  0.00    +0.028 A 
ATOM      8  C   UNL     1       0.209   0.510  -0.710  0.00  0.00    +0.076 A 
ATOM      9  N   UNL     1      -0.761  -0.411  -0.761  0.00  0.00    -0.212 NA
ATOM     10  C   UNL     1      -0.477  -1.657  -1.084  0.00  0.00    +0.231 A 
ATOM     11  N   UNL     1       0.759  -2.060  -1.370  0.00  0.00    -0.217 NA
ATOM     12  N   UNL     1      -1.507  -2.584  -1.128  0.00  0.00    -0.298 N 
ATOM     13  C   UNL     1      -2.797  -2.196  -0.838  0.00  0.00    +0.172 C 
ATOM     14  N   UNL     1      -3.821  -3.119  -0.881  0.00  0.00    -0.269 N 
ATOM     15  H   UNL     1      -1.319  -3.507  -1.363  0.00  0.00    +0.171 HD
ATOM     16  H   UNL     1      -3.900  -0.610  -0.198  0.00  0.00    +0.158 HD
ATOM     17  H   UNL     1      -3.643  -4.052  -0.680  0.00  0.00    +0.157 HD
ATOM     18  N   UNL     1      -2.989  -0.923  -0.533  0.00  0.00    -0.373 N 
ATOM     19  H   UNL     1      -2.220  -0.249  -0.634  0.00  0.00    +0.158 HD
ENDROOT
BRANCH  14  20
ATOM     20  C   UNL     1      -5.070  -2.726  -1.202  0.00  0.00    +0.141 C 
ATOM     21  S   UNL     1      -5.356  -1.117  -1.712  0.00  0.00    -0.018 S 
BRANCH  20  22
ATOM     22  N   UNL     1      -6.093  -3.599  -1.123  0.00  0.00    -0.297 N 
ATOM     23  H   UNL     1      -5.923  -4.526  -0.894  0.00  0.00    +0.154 HD
BRANCH  22  24
ATOM     24  C   UNL     1      -7.401  -3.169  -1.371  0.00  0.00    +0.033 A 
ATOM     25  C   UNL     1      -8.433  -3.554  -0.525  0.00  0.00    +0.025 A 
ATOM     26  C   UNL     1      -9.722  -3.123  -0.769  0.00  0.00    +0.022 A 
ATOM     27  C   UNL     1      -9.988  -2.317  -1.862  0.00  0.00    +0.041 A 
ATOM     28  C   UNL     1      -8.963  -1.937  -2.710  0.00  0.00    +0.022 A 
ATOM     29  C   UNL     1      -7.671  -2.360  -2.467  0.00  0.00    +0.025 A 
ATOM     30 CL   UNL     1     -11.611  -1.783  -2.169  0.00  0.00    -0.084 Cl
ENDBRANCH  22  24
ENDBRANCH  20  22
ENDBRANCH  14  20
TORSDOF 3
