REMARK  Name = ZINC22824689
REMARK  14 active torsions:
REMARK  status: ('A' for Active; 'I' for Inactive)
REMARK    1  A    between atoms: C_1  and  C_2
REMARK    2  A    between atoms: C_2  and  C_3
REMARK    3  A    between atoms: C_3  and  C_4
REMARK    4  A    between atoms: C_4  and  C_5
REMARK    5  A    between atoms: C_8  and  N_11
REMARK    6  A    between atoms: C_15  and  C_36
REMARK    7  A    between atoms: C_16  and  N_20
REMARK    8  A    between atoms: N_20  and  C_21
REMARK    9  A    between atoms: C_21  and  N_23
REMARK   10  A    between atoms: C_24  and  C_26
REMARK   11  A    between atoms: C_30  and  O_32
REMARK   12  A    between atoms: O_32  and  C_33
REMARK   13  A    between atoms: C_33  and  C_34
REMARK   14  A    between atoms: C_33  and  C_35
REMARK                            x       y       z     vdW  Elec       q    Type
REMARK                         _______ _______ _______ _____ _____    ______ ____
ROOT
ATOM      1  N   UNL     1       0.880  13.450   0.775  0.00  0.00    -0.149 N 
ATOM      2  N   UNL     1       2.153  13.281   0.870  0.00  0.00    -0.147 NA
ATOM      3  C   UNL     1       2.419  11.986   0.808  0.00  0.00    +0.114 A 
ATOM      4  C   UNL     1       3.570  11.179   0.853  0.00  0.00    +0.037 A 
ATOM      5  C   UNL     1       3.447   9.831   0.755  0.00  0.00    -0.027 A 
ATOM      6  C   UNL     1       2.198   9.214   0.610  0.00  0.00    +0.038 A 
ATOM      7  C   UNL     1       1.044   9.942   0.555  0.00  0.00    +0.055 A 
ATOM      8  C   UNL     1       1.105  11.341   0.656  0.00  0.00    +0.115 A 
ATOM      9  N   UNL     1       0.238  12.342   0.649  0.00  0.00    -0.147 NA
ATOM     10  C   UNL     1       4.687   8.975   0.803  0.00  0.00    +0.046 C 
ENDROOT
BRANCH   1  14
ATOM     11  C   UNL     1      -0.962  17.187   0.866  0.00  0.00    -0.047 A 
ATOM     12  C   UNL     1      -1.728  16.044   0.727  0.00  0.00    +0.006 A 
ATOM     13  C   UNL     1      -1.120  14.804   0.696  0.00  0.00    +0.030 A 
ATOM     14  C   UNL     1       0.261  14.706   0.805  0.00  0.00    +0.086 A 
ATOM     15  C   UNL     1       1.026  15.856   0.951  0.00  0.00    +0.030 A 
ATOM     16  C   UNL     1       0.413  17.093   0.974  0.00  0.00    +0.006 A 
BRANCH  11  17
ATOM     17  C   UNL     1      -1.629  18.539   0.898  0.00  0.00    +0.035 C 
BRANCH  17  18
ATOM     18  C   UNL     1      -1.974  18.902   2.344  0.00  0.00    +0.004 C 
BRANCH  18  20
ATOM     19  C   UNL     1      -2.996  20.637   3.823  0.00  0.00    +0.004 C 
ATOM     20  C   UNL     1      -2.651  20.274   2.377  0.00  0.00    -0.003 C 
ENDBRANCH  18  20
ENDBRANCH  17  18
ENDBRANCH  11  17
ENDBRANCH   1  14
BRANCH   6  21
ATOM     21  N   UNL     1       2.131   7.820   0.515  0.00  0.00    -0.296 N 
ATOM     22  H   UNL     1       2.809   7.282  -0.165  0.00  0.00    +0.154 HD
BRANCH  21  23
ATOM     23  C   UNL     1       1.236   7.136   1.255  0.00  0.00    +0.141 C 
ATOM     24  S   UNL     1       0.099   7.978   2.217  0.00  0.00    -0.018 S 
BRANCH  23  25
ATOM     25  N   UNL     1       1.238   5.788   1.238  0.00  0.00    -0.264 N 
ATOM     26  C   UNL     1       0.343   5.104   1.978  0.00  0.00    +0.250 C 
ATOM     27  O   UNL     1      -0.465   5.702   2.661  0.00  0.00    -0.270 OA
ATOM     28  H   UNL     1       1.969   5.247   0.619  0.00  0.00    +0.157 HD
BRANCH  26  29
ATOM     29  C   UNL     1       0.345   3.626   1.959  0.00  0.00    +0.041 A 
ATOM     30  C   UNL     1       1.272   2.936   1.175  0.00  0.00    +0.013 A 
ATOM     31  C   UNL     1       1.270   1.557   1.160  0.00  0.00    +0.004 A 
ATOM     32  C   UNL     1       0.353   0.853   1.919  0.00  0.00    +0.046 A 
ATOM     33  C   UNL     1      -0.576   1.530   2.697  0.00  0.00    +0.122 A 
ATOM     34  C   UNL     1      -0.580   2.915   2.724  0.00  0.00    +0.058 A 
BRANCH  33  35
ATOM     35  O   UNL     1      -1.479   0.834   3.437  0.00  0.00    -0.489 OA
BRANCH  35  36
ATOM     36  C   UNL     1      -1.490  -0.586   3.279  0.00  0.00    +0.167 C 
ATOM     37  C   UNL     1      -0.565  -1.222   4.318  0.00  0.00    +0.051 C 
ATOM     38  C   UNL     1      -2.914  -1.110   3.474  0.00  0.00    +0.051 C 
ENDBRANCH  35  36
ENDBRANCH  33  35
ENDBRANCH  26  29
ENDBRANCH  23  25
ENDBRANCH  21  23
ENDBRANCH   6  21
TORSDOF 10
