REMARK  Name = ZINC36273746
REMARK  9 active torsions:
REMARK  status: ('A' for Active; 'I' for Inactive)
REMARK    1  A    between atoms: C_1  and  C_2
REMARK    2  A    between atoms: C_2  and  C_3
REMARK    3  A    between atoms: C_3  and  C_5
REMARK    4  A    between atoms: C_3  and  N_6
REMARK    5  A    between atoms: C_7  and  C_9
REMARK    6  A    between atoms: C_9  and  O_10
REMARK    7  A    between atoms: O_10  and  C_11
REMARK    8  A    between atoms: C_18  and  C_20
REMARK    9  A    between atoms: C_23  and  N_26
REMARK                            x       y       z     vdW  Elec       q    Type
REMARK                         _______ _______ _______ _____ _____    ______ ____
ROOT
ATOM      1  C   UNL     1       0.210   0.778   7.176  0.00  0.00    +0.162 A 
ATOM      2  C   UNL     1      -1.128   1.023   7.287  0.00  0.00    +0.051 A 
ATOM      3  C   UNL     1      -1.670   1.367   8.536  0.00  0.00    +0.022 A 
ATOM      4  C   UNL     1      -0.875   1.457   9.623  0.00  0.00    +0.093 A 
ATOM      5  N   UNL     1       0.467   1.215   9.529  0.00  0.00    -0.305 N 
ATOM      6  C   UNL     1       1.027   0.870   8.327  0.00  0.00    +0.159 A 
ATOM      7  N   UNL     1       2.326   0.685   8.511  0.00  0.00    -0.337 N 
ATOM      8  C   UNL     1       2.621   0.896   9.803  0.00  0.00    +0.065 A 
ATOM      9  C   UNL     1       1.473   1.237  10.453  0.00  0.00    +0.119 A 
ATOM     10  H   UNL     1       2.962   0.437   7.822  0.00  0.00    +0.167 HD
ENDROOT
BRANCH   8  11
ATOM     11  C   UNL     1       3.969   0.789  10.416  0.00  0.00    -0.000 A 
ATOM     12  C   UNL     1       5.068   0.447   9.629  0.00  0.00    +0.012 A 
ATOM     13  C   UNL     1       6.319   0.349  10.200  0.00  0.00    +0.023 A 
ATOM     14  C   UNL     1       6.484   0.589  11.559  0.00  0.00    +0.025 A 
ATOM     15  C   UNL     1       5.389   0.930  12.345  0.00  0.00    +0.023 A 
ATOM     16  C   UNL     1       4.138   1.035  11.777  0.00  0.00    +0.012 A 
BRANCH  14  17
ATOM     17  N   UNL     1       7.752   0.488  12.136  0.00  0.00    -0.358 N 
ATOM     18  H   UNL     1       8.516   0.250  11.588  0.00  0.00    +0.142 HD
ATOM     19  H   UNL     1       7.868   0.656  13.084  0.00  0.00    +0.142 HD
ENDBRANCH  14  17
ENDBRANCH   8  11
BRANCH   1  20
ATOM     20  O   UNL     1       0.750   0.443   5.975  0.00  0.00    -0.479 OA
BRANCH  20  21
ATOM     21  C   UNL     1      -0.142   0.370   4.861  0.00  0.00    +0.324 C 
BRANCH  21  23
ATOM     22  N   UNL     1      -0.008  -0.140   2.444  0.00  0.00    -0.310 N 
ATOM     23  C   UNL     1       0.630  -0.011   3.624  0.00  0.00    +0.251 C 
ATOM     24  O   UNL     1       1.826  -0.202   3.690  0.00  0.00    -0.272 OA
ATOM     25  H   UNL     1      -0.965   0.013   2.391  0.00  0.00    +0.149 HD
BRANCH  22  26
ATOM     26  C   UNL     1       0.742  -0.511   1.242  0.00  0.00    +0.070 C 
ATOM     27  C   UNL     1       0.872  -2.034   1.171  0.00  0.00    +0.028 C 
BRANCH  26  29
ATOM     28  C   UNL     1      -0.019   1.526   0.010  0.00  0.00    +0.005 C 
ATOM     29  C   UNL     1       0.002  -0.004   0.002  0.00  0.00    +0.018 C 
ENDBRANCH  26  29
ENDBRANCH  22  26
ENDBRANCH  21  23
ENDBRANCH  20  21
ENDBRANCH   1  20
TORSDOF 7
