REMARK  Name = ZINC08414526
REMARK  7 active torsions:
REMARK  status: ('A' for Active; 'I' for Inactive)
REMARK    1  A    between atoms: C_1  and  C_2
REMARK    2  A    between atoms: C_9  and  C_11
REMARK    3  A    between atoms: C_14  and  N_17
REMARK    4  A    between atoms: C_21  and  N_68
REMARK    5  A    between atoms: C_25  and  C_27
REMARK    6  A    between atoms: C_25  and  C_28
REMARK    7  A    between atoms: C_25  and  N_68
REMARK                            x       y       z     vdW  Elec       q    Type
REMARK                         _______ _______ _______ _____ _____    ______ ____
ROOT
ATOM      1  N   UNL     1       8.613   1.612  -0.990  0.00  0.00    -0.212 N 
ATOM      2  C   UNL     1       8.674   0.421  -0.381  0.00  0.00    +0.225 C 
ATOM      3  O   UNL     1       7.741  -0.338  -0.229  0.00  0.00    -0.275 OA
ATOM      4  C   UNL     1      10.091   0.175   0.089  0.00  0.00    +0.090 C 
ATOM      5  C   UNL     1      10.846   1.442  -0.360  0.00  0.00    +0.026 C 
ATOM      6  C   UNL     1       9.778   2.269  -1.041  0.00  0.00    +0.213 C 
ATOM      7  O   UNL     1       9.949   3.356  -1.549  0.00  0.00    -0.277 OA
ENDROOT
BRANCH   1  11
ATOM      8  C   UNL     1       5.088   3.138  -2.615  0.00  0.00    +0.007 A 
ATOM      9  C   UNL     1       5.684   2.008  -3.176  0.00  0.00    +0.012 A 
ATOM     10  C   UNL     1       6.852   1.509  -2.640  0.00  0.00    +0.024 A 
ATOM     11  C   UNL     1       7.430   2.124  -1.536  0.00  0.00    +0.044 A 
ATOM     12  C   UNL     1       6.835   3.246  -0.971  0.00  0.00    +0.024 A 
ATOM     13  C   UNL     1       5.670   3.753  -1.505  0.00  0.00    +0.012 A 
BRANCH   8  22
ATOM     14  C   UNL     1      -1.553   5.958  -5.729  0.00  0.00    +0.044 C 
ATOM     15  C   UNL     1      -0.311   5.651  -4.932  0.00  0.00    -0.049 A 
ATOM     16  C   UNL     1       0.040   6.442  -3.847  0.00  0.00    +0.005 A 
ATOM     17  C   UNL     1       1.157   6.193  -3.113  0.00  0.00    +0.029 A 
ATOM     18  C   UNL     1       2.003   5.102  -3.426  0.00  0.00    +0.079 A 
ATOM     19  C   UNL     1       1.616   4.311  -4.534  0.00  0.00    +0.040 A 
ATOM     20  C   UNL     1       0.488   4.575  -5.272  0.00  0.00    +0.020 A 
ATOM     21  S   UNL     1       2.901   3.086  -4.592  0.00  0.00    -0.067 S 
ATOM     22  C   UNL     1       3.838   3.679  -3.191  0.00  0.00    +0.109 A 
ATOM     23  N   UNL     1       3.134   4.719  -2.802  0.00  0.00    -0.239 NA
ENDBRANCH   8  22
ENDBRANCH   1  11
BRANCH   5  24
ATOM     24  N   UNL     1      11.915   1.090  -1.314  0.00  0.00    +0.389 N 
ATOM     25  H   UNL     1      11.523   1.051  -2.262  0.00  0.00    -0.084 HD
ATOM     26  H   UNL     1      12.302   0.172  -1.065  0.00  0.00    -0.084 HD
BRANCH  24  27
ATOM     27  C   UNL     1      12.991   2.098  -1.273  0.00  0.00    -0.068 C 
ATOM     28  C   UNL     1      13.169   2.704  -2.667  0.00  0.00    -0.013 C 
BRANCH  27  29
ATOM     29  C   UNL     1      14.295   1.428  -0.837  0.00  0.00    -0.041 C 
ATOM     30  C   UNL     1      14.646   0.308  -1.819  0.00  0.00    +0.009 C 
ATOM     31  C   UNL     1      15.951  -0.362  -1.383  0.00  0.00    -0.010 C 
ATOM     32  C   UNL     1      17.076   0.675  -1.369  0.00  0.00    +0.007 C 
ATOM     33  C   UNL     1      16.726   1.795  -0.387  0.00  0.00    -0.010 C 
ATOM     34  C   UNL     1      15.421   2.465  -0.823  0.00  0.00    +0.009 C 
ATOM     35  C   UNL     1      16.554   1.209   1.016  0.00  0.00    +0.007 C 
ATOM     36  C   UNL     1      15.429   0.172   1.002  0.00  0.00    -0.010 C 
ATOM     37  C   UNL     1      15.780  -0.948   0.020  0.00  0.00    +0.007 C 
ATOM     38  C   UNL     1      14.124   0.842   0.566  0.00  0.00    +0.009 C 
ENDBRANCH  27  29
ENDBRANCH  24  27
ENDBRANCH   5  24
TORSDOF 5
