REMARK  Name = ZINC52094670
REMARK  8 active torsions:
REMARK  status: ('A' for Active; 'I' for Inactive)
REMARK    1  A    between atoms: C_1  and  C_2
REMARK    2  A    between atoms: C_2  and  C_3
REMARK    3  A    between atoms: C_3  and  C_5
REMARK    4  A    between atoms: C_3  and  C_6
REMARK    5  A    between atoms: C_6  and  C_8
REMARK    6  A    between atoms: C_6  and  N_21
REMARK    7  A    between atoms: N_21  and  C_22
REMARK    8  A    between atoms: C_22  and  C_23
REMARK                            x       y       z     vdW  Elec       q    Type
REMARK                         _______ _______ _______ _____ _____    ______ ____
ROOT
ATOM      1  C   UNL     1      -2.829  -2.568  -0.234  0.00  0.00    -0.045 A 
ATOM      2  C   UNL     1      -3.497  -2.999   0.896  0.00  0.00    +0.031 A 
ATOM      3  C   UNL     1      -4.797  -3.469   0.792  0.00  0.00    +0.067 A 
ATOM      4  C   UNL     1      -5.426  -3.505  -0.454  0.00  0.00    +0.068 A 
ATOM      5  C   UNL     1      -4.749  -3.071  -1.583  0.00  0.00    +0.043 A 
ATOM      6  C   UNL     1      -3.455  -2.599  -1.469  0.00  0.00    +0.022 A 
ATOM      7 BR   UNL     1      -2.533  -1.998  -3.007  0.00  0.00    -0.050 Br
ATOM      8  N   UNL     1      -6.705  -4.017  -0.245  0.00  0.00    -0.306 N 
ATOM      9  H   UNL     1      -7.378  -4.160  -0.928  0.00  0.00    +0.170 HD
ATOM     10  C   UNL     1      -6.847  -4.280   1.068  0.00  0.00    +0.325 A 
ATOM     11  O   UNL     1      -7.848  -4.738   1.587  0.00  0.00    -0.247 OA
ATOM     12  N   UNL     1      -5.713  -3.960   1.720  0.00  0.00    -0.306 N 
ATOM     13  H   UNL     1      -5.560  -4.056   2.673  0.00  0.00    +0.170 HD
ENDROOT
BRANCH   1  14
ATOM     14  C   UNL     1      -1.416  -2.058  -0.121  0.00  0.00    -0.037 C 
BRANCH  14  15
ATOM     15  N   UNL     1      -0.775  -2.646   1.063  0.00  0.00    +0.384 N 
ATOM     16  H   UNL     1       0.141  -2.242   1.185  0.00  0.00    -0.085 HD
ATOM     17  H   UNL     1      -1.338  -2.456   1.879  0.00  0.00    -0.085 HD
BRANCH  15  18
ATOM     18  C   UNL     1      -0.650  -4.098   0.881  0.00  0.00    -0.085 C 
ATOM     19  C   UNL     1       0.016  -4.711   2.114  0.00  0.00    -0.017 C 
ENDBRANCH  15  18
ENDBRANCH  14  15
BRANCH  14  20
ATOM     20  C   UNL     1      -1.433  -0.534   0.013  0.00  0.00    -0.024 C 
ATOM     21  C   UNL     1      -2.110  -0.145   1.329  0.00  0.00    +0.006 C 
BRANCH  20  23
ATOM     22  C   UNL     1      -0.019   1.526   0.010  0.00  0.00    +0.004 C 
ATOM     23  C   UNL     1       0.002  -0.004   0.002  0.00  0.00    -0.002 C 
ENDBRANCH  20  23
ENDBRANCH  14  20
ENDBRANCH   1  14
TORSDOF 5
