REMARK  Name = ZINC23259802
REMARK  15 active torsions:
REMARK  status: ('A' for Active; 'I' for Inactive)
REMARK    1  A    between atoms: C_1  and  C_2
REMARK    2  A    between atoms: C_2  and  C_4
REMARK    3  A    between atoms: C_2  and  N_14
REMARK    4  A    between atoms: C_7  and  S_10
REMARK    5  A    between atoms: S_10  and  N_13
REMARK    6  A    between atoms: N_14  and  C_15
REMARK    7  A    between atoms: N_14  and  C_16
REMARK    8  A    between atoms: C_16  and  C_17
REMARK    9  A    between atoms: N_19  and  C_20
REMARK   10  A    between atoms: C_22  and  S_28
REMARK   11  A    between atoms: C_25  and  O_26
REMARK   12  A    between atoms: O_26  and  C_27
REMARK   13  A    between atoms: S_28  and  N_31
REMARK   14  A    between atoms: N_31  and  C_32
REMARK   15  A    between atoms: N_31  and  C_33
REMARK                            x       y       z     vdW  Elec       q    Type
REMARK                         _______ _______ _______ _____ _____    ______ ____
ROOT
ATOM      1  C   UNL     1      -4.342   4.836   5.692  0.00  0.00    +0.019 C 
ENDROOT
BRANCH   1   2
ATOM      2  C   UNL     1      -4.895   6.189   5.323  0.00  0.00    +0.201 C 
ATOM      3  O   UNL     1      -4.595   6.698   4.264  0.00  0.00    -0.278 OA
ATOM      4  N   UNL     1      -5.722   6.832   6.170  0.00  0.00    -0.284 N 
ATOM      5  H   UNL     1      -6.047   6.342   7.100  0.00  0.00    +0.155 HD
BRANCH   4   6
ATOM      6  C   UNL     1      -6.168   8.126   5.867  0.00  0.00    +0.077 A 
ATOM      7  C   UNL     1      -6.404   8.489   4.549  0.00  0.00    +0.055 A 
ATOM      8  C   UNL     1      -6.844   9.765   4.252  0.00  0.00    +0.107 A 
ATOM      9  C   UNL     1      -7.050  10.682   5.266  0.00  0.00    +0.032 A 
ATOM     10  C   UNL     1      -6.817  10.328   6.582  0.00  0.00    +0.049 A 
ATOM     11  C   UNL     1      -6.381   9.049   6.888  0.00  0.00    +0.141 A 
BRANCH   8  12
ATOM     12  S   UNL     1      -7.144  10.224   2.578  0.00  0.00    +0.060 S 
ATOM     13  O   UNL     1      -7.026  11.639   2.517  0.00  0.00    -0.153 OA
ATOM     14  O   UNL     1      -6.355   9.358   1.772  0.00  0.00    -0.153 OA
BRANCH  12  15
ATOM     15  N   UNL     1      -8.726   9.866   2.248  0.00  0.00    -0.183 NA
ATOM     16  C   UNL     1      -9.768  10.869   2.481  0.00  0.00    +0.131 C 
ATOM     17  C   UNL     1      -9.085   8.546   1.722  0.00  0.00    +0.131 C 
ENDBRANCH  12  15
ENDBRANCH   8  12
BRANCH  11  18
ATOM     18  O   UNL     1      -6.157   8.697   8.182  0.00  0.00    -0.493 OA
ATOM     19  C   UNL     1      -6.396   9.694   9.177  0.00  0.00    +0.277 C 
ENDBRANCH  11  18
ENDBRANCH   4   6
ENDBRANCH   1   2
BRANCH   1  20
ATOM     20  N   UNL     1      -3.474   4.351   4.610  0.00  0.00    +0.388 N 
ATOM     21  C   UNL     1      -2.278   5.193   4.477  0.00  0.00    -0.095 C 
ATOM     22  H   UNL     1      -4.039   4.415   3.669  0.00  0.00    -0.081 HD
BRANCH  20  24
ATOM     23  C   UNL     1      -2.107   2.511   3.747  0.00  0.00    -0.008 C 
ATOM     24  C   UNL     1      -3.107   2.944   4.822  0.00  0.00    -0.041 C 
BRANCH  24  25
ATOM     25  C   UNL     1      -4.341   2.084   4.735  0.00  0.00    -0.061 A 
ATOM     26  C   UNL     1      -4.472   0.978   5.553  0.00  0.00    +0.004 A 
ATOM     27  C   UNL     1      -5.604   0.189   5.474  0.00  0.00    +0.029 A 
ATOM     28  C   UNL     1      -6.606   0.506   4.575  0.00  0.00    +0.105 A 
ATOM     29  C   UNL     1      -6.473   1.609   3.753  0.00  0.00    +0.029 A 
ATOM     30  C   UNL     1      -5.343   2.401   3.837  0.00  0.00    +0.004 A 
BRANCH  28  31
ATOM     31  S   UNL     1      -8.049  -0.500   4.473  0.00  0.00    +0.056 S 
ATOM     32  O   UNL     1      -7.684  -1.784   4.960  0.00  0.00    -0.153 OA
ATOM     33  O   UNL     1      -8.590  -0.303   3.174  0.00  0.00    -0.153 OA
BRANCH  31  34
ATOM     34  N   UNL     1      -9.152   0.116   5.544  0.00  0.00    -0.204 NA
ATOM     35  H   UNL     1     -10.072  -0.486   5.511  0.00  0.00    +0.144 HD
ATOM     36  H   UNL     1      -9.385   1.156   5.272  0.00  0.00    +0.144 HD
ENDBRANCH  31  34
ENDBRANCH  28  31
ENDBRANCH  24  25
ENDBRANCH  20  24
ENDBRANCH   1  20
TORSDOF 10
