REMARK  Name = ZINC21127045
REMARK  9 active torsions:
REMARK  status: ('A' for Active; 'I' for Inactive)
REMARK    1  A    between atoms: C_1  and  C_2
REMARK    2  A    between atoms: C_2  and  C_4
REMARK    3  A    between atoms: C_2  and  S_15
REMARK    4  A    between atoms: N_6  and  C_7
REMARK    5  A    between atoms: S_15  and  C_16
REMARK    6  A    between atoms: C_19  and  C_22
REMARK    7  A    between atoms: N_20  and  N_21
REMARK    8  A    between atoms: C_25  and  O_28
REMARK    9  A    between atoms: O_28  and  C_29
REMARK                            x       y       z     vdW  Elec       q    Type
REMARK                         _______ _______ _______ _____ _____    ______ ____
ROOT
ATOM      1  C   UNL     1       5.046   8.287   0.289  0.00  0.00    +0.209 A 
ATOM      2  N   UNL     1       6.092   7.617  -0.139  0.00  0.00    -0.121 NA
ATOM      3  N   UNL     1       7.141   8.358  -0.089  0.00  0.00    -0.127 NA
ATOM      4  C   UNL     1       6.830   9.546   0.373  0.00  0.00    +0.182 A 
ATOM      5  N   UNL     1       5.477   9.539   0.625  0.00  0.00    -0.224 N 
ENDROOT
BRANCH   4   6
ATOM      6  C   UNL     1       7.756  10.680   0.579  0.00  0.00    +0.021 A 
ATOM      7  C   UNL     1       7.364  11.772   1.354  0.00  0.00    +0.015 A 
ATOM      8  C   UNL     1       8.232  12.825   1.547  0.00  0.00    +0.046 A 
ATOM      9  C   UNL     1       9.492  12.805   0.964  0.00  0.00    +0.127 A 
ATOM     10  C   UNL     1       9.884  11.722   0.188  0.00  0.00    +0.046 A 
ATOM     11  C   UNL     1       9.023  10.663  -0.006  0.00  0.00    +0.015 A 
BRANCH   9  12
ATOM     12  O   UNL     1      10.343  13.847   1.152  0.00  0.00    -0.434 OA
BRANCH  12  13
ATOM     13  C   UNL     1       9.876  14.928   1.961  0.00  0.00    +0.541 C 
ATOM     14  F   UNL     1       8.727  15.480   1.384  0.00  0.00    -0.166 F 
ATOM     15  F   UNL     1       9.572  14.454   3.242  0.00  0.00    -0.166 F 
ENDBRANCH  12  13
ENDBRANCH   9  12
ENDBRANCH   4   6
BRANCH   5  16
ATOM     16  N   UNL     1       4.723  10.569   1.112  0.00  0.00    -0.295 N 
ATOM     17  H   UNL     1       5.195  11.535   1.345  0.00  0.00    +0.163 HD
ATOM     18  H   UNL     1       3.643  10.432   1.272  0.00  0.00    +0.163 HD
ENDBRANCH   5  16
BRANCH   1  19
ATOM     19  S   UNL     1       3.394   7.685   0.402  0.00  0.00    -0.072 S 
BRANCH  19  21
ATOM     20  C   UNL     1       4.058   6.050  -1.683  0.00  0.00    +0.029 C 
ATOM     21  C   UNL     1       3.630   6.000  -0.215  0.00  0.00    +0.137 C 
BRANCH  21  22
ATOM     22  C   UNL     1       2.338   5.235  -0.093  0.00  0.00    +0.230 C 
ATOM     23  O   UNL     1       1.280   5.828  -0.081  0.00  0.00    -0.274 OA
ATOM     24  N   UNL     1       2.357   3.890   0.001  0.00  0.00    -0.283 N 
ATOM     25  H   UNL     1       3.317   3.358   0.081  0.00  0.00    +0.155 HD
BRANCH  24  26
ATOM     26  C   UNL     1       1.156   3.171  -0.003  0.00  0.00    +0.053 A 
ATOM     27  C   UNL     1       0.024   3.711  -0.598  0.00  0.00    +0.044 A 
ATOM     28  C   UNL     1      -1.161   2.999  -0.600  0.00  0.00    +0.043 A 
ATOM     29  C   UNL     1      -1.217   1.746  -0.014  0.00  0.00    +0.021 A 
ATOM     30  C   UNL     1      -0.093   1.208   0.583  0.00  0.00    +0.023 A 
ATOM     31  C   UNL     1       1.095   1.915   0.589  0.00  0.00    +0.062 A 
ATOM     32 CL   UNL     1       2.508   1.236   1.334  0.00  0.00    -0.082 Cl
ATOM     33 CL   UNL     1      -2.577   3.673  -1.343  0.00  0.00    -0.083 Cl
ENDBRANCH  24  26
ENDBRANCH  21  22
ENDBRANCH  19  21
ENDBRANCH   1  19
TORSDOF 8
