REMARK  Name = ZINC03065480
REMARK  8 active torsions:
REMARK  status: ('A' for Active; 'I' for Inactive)
REMARK    1  A    between atoms: C_3  and  N_24
REMARK    2  A    between atoms: C_6  and  C_7
REMARK    3  A    between atoms: C_7  and  C_8
REMARK    4  A    between atoms: C_11  and  N_14
REMARK    5  A    between atoms: N_14  and  C_15
REMARK    6  A    between atoms: C_15  and  C_16
REMARK    7  A    between atoms: N_24  and  C_25
REMARK    8  A    between atoms: C_25  and  C_26
REMARK                            x       y       z     vdW  Elec       q    Type
REMARK                         _______ _______ _______ _____ _____    ______ ____
ROOT
ATOM      1  C   UNL     1       1.224  -2.188  -0.022  0.00  0.00    +0.070 C 
ENDROOT
BRANCH   1   7
ATOM      2  C   UNL     1       0.002  -0.004   0.002  0.00  0.00    +0.006 A 
ATOM      3  C   UNL     1      -0.017   1.377   0.010  0.00  0.00    +0.023 A 
ATOM      4  C   UNL     1       1.178   2.086   0.002  0.00  0.00    +0.027 A 
ATOM      5  C   UNL     1       2.387   1.403  -0.013  0.00  0.00    +0.023 A 
ATOM      6  C   UNL     1       2.399   0.022  -0.021  0.00  0.00    +0.006 A 
ATOM      7  C   UNL     1       1.208  -0.681  -0.014  0.00  0.00    -0.043 A 
BRANCH   4   8
ATOM      8  N   UNL     1       1.162   3.483   0.009  0.00  0.00    -0.342 N 
ATOM      9  H   UNL     1       0.317   3.958   0.019  0.00  0.00    +0.146 HD
BRANCH   8  10
ATOM     10  C   UNL     1       2.423   4.229   0.001  0.00  0.00    +0.125 C 
BRANCH  10  11
ATOM     11  C   UNL     1       2.127   5.730   0.011  0.00  0.00    +0.156 C 
ATOM     12  C   UNL     1       3.411   6.548   0.004  0.00  0.00    +0.233 C 
ATOM     13  O   UNL     1       4.205   6.499  -0.912  0.00  0.00    -0.274 OA
ATOM     14  N   UNL     1       3.601   7.315   1.064  0.00  0.00    -0.273 N 
ATOM     15  C   UNL     1       2.734   7.385   2.091  0.00  0.00    +0.114 C 
ATOM     16  S   UNL     1       2.857   8.329   3.514  0.00  0.00    -0.028 S 
ATOM     17  S   UNL     1       1.425   6.262   1.624  0.00  0.00    -0.088 S 
ATOM     18  H   UNL     1       4.406   7.854   1.103  0.00  0.00    +0.156 HD
ENDBRANCH  10  11
ENDBRANCH   8  10
ENDBRANCH   4   8
ENDBRANCH   1   7
BRANCH   1  19
ATOM     19  C   UNL     1       1.216  -2.682  -1.445  0.00  0.00    -0.043 A 
ATOM     20  C   UNL     1       0.014  -2.927  -2.083  0.00  0.00    +0.006 A 
ATOM     21  C   UNL     1       0.002  -3.376  -3.389  0.00  0.00    +0.023 A 
ATOM     22  C   UNL     1       1.200  -3.591  -4.059  0.00  0.00    +0.027 A 
ATOM     23  C   UNL     1       2.406  -3.349  -3.413  0.00  0.00    +0.023 A 
ATOM     24  C   UNL     1       2.410  -2.896  -2.109  0.00  0.00    +0.006 A 
BRANCH  22  25
ATOM     25  N   UNL     1       1.192  -4.050  -5.378  0.00  0.00    -0.342 N 
ATOM     26  H   UNL     1       2.029  -4.199  -5.845  0.00  0.00    +0.146 HD
BRANCH  25  27
ATOM     27  C   UNL     1      -0.081  -4.305  -6.057  0.00  0.00    +0.125 C 
BRANCH  27  28
ATOM     28  C   UNL     1       0.190  -4.795  -7.481  0.00  0.00    +0.156 C 
ATOM     29  C   UNL     1      -1.107  -5.074  -8.227  0.00  0.00    +0.233 C 
ATOM     30  O   UNL     1      -1.921  -4.205  -8.458  0.00  0.00    -0.274 OA
ATOM     31  N   UNL     1      -1.285  -6.328  -8.605  0.00  0.00    -0.273 N 
ATOM     32  C   UNL     1      -0.396  -7.308  -8.360  0.00  0.00    +0.114 C 
ATOM     33  S   UNL     1      -0.502  -8.962  -8.790  0.00  0.00    -0.028 S 
ATOM     34  S   UNL     1       0.920  -6.481  -7.479  0.00  0.00    -0.088 S 
ATOM     35  H   UNL     1      -2.098  -6.553  -9.084  0.00  0.00    +0.156 HD
ENDBRANCH  27  28
ENDBRANCH  25  27
ENDBRANCH  22  25
ENDBRANCH   1  19
TORSDOF 8
