REMARK  Name = ZINC09674061
REMARK  10 active torsions:
REMARK  status: ('A' for Active; 'I' for Inactive)
REMARK    1  A    between atoms: C_1  and  N_2
REMARK    2  A    between atoms: N_13  and  C_30
REMARK    3  A    between atoms: C_15  and  C_16
REMARK    4  A    between atoms: N_18  and  C_19
REMARK    5  A    between atoms: C_19  and  C_20
REMARK    6  A    between atoms: C_20  and  C_21
REMARK    7  A    between atoms: C_21  and  N_72
REMARK    8  A    between atoms: C_22  and  N_72
REMARK    9  A    between atoms: C_23  and  C_24
REMARK   10  A    between atoms: C_23  and  N_72
REMARK                            x       y       z     vdW  Elec       q    Type
REMARK                         _______ _______ _______ _____ _____    ______ ____
ROOT
ATOM      1  C   UNL     1      -2.841  -4.067   0.266  0.00  0.00    +0.149 C 
ATOM      2  N   UNL     1      -2.486  -2.646   0.237  0.00  0.00    -0.339 N 
ATOM      3  C   UNL     1      -3.385  -1.606   0.327  0.00  0.00    +0.050 A 
ATOM      4  C   UNL     1      -4.771  -1.568   0.462  0.00  0.00    +0.026 A 
ATOM      5  C   UNL     1      -5.421  -0.356   0.528  0.00  0.00    +0.002 A 
ATOM      6  C   UNL     1      -4.708   0.833   0.462  0.00  0.00    +0.001 A 
ATOM      7  C   UNL     1      -3.349   0.820   0.331  0.00  0.00    +0.010 A 
ATOM      8  C   UNL     1      -2.668  -0.398   0.261  0.00  0.00    +0.009 A 
ATOM      9  C   UNL     1      -1.256  -0.763   0.129  0.00  0.00    +0.026 A 
ATOM     10  C   UNL     1      -1.200  -2.154   0.113  0.00  0.00    +0.116 A 
ATOM     11  C   UNL     1       0.062  -2.778  -0.011  0.00  0.00    +0.276 A 
ATOM     12  O   UNL     1       0.134  -3.995  -0.021  0.00  0.00    -0.265 OA
ATOM     13  N   UNL     1       1.184  -2.046  -0.117  0.00  0.00    -0.310 N 
ATOM     14  C   UNL     1       1.170  -0.692  -0.112  0.00  0.00    +0.103 A 
ATOM     15  C   UNL     1      -0.006  -0.004   0.004  0.00  0.00    +0.063 A 
ENDROOT
BRANCH  13  16
ATOM     16  C   UNL     1       2.469  -2.738  -0.243  0.00  0.00    +0.090 C 
ATOM     17  C   UNL     1       3.376  -2.346   0.926  0.00  0.00    +0.025 C 
ATOM     18  C   UNL     1       4.718  -3.069   0.794  0.00  0.00    +0.002 C 
ATOM     19  C   UNL     1       5.384  -2.671  -0.524  0.00  0.00    +0.000 C 
ATOM     20  C   UNL     1       4.478  -3.063  -1.693  0.00  0.00    +0.002 C 
ATOM     21  C   UNL     1       3.135  -2.340  -1.561  0.00  0.00    +0.025 C 
ENDBRANCH  13  16
BRANCH  15  22
ATOM     22  C   UNL     1      -0.018   1.468   0.010  0.00  0.00    +0.246 C 
ATOM     23  O   UNL     1      -1.076   2.068  -0.009  0.00  0.00    -0.270 OA
ATOM     24  N   UNL     1       1.143   2.151   0.042  0.00  0.00    -0.311 N 
ATOM     25  H   UNL     1       1.987   1.676  -0.013  0.00  0.00    +0.149 HD
BRANCH  24  26
ATOM     26  C   UNL     1       1.131   3.611   0.160  0.00  0.00    +0.102 C 
BRANCH  26  27
ATOM     27  C   UNL     1       2.570   4.134   0.174  0.00  0.00    +0.000 C 
BRANCH  27  28
ATOM     28  C   UNL     1       2.557   5.659   0.297  0.00  0.00    -0.077 C 
BRANCH  28  30
ATOM     29  C   UNL     1       4.598   5.919  -0.980  0.00  0.00    -0.096 C 
ATOM     30  N   UNL     1       3.952   6.146   0.330  0.00  0.00    +0.381 N 
ATOM     31  H   UNL     1       4.469   5.628   1.051  0.00  0.00    -0.082 HD
BRANCH  30  32
ATOM     32  C   UNL     1       3.977   7.586   0.663  0.00  0.00    -0.043 C 
BRANCH  32  33
ATOM     33  C   UNL     1       5.404   8.004   0.907  0.00  0.00    -0.064 A 
ATOM     34  C   UNL     1       5.942   7.918   2.177  0.00  0.00    +0.002 A 
ATOM     35  C   UNL     1       7.252   8.297   2.400  0.00  0.00    +0.000 A 
ATOM     36  C   UNL     1       8.022   8.772   1.354  0.00  0.00    +0.000 A 
ATOM     37  C   UNL     1       7.482   8.864   0.085  0.00  0.00    +0.000 A 
ATOM     38  C   UNL     1       6.173   8.479  -0.139  0.00  0.00    +0.002 A 
ENDBRANCH  32  33
ENDBRANCH  30  32
ENDBRANCH  28  30
ENDBRANCH  27  28
ENDBRANCH  26  27
ENDBRANCH  24  26
ENDBRANCH  15  22
TORSDOF 8
