REMARK  Name = ZINC41023356
REMARK  4 active torsions:
REMARK  status: ('A' for Active; 'I' for Inactive)
REMARK    1  A    between atoms: C_3  and  S_11
REMARK    2  A    between atoms: C_4  and  N_10
REMARK    3  A    between atoms: S_11  and  C_12
REMARK    4  A    between atoms: C_16  and  N_18
REMARK                            x       y       z     vdW  Elec       q    Type
REMARK                         _______ _______ _______ _____ _____    ______ ____
ROOT
ATOM      1  S   UNL     1       3.897   2.272  -0.023  0.00  0.00    -0.048 S 
ENDROOT
BRANCH   1   4
ATOM      2  C   UNL     1      -0.013   1.357  -0.114  0.00  0.00    +0.018 A 
ATOM      3  C   UNL     1       1.178   2.060  -0.123  0.00  0.00    +0.018 A 
ATOM      4  C   UNL     1       2.382   1.372  -0.012  0.00  0.00    +0.038 A 
ATOM      5  C   UNL     1       2.412  -0.007   0.106  0.00  0.00    +0.065 A 
ATOM      6  C   UNL     1       1.208  -0.748   0.117  0.00  0.00    +0.100 A 
ATOM      7  C   UNL     1       0.007  -0.012   0.003  0.00  0.00    +0.041 A 
ATOM      8  S   UNL     1      -1.217  -1.296   0.059  0.00  0.00    -0.075 S 
ATOM      9  C   UNL     1      -0.175  -2.608   0.215  0.00  0.00    +0.157 A 
ATOM     10  N   UNL     1       1.013  -2.079   0.222  0.00  0.00    -0.246 NA
BRANCH   5  11
ATOM     11  N   UNL     1       3.640  -0.670   0.215  0.00  0.00    -0.355 N 
ATOM     12  H   UNL     1       4.467  -0.164   0.207  0.00  0.00    +0.142 HD
ATOM     13  H   UNL     1       3.663  -1.637   0.297  0.00  0.00    +0.142 HD
ENDBRANCH   5  11
ENDBRANCH   1   4
BRANCH   1  14
ATOM     14  C   UNL     1       4.546   1.994  -1.637  0.00  0.00    +0.196 A 
ATOM     15  N   UNL     1       3.816   1.329  -2.521  0.00  0.00    -0.207 NA
ATOM     16  C   UNL     1       4.274   1.100  -3.749  0.00  0.00    +0.122 A 
ATOM     17  C   UNL     1       5.537   1.570  -4.100  0.00  0.00    +0.086 A 
ATOM     18  C   UNL     1       6.274   2.265  -3.146  0.00  0.00    +0.122 A 
ATOM     19  N   UNL     1       5.749   2.461  -1.938  0.00  0.00    -0.207 NA
ATOM     20  N   UNL     1       3.504   0.403  -4.667  0.00  0.00    -0.343 N 
ATOM     21  H   UNL     1       2.626   0.078  -4.416  0.00  0.00    +0.144 HD
ATOM     22  H   UNL     1       3.844   0.240  -5.561  0.00  0.00    +0.144 HD
BRANCH  18  23
ATOM     23  N   UNL     1       7.536   2.751  -3.450  0.00  0.00    -0.343 N 
ATOM     24  H   UNL     1       7.910   2.608  -4.333  0.00  0.00    +0.144 HD
ATOM     25  H   UNL     1       8.044   3.235  -2.780  0.00  0.00    +0.144 HD
ENDBRANCH  18  23
ENDBRANCH   1  14
TORSDOF 4
