REMARK  Name = ZINC20896232
REMARK  6 active torsions:
REMARK  status: ('A' for Active; 'I' for Inactive)
REMARK    1  A    between atoms: C_1  and  C_2
REMARK    2  A    between atoms: C_2  and  C_4
REMARK    3  A    between atoms: C_2  and  S_10
REMARK    4  A    between atoms: S_10  and  C_11
REMARK    5  A    between atoms: C_15  and  C_18
REMARK    6  A    between atoms: N_25  and  C_26
REMARK                            x       y       z     vdW  Elec       q    Type
REMARK                         _______ _______ _______ _____ _____    ______ ____
ROOT
ATOM      1  C   UNL     1       3.808   6.731   2.614  0.00  0.00    +0.173 A 
ATOM      2  N   UNL     1       3.227   7.448   1.674  0.00  0.00    -0.216 NA
ATOM      3  C   UNL     1       2.313   6.911   0.874  0.00  0.00    +0.117 A 
ATOM      4  C   UNL     1       1.929   5.563   0.980  0.00  0.00    +0.080 A 
ATOM      5  C   UNL     1       0.916   5.132   0.021  0.00  0.00    +0.010 A 
ATOM      6  C   UNL     1       0.429   6.037  -0.863  0.00  0.00    +0.057 A 
ATOM      7  S   UNL     1       1.318   7.528  -0.459  0.00  0.00    -0.076 S 
ATOM      8  C   UNL     1       2.584   4.807   2.001  0.00  0.00    +0.263 A 
ATOM      9  O   UNL     1       2.317   3.629   2.163  0.00  0.00    -0.267 OA
ATOM     10  N   UNL     1       3.498   5.412   2.781  0.00  0.00    -0.290 N 
ATOM     11  C   UNL     1       4.172   4.642   3.829  0.00  0.00    +0.154 C 
ENDROOT
BRANCH   5  12
ATOM     12  C   UNL     1       0.426   3.738   0.018  0.00  0.00    +0.021 A 
ATOM     13  C   UNL     1      -0.864   3.276   0.028  0.00  0.00    +0.016 A 
ATOM     14  C   UNL     1      -1.079   1.914   0.017  0.00  0.00    +0.008 A 
ATOM     15  C   UNL     1      -0.013   1.076   0.008  0.00  0.00    +0.046 A 
ATOM     16  S   UNL     1       1.361   2.217   0.001  0.00  0.00    -0.097 S 
ENDBRANCH   5  12
BRANCH   1  17
ATOM     17  S   UNL     1       5.012   7.480   3.660  0.00  0.00    -0.075 S 
BRANCH  17  19
ATOM     18  C   UNL     1       5.516   9.146   1.554  0.00  0.00    +0.029 C 
ATOM     19  C   UNL     1       5.002   9.164   2.995  0.00  0.00    +0.137 C 
BRANCH  19  20
ATOM     20  C   UNL     1       5.893  10.041   3.836  0.00  0.00    +0.233 C 
ATOM     21  O   UNL     1       6.801   9.551   4.472  0.00  0.00    -0.274 OA
ATOM     22  N   UNL     1       5.681  11.371   3.880  0.00  0.00    -0.239 N 
ATOM     23  C   UNL     1       6.478  12.156   4.632  0.00  0.00    +0.303 C 
ATOM     24  O   UNL     1       7.388  11.664   5.270  0.00  0.00    -0.253 OA
ATOM     25  N   UNL     1       6.266  13.486   4.676  0.00  0.00    -0.313 N 
ATOM     26  H   UNL     1       4.857  11.817   3.303  0.00  0.00    +0.159 HD
ATOM     27  H   UNL     1       6.917  14.127   5.290  0.00  0.00    +0.146 HD
ATOM     28  H   UNL     1       5.442  13.932   4.099  0.00  0.00    +0.146 HD
ENDBRANCH  19  20
ENDBRANCH  17  19
ENDBRANCH   1  17
TORSDOF 4
