REMARK  Name = ZINC17244490
REMARK  11 active torsions:
REMARK  status: ('A' for Active; 'I' for Inactive)
REMARK    1  A    between atoms: C_1  and  C_2
REMARK    2  A    between atoms: C_5  and  C_37
REMARK    3  A    between atoms: N_8  and  S_10
REMARK    4  A    between atoms: S_10  and  C_13
REMARK    5  A    between atoms: C_16  and  C_19
REMARK    6  A    between atoms: N_21  and  C_22
REMARK    7  A    between atoms: C_23  and  C_34
REMARK    8  A    between atoms: C_27  and  C_32
REMARK    9  A    between atoms: C_27  and  C_33
REMARK   10  A    between atoms: C_28  and  C_30
REMARK   11  A    between atoms: C_28  and  C_31
REMARK                            x       y       z     vdW  Elec       q    Type
REMARK                         _______ _______ _______ _____ _____    ______ ____
ROOT
ATOM      1  C   UNL     1      -2.778   4.368   7.599  0.00  0.00    +0.249 C 
ATOM      2  O   UNL     1      -3.918   4.775   7.486  0.00  0.00    -0.270 OA
ATOM      3  N   UNL     1      -1.999   4.817   8.603  0.00  0.00    -0.275 N 
ATOM      4  H   UNL     1      -1.089   4.492   8.694  0.00  0.00    +0.156 HD
ENDROOT
BRANCH   3   5
ATOM      5  C   UNL     1      -2.496   5.743   9.505  0.00  0.00    +0.085 A 
ATOM      6  C   UNL     1      -1.850   6.318  10.594  0.00  0.00    +0.068 A 
ATOM      7  C   UNL     1      -2.600   7.272  11.383  0.00  0.00    -0.026 A 
ATOM      8  C   UNL     1      -3.871   7.497  10.974  0.00  0.00    -0.016 A 
ATOM      9  S   UNL     1      -4.071   6.464   9.551  0.00  0.00    -0.079 S 
ATOM     10  C   UNL     1      -4.863   8.413  11.614  0.00  0.00    -0.041 C 
ATOM     11  C   UNL     1      -2.803   9.383  12.638  0.00  0.00    -0.069 C 
ATOM     12  C   UNL     1      -2.083   8.029  12.599  0.00  0.00    +0.024 C 
ATOM     13  C   UNL     1      -2.352  10.230  11.445  0.00  0.00    -0.010 C 
ATOM     14  C   UNL     1      -2.370  10.110  13.925  0.00  0.00    -0.010 C 
ATOM     15  C   UNL     1      -5.498   9.307  10.539  0.00  0.00    -0.005 C 
ATOM     16  C   UNL     1      -5.979   7.557  12.241  0.00  0.00    -0.005 C 
ATOM     17  N   UNL     1      -4.282   9.256  12.698  0.00  0.00    +0.389 N 
ATOM     18  H   UNL     1      -4.534   8.839  13.602  0.00  0.00    -0.084 HD
ATOM     19  H   UNL     1      -4.689  10.196  12.629  0.00  0.00    -0.084 HD
BRANCH   6  20
ATOM     20  C   UNL     1      -0.466   5.962  10.922  0.00  0.00    +0.244 C 
ATOM     21  O   UNL     1       0.455   6.594  10.440  0.00  0.00    -0.270 OA
ATOM     22  N   UNL     1      -0.215   4.933  11.756  0.00  0.00    -0.325 N 
ATOM     23  H   UNL     1      -0.950   4.429  12.140  0.00  0.00    +0.145 HD
ATOM     24  H   UNL     1       0.701   4.697  11.973  0.00  0.00    +0.145 HD
ENDBRANCH   6  20
ENDBRANCH   3   5
BRANCH   1  28
ATOM     25  C   UNL     1      -1.253   1.526   4.835  0.00  0.00    +0.106 A 
ATOM     26  C   UNL     1      -0.452   1.981   5.867  0.00  0.00    +0.029 A 
ATOM     27  C   UNL     1      -0.939   2.909   6.765  0.00  0.00    +0.015 A 
ATOM     28  C   UNL     1      -2.247   3.379   6.637  0.00  0.00    +0.037 A 
ATOM     29  C   UNL     1      -3.052   2.912   5.597  0.00  0.00    +0.015 A 
ATOM     30  C   UNL     1      -2.551   1.989   4.702  0.00  0.00    +0.029 A 
BRANCH  25  31
ATOM     31  S   UNL     1      -0.621   0.347   3.688  0.00  0.00    +0.061 S 
ATOM     32  O   UNL     1      -1.744  -0.332   3.144  0.00  0.00    -0.153 OA
ATOM     33  O   UNL     1       0.435  -0.336   4.349  0.00  0.00    -0.153 OA
BRANCH  31  39
ATOM     34  C   UNL     1      -0.754   1.593  -1.230  0.00  0.00    +0.009 C 
ATOM     35  C   UNL     1      -0.013   1.086   0.008  0.00  0.00    +0.002 C 
ATOM     36  C   UNL     1       1.423   1.616  -0.003  0.00  0.00    +0.009 C 
ATOM     37  C   UNL     1       2.175   1.082   1.218  0.00  0.00    +0.002 C 
ATOM     38  C   UNL     1       1.486   1.577   2.494  0.00  0.00    +0.112 C 
ATOM     39  N   UNL     1       0.069   1.195   2.444  0.00  0.00    -0.176 NA
ATOM     40  C   UNL     1      -0.726   1.581   1.270  0.00  0.00    +0.112 C 
ATOM     41  C   UNL     1       3.619   1.586   1.189  0.00  0.00    +0.009 C 
ENDBRANCH  31  39
ENDBRANCH  25  31
ENDBRANCH   1  28
TORSDOF 5
