REMARK  Name = ZINC13639904
REMARK  9 active torsions:
REMARK  status: ('A' for Active; 'I' for Inactive)
REMARK    1  A    between atoms: C_1  and  C_2
REMARK    2  A    between atoms: C_2  and  C_3
REMARK    3  A    between atoms: C_2  and  C_4
REMARK    4  A    between atoms: C_2  and  N_5
REMARK    5  A    between atoms: N_5  and  S_6
REMARK    6  A    between atoms: S_6  and  C_9
REMARK    7  A    between atoms: C_22  and  C_25
REMARK    8  A    between atoms: C_28  and  O_32
REMARK    9  A    between atoms: C_30  and  O_31
REMARK                            x       y       z     vdW  Elec       q    Type
REMARK                         _______ _______ _______ _____ _____    ______ ____
ROOT
ATOM      1  C   UNL     1      -1.378   2.765  -0.360  0.00  0.00    +0.106 A 
ATOM      2  C   UNL     1      -1.839   1.538   0.082  0.00  0.00    +0.030 A 
ATOM      3  C   UNL     1      -1.029   0.424   0.003  0.00  0.00    +0.025 A 
ATOM      4  C   UNL     1       0.251   0.523  -0.530  0.00  0.00    +0.031 A 
ATOM      5  C   UNL     1       0.714   1.769  -0.967  0.00  0.00    -0.018 A 
ATOM      6  C   UNL     1      -0.104   2.876  -0.886  0.00  0.00    +0.034 A 
ATOM      7  C   UNL     1       2.097   1.839  -1.485  0.00  0.00    +0.049 C 
ATOM      8  C   UNL     1       2.524   2.885  -2.450  0.00  0.00    -0.023 C 
ATOM      9  C   UNL     1       3.477   2.382  -3.225  0.00  0.00    -0.030 C 
ATOM     10  C   UNL     1       3.741   0.922  -2.850  0.00  0.00    +0.033 C 
ATOM     11  C   UNL     1       2.393   0.511  -2.243  0.00  0.00    +0.029 C 
ATOM     12  C   UNL     1       2.416  -0.568  -1.175  0.00  0.00    +0.108 C 
ATOM     13  N   UNL     1       1.039  -0.629  -0.638  0.00  0.00    -0.336 N 
ATOM     14  H   UNL     1       0.676  -1.482  -0.355  0.00  0.00    +0.147 HD
ENDROOT
BRANCH  12  15
ATOM     15  C   UNL     1       2.796  -1.894  -1.783  0.00  0.00    +0.015 A 
ATOM     16  C   UNL     1       1.812  -2.782  -2.174  0.00  0.00    +0.012 A 
ATOM     17  C   UNL     1       2.157  -3.996  -2.736  0.00  0.00    +0.046 A 
ATOM     18  C   UNL     1       3.494  -4.331  -2.900  0.00  0.00    +0.120 A 
ATOM     19  C   UNL     1       4.483  -3.444  -2.505  0.00  0.00    +0.091 A 
ATOM     20  C   UNL     1       4.134  -2.224  -1.945  0.00  0.00    +0.125 A 
BRANCH  20  21
ATOM     21  O   UNL     1       5.101  -1.353  -1.557  0.00  0.00    -0.506 OA
ATOM     22  H   UNL     1       5.388  -1.466  -0.640  0.00  0.00    +0.292 HD
ENDBRANCH  20  21
BRANCH  18  23
ATOM     23  O   UNL     1       3.833  -5.527  -3.449  0.00  0.00    -0.507 OA
ATOM     24  H   UNL     1       3.938  -6.240  -2.804  0.00  0.00    +0.292 HD
ENDBRANCH  18  23
ENDBRANCH  12  15
BRANCH   1  25
ATOM     25  S   UNL     1      -2.416   4.185  -0.260  0.00  0.00    +0.059 S 
ATOM     26  O   UNL     1      -3.494   3.840   0.599  0.00  0.00    -0.153 OA
ATOM     27  O   UNL     1      -1.565   5.294  -0.006  0.00  0.00    -0.153 OA
BRANCH  25  28
ATOM     28  N   UNL     1      -3.067   4.423  -1.764  0.00  0.00    -0.185 NA
ATOM     29  H   UNL     1      -2.818   5.204  -2.282  0.00  0.00    +0.149 HD
BRANCH  28  31
ATOM     30  C   UNL     1      -5.303   3.472  -1.478  0.00  0.00    +0.029 C 
ATOM     31  C   UNL     1      -4.019   3.453  -2.311  0.00  0.00    +0.032 C 
ATOM     32  C   UNL     1      -4.346   3.822  -3.760  0.00  0.00    +0.029 C 
ATOM     33  C   UNL     1      -3.404   2.053  -2.268  0.00  0.00    +0.029 C 
ENDBRANCH  28  31
ENDBRANCH  25  28
ENDBRANCH   1  25
TORSDOF 6
