REMARK  Name = ZINC44557119
REMARK  7 active torsions:
REMARK  status: ('A' for Active; 'I' for Inactive)
REMARK    1  A    between atoms: C_1  and  N_2
REMARK    2  A    between atoms: C_6  and  C_9
REMARK    3  A    between atoms: C_9  and  N_10
REMARK    4  A    between atoms: N_10  and  S_11
REMARK    5  A    between atoms: S_11  and  C_14
REMARK    6  A    between atoms: C_19  and  N_20
REMARK    7  A    between atoms: N_20  and  N_21
REMARK                            x       y       z     vdW  Elec       q    Type
REMARK                         _______ _______ _______ _____ _____    ______ ____
ROOT
ATOM      1  S   UNL     1       2.937  -4.759   3.213  0.00  0.00    +0.062 S 
ATOM      2  O   UNL     1       3.052  -6.138   2.889  0.00  0.00    -0.153 OA
ATOM      3  O   UNL     1       4.030  -3.858   3.104  0.00  0.00    -0.153 OA
ENDROOT
BRANCH   1   4
ATOM      4  C   UNL     1       2.382  -4.679   4.884  0.00  0.00    +0.147 A 
ATOM      5  C   UNL     1       3.032  -3.871   5.800  0.00  0.00    +0.048 A 
ATOM      6  C   UNL     1       2.561  -3.838   7.106  0.00  0.00    +0.038 A 
ATOM      7  C   UNL     1       1.465  -4.607   7.449  0.00  0.00    +0.128 A 
ATOM      8  N   UNL     1       0.866  -5.368   6.553  0.00  0.00    -0.236 NA
ATOM      9  C   UNL     1       1.282  -5.422   5.297  0.00  0.00    +0.159 A 
ATOM     10 BR   UNL     1       3.410  -2.753   8.401  0.00  0.00    -0.049 Br
BRANCH   9  11
ATOM     11  N   UNL     1       0.616  -6.233   4.385  0.00  0.00    -0.266 N 
ATOM     12  H   UNL     1       0.861  -6.210   3.447  0.00  0.00    +0.167 HD
BRANCH  11  13
ATOM     13  N   UNL     1      -0.384  -7.061   4.810  0.00  0.00    -0.255 NA
ATOM     14  H   UNL     1      -1.102  -6.543   5.293  0.00  0.00    +0.140 HD
ATOM     15  H   UNL     1      -0.771  -7.585   4.040  0.00  0.00    +0.140 HD
ENDBRANCH  11  13
ENDBRANCH   9  11
ENDBRANCH   1   4
BRANCH   1  16
ATOM     16  N   UNL     1       1.725  -4.149   2.264  0.00  0.00    -0.190 NA
ATOM     17  H   UNL     1       1.270  -4.724   1.629  0.00  0.00    +0.148 HD
BRANCH  16  18
ATOM     18  C   UNL     1       1.338  -2.741   2.385  0.00  0.00    +0.107 C 
BRANCH  18  24
ATOM     19  C   UNL     1      -0.865   0.992   0.110  0.00  0.00    -0.096 C 
ATOM     20  N   UNL     1      -0.641  -0.459   0.088  0.00  0.00    +0.378 N 
ATOM     21  C   UNL     1      -1.933  -1.153   0.142  0.00  0.00    -0.079 C 
ATOM     22  C   UNL     1      -1.710  -2.663   0.037  0.00  0.00    -0.018 C 
ATOM     23  C   UNL     1      -0.831  -3.126   1.203  0.00  0.00    +0.001 C 
ATOM     24  C   UNL     1       0.484  -2.342   1.180  0.00  0.00    -0.012 C 
ATOM     25  C   UNL     1       0.180  -0.844   1.242  0.00  0.00    -0.074 C 
ATOM     26  H   UNL     1      -0.162  -0.711  -0.763  0.00  0.00    -0.082 HD
ENDBRANCH  18  24
ENDBRANCH  16  18
ENDBRANCH   1  16
TORSDOF 6
