REMARK  Name = ZINC27117715
REMARK  9 active torsions:
REMARK  status: ('A' for Active; 'I' for Inactive)
REMARK    1  A    between atoms: C_1  and  N_2
REMARK    2  A    between atoms: C_3  and  C_25
REMARK    3  A    between atoms: N_7  and  C_8
REMARK    4  A    between atoms: C_8  and  C_9
REMARK    5  A    between atoms: C_12  and  O_23
REMARK    6  A    between atoms: C_13  and  O_15
REMARK    7  A    between atoms: O_15  and  C_16
REMARK    8  A    between atoms: C_16  and  C_17
REMARK    9  A    between atoms: O_23  and  C_24
REMARK                            x       y       z     vdW  Elec       q    Type
REMARK                         _______ _______ _______ _____ _____    ______ ____
ROOT
ATOM      1  C   UNL     1      -2.953   4.097   0.483  0.00  0.00    +0.139 C 
ENDROOT
BRANCH   1   8
ATOM      2  C   UNL     1       1.399   4.316  -0.643  0.00  0.00    +0.152 C 
ATOM      3  N   UNL     1       0.598   3.146  -0.276  0.00  0.00    -0.317 N 
ATOM      4  C   UNL     1       1.039   1.836  -0.202  0.00  0.00    +0.067 A 
ATOM      5  C   UNL     1      -0.031   1.087   0.174  0.00  0.00    +0.112 A 
ATOM      6  N   UNL     1      -1.083   1.903   0.317  0.00  0.00    -0.334 N 
ATOM      7  C   UNL     1      -0.721   3.139   0.057  0.00  0.00    +0.174 A 
ATOM      8  N   UNL     1      -1.545   4.248   0.107  0.00  0.00    -0.312 N 
ATOM      9  H   UNL     1      -1.144   5.243  -0.135  0.00  0.00    +0.149 HD
ATOM     10  H   UNL     1      -2.061   1.494   0.612  0.00  0.00    +0.168 HD
BRANCH   4  11
ATOM     11  C   UNL     1       2.406   1.347  -0.476  0.00  0.00    +0.001 A 
ATOM     12  C   UNL     1       2.823   0.112   0.024  0.00  0.00    +0.010 A 
ATOM     13  C   UNL     1       4.100  -0.339  -0.236  0.00  0.00    +0.002 A 
ATOM     14  C   UNL     1       4.968   0.429  -0.991  0.00  0.00    +0.015 A 
ATOM     15  C   UNL     1       4.562   1.655  -1.491  0.00  0.00    +0.019 A 
ATOM     16  C   UNL     1       3.285   2.115  -1.242  0.00  0.00    +0.025 A 
ATOM     17 BR   UNL     1       5.756   2.696  -2.523  0.00  0.00    -0.050 Br
ENDBRANCH   4  11
ENDBRANCH   1   8
BRANCH   1  18
ATOM     18  C   UNL     1      -3.626   5.446   0.461  0.00  0.00    -0.027 A 
ATOM     19  C   UNL     1      -3.649   6.223   1.604  0.00  0.00    +0.009 A 
ATOM     20  C   UNL     1      -4.260   7.463   1.588  0.00  0.00    +0.050 A 
ATOM     21  C   UNL     1      -4.860   7.925   0.427  0.00  0.00    +0.162 A 
ATOM     22  C   UNL     1      -4.842   7.139  -0.721  0.00  0.00    +0.163 A 
ATOM     23  C   UNL     1      -4.223   5.900  -0.700  0.00  0.00    +0.054 A 
BRANCH  21  24
ATOM     24  O   UNL     1      -5.467   9.142   0.411  0.00  0.00    -0.491 OA
ATOM     25  C   UNL     1      -5.447   9.893   1.627  0.00  0.00    +0.277 C 
ENDBRANCH  21  24
BRANCH  22  26
ATOM     26  O   UNL     1      -5.430   7.588  -1.863  0.00  0.00    -0.484 OA
BRANCH  26  27
ATOM     27  C   UNL     1      -5.372   6.729  -3.003  0.00  0.00    +0.264 C 
BRANCH  27  28
ATOM     28  C   UNL     1      -6.071   7.388  -4.165  0.00  0.00    -0.010 A 
ATOM     29  C   UNL     1      -7.421   7.176  -4.369  0.00  0.00    +0.007 A 
ATOM     30  C   UNL     1      -8.063   7.785  -5.431  0.00  0.00    +0.000 A 
ATOM     31  C   UNL     1      -7.351   8.597  -6.295  0.00  0.00    +0.000 A 
ATOM     32  C   UNL     1      -6.000   8.803  -6.094  0.00  0.00    +0.000 A 
ATOM     33  C   UNL     1      -5.359   8.199  -5.028  0.00  0.00    +0.007 A 
ENDBRANCH  27  28
ENDBRANCH  26  27
ENDBRANCH  22  26
ENDBRANCH   1  18
TORSDOF 7
