REMARK  Name = ZINC05085272
REMARK  11 active torsions:
REMARK  status: ('A' for Active; 'I' for Inactive)
REMARK    1  A    between atoms: C_1  and  C_2
REMARK    2  A    between atoms: C_8  and  O_16
REMARK    3  A    between atoms: C_10  and  O_15
REMARK    4  A    between atoms: C_11  and  C_12
REMARK    5  A    between atoms: C_12  and  C_14
REMARK    6  A    between atoms: O_16  and  C_17
REMARK    7  A    between atoms: C_19  and  O_32
REMARK    8  A    between atoms: C_21  and  O_31
REMARK    9  A    between atoms: C_23  and  O_30
REMARK   10  A    between atoms: C_25  and  C_28
REMARK   11  A    between atoms: C_28  and  O_29
REMARK                            x       y       z     vdW  Elec       q    Type
REMARK                         _______ _______ _______ _____ _____    ______ ____
ROOT
ATOM      1  C   UNL     1       5.010  -2.675  -0.487  0.00  0.00    +0.044 C 
ATOM      2  C   UNL     1       3.702  -1.967  -0.242  0.00  0.00    -0.036 A 
ATOM      3  C   UNL     1       3.696  -0.631  -0.022  0.00  0.00    +0.013 A 
ATOM      4  C   UNL     1       2.482   0.047   0.209  0.00  0.00    -0.011 A 
ATOM      5  C   UNL     1       2.462   1.431   0.439  0.00  0.00    +0.009 A 
ATOM      6  C   UNL     1       1.278   2.068   0.660  0.00  0.00    +0.004 A 
ATOM      7  C   UNL     1       0.076   1.369   0.664  0.00  0.00    +0.046 A 
ATOM      8  C   UNL     1       0.053   0.009   0.442  0.00  0.00    +0.135 A 
ATOM      9  C   UNL     1       1.263  -0.676   0.210  0.00  0.00    +0.066 A 
ATOM     10  C   UNL     1       1.279  -2.064  -0.020  0.00  0.00    +0.139 A 
ATOM     11  C   UNL     1       2.501  -2.705  -0.245  0.00  0.00    +0.062 A 
ENDROOT
BRANCH  11  12
ATOM     12  C   UNL     1       2.533  -4.149  -0.485  0.00  0.00    +0.164 C 
ATOM     13  O   UNL     1       2.569  -4.920   0.452  0.00  0.00    -0.292 OA
ATOM     14  C   UNL     1       2.521  -4.679  -1.896  0.00  0.00    +0.092 C 
ENDBRANCH  11  12
BRANCH  10  15
ATOM     15  O   UNL     1       0.125  -2.771  -0.022  0.00  0.00    -0.505 OA
ATOM     16  H   UNL     1      -0.297  -2.833  -0.890  0.00  0.00    +0.292 HD
ENDBRANCH  10  15
BRANCH   8  17
ATOM     17  O   UNL     1      -1.125  -0.666   0.447  0.00  0.00    -0.460 OA
BRANCH  17  18
ATOM     18  C   UNL     1      -2.308   0.097   0.689  0.00  0.00    +0.339 C 
ATOM     19  C   UNL     1      -3.537  -0.803   0.534  0.00  0.00    +0.214 C 
ATOM     20  C   UNL     1      -3.479  -1.918   1.583  0.00  0.00    +0.180 C 
ATOM     21  C   UNL     1      -3.393  -1.287   2.977  0.00  0.00    +0.177 C 
ATOM     22  C   UNL     1      -2.170  -0.368   3.037  0.00  0.00    +0.179 C 
ATOM     23  O   UNL     1      -2.271   0.626   2.016  0.00  0.00    -0.331 OA
BRANCH  21  24
ATOM     24  O   UNL     1      -4.576  -0.528   3.232  0.00  0.00    -0.386 OA
ATOM     25  H   UNL     1      -5.391  -1.048   3.204  0.00  0.00    +0.210 HD
ENDBRANCH  21  24
BRANCH  20  26
ATOM     26  O   UNL     1      -4.657  -2.721   1.492  0.00  0.00    -0.386 OA
ATOM     27  H   UNL     1      -4.778  -3.146   0.632  0.00  0.00    +0.210 HD
ENDBRANCH  20  26
BRANCH  19  28
ATOM     28  O   UNL     1      -3.545  -1.379  -0.774  0.00  0.00    -0.383 OA
ATOM     29  H   UNL     1      -3.575  -0.730  -1.490  0.00  0.00    +0.210 HD
ENDBRANCH  19  28
BRANCH  22  30
ATOM     30  C   UNL     1      -2.110   0.311   4.407  0.00  0.00    +0.190 C 
BRANCH  30  31
ATOM     31  O   UNL     1      -0.908   1.078   4.506  0.00  0.00    -0.392 OA
ATOM     32  H   UNL     1      -0.803   1.538   5.350  0.00  0.00    +0.210 HD
ENDBRANCH  30  31
ENDBRANCH  22  30
ENDBRANCH  17  18
ENDBRANCH   8  17
TORSDOF 9
