REMARK  Name = ZINC48882075
REMARK  5 active torsions:
REMARK  status: ('A' for Active; 'I' for Inactive)
REMARK    1  A    between atoms: C_1  and  N_2
REMARK    2  A    between atoms: N_2  and  C_3
REMARK    3  A    between atoms: N_2  and  C_11
REMARK    4  A    between atoms: C_3  and  C_4
REMARK    5  A    between atoms: C_16  and  C_17
REMARK                            x       y       z     vdW  Elec       q    Type
REMARK                         _______ _______ _______ _____ _____    ______ ____
ROOT
ATOM      1  C   UNL     1       0.123  -0.850  -1.052  0.00  0.00    +0.040 A 
ATOM      2  C   UNL     1       1.389  -1.092  -1.571  0.00  0.00    +0.024 A 
ATOM      3  C   UNL     1       1.527  -1.644  -2.828  0.00  0.00    +0.002 A 
ATOM      4  C   UNL     1       0.408  -1.961  -3.581  0.00  0.00    +0.001 A 
ATOM      5  C   UNL     1      -0.856  -1.728  -3.083  0.00  0.00    +0.013 A 
ATOM      6  C   UNL     1      -1.012  -1.175  -1.810  0.00  0.00    +0.033 A 
ENDROOT
BRANCH   6   7
ATOM      7  C   UNL     1      -2.362  -0.929  -1.268  0.00  0.00    +0.096 C 
ATOM      8  N   UNL     1      -2.710   0.297  -0.877  0.00  0.00    -0.387 N 
ATOM      9  N   UNL     1      -3.234  -1.932  -1.169  0.00  0.00    -0.345 N 
ATOM     10  H   UNL     1      -2.114   1.046  -1.040  0.00  0.00    +0.157 HD
ATOM     11  H   UNL     1      -2.981  -2.824  -1.453  0.00  0.00    +0.144 HD
ATOM     12  H   UNL     1      -4.121  -1.770  -0.813  0.00  0.00    +0.144 HD
ATOM     13  H   UNL     1      -3.558   0.441  -0.430  0.00  0.00    +0.157 HD
ENDBRANCH   6   7
BRANCH   1  15
ATOM     14  C   UNL     1      -0.195   1.153   0.362  0.00  0.00    +0.129 C 
ATOM     15  N   UNL     1      -0.018  -0.293   0.213  0.00  0.00    -0.328 N 
BRANCH  15  16
ATOM     16  C   UNL     1       0.010  -1.154   1.399  0.00  0.00    +0.139 C 
BRANCH  16  17
ATOM     17  C   UNL     1      -1.400  -1.501   1.801  0.00  0.00    -0.030 A 
ATOM     18  C   UNL     1      -2.086  -0.688   2.685  0.00  0.00    +0.006 A 
ATOM     19  C   UNL     1      -3.380  -1.006   3.054  0.00  0.00    +0.015 A 
ATOM     20  C   UNL     1      -3.988  -2.137   2.539  0.00  0.00    +0.018 A 
ATOM     21  C   UNL     1      -3.301  -2.949   1.655  0.00  0.00    +0.015 A 
ATOM     22  C   UNL     1      -2.009  -2.628   1.282  0.00  0.00    +0.006 A 
ATOM     23 BR   UNL     1      -5.757  -2.572   3.044  0.00  0.00    -0.050 Br
ENDBRANCH  16  17
ENDBRANCH  15  16
ENDBRANCH   1  15
TORSDOF 4
