REMARK  Name = ZINC01752798
REMARK  5 active torsions:
REMARK  status: ('A' for Active; 'I' for Inactive)
REMARK    1  A    between atoms: C_4  and  N_11
REMARK    2  A    between atoms: C_5  and  C_7
REMARK    3  A    between atoms: N_14  and  C_15
REMARK    4  A    between atoms: C_18  and  S_21
REMARK    5  A    between atoms: S_21  and  N_24
REMARK                            x       y       z     vdW  Elec       q    Type
REMARK                         _______ _______ _______ _____ _____    ______ ____
ROOT
ATOM      1  N   UNL     1      -2.412  -0.034   0.018  0.00  0.00    -0.269 N 
ATOM      2  C   UNL     1      -3.568  -0.722  -0.068  0.00  0.00    +0.308 C 
ATOM      3  O   UNL     1      -3.554  -1.938  -0.066  0.00  0.00    -0.252 OA
ATOM      4  N   UNL     1      -4.740  -0.062  -0.156  0.00  0.00    -0.269 N 
ATOM      5  H   UNL     1      -2.427   0.933   0.083  0.00  0.00    +0.156 HD
ATOM      6  H   UNL     1      -4.748   0.906  -0.225  0.00  0.00    +0.156 HD
ENDROOT
BRANCH   1  10
ATOM      7  C   UNL     1       1.225  -2.066   0.003  0.00  0.00    +0.001 A 
ATOM      8  C   UNL     1       0.121  -2.632   0.613  0.00  0.00    +0.002 A 
ATOM      9  C   UNL     1      -1.086  -1.962   0.620  0.00  0.00    +0.024 A 
ATOM     10  C   UNL     1      -1.190  -0.716   0.013  0.00  0.00    +0.046 A 
ATOM     11  C   UNL     1      -0.080  -0.150  -0.598  0.00  0.00    +0.076 A 
ATOM     12  C   UNL     1       1.123  -0.829  -0.606  0.00  0.00    +0.014 A 
BRANCH  11  13
ATOM     13  C   UNL     1      -0.189   1.200  -1.258  0.00  0.00    +0.419 C 
ATOM     14  F   UNL     1       1.051   1.556  -1.799  0.00  0.00    -0.166 F 
ATOM     15  F   UNL     1      -1.144   1.145  -2.278  0.00  0.00    -0.166 F 
ATOM     16  F   UNL     1      -0.574   2.153  -0.309  0.00  0.00    -0.166 F 
ENDBRANCH  11  13
ENDBRANCH   1  10
BRANCH   4  17
ATOM     17  C   UNL     1      -5.946  -0.772  -0.149  0.00  0.00    +0.035 A 
ATOM     18  C   UNL     1      -6.024  -2.016  -0.761  0.00  0.00    +0.025 A 
ATOM     19  C   UNL     1      -7.214  -2.717  -0.747  0.00  0.00    +0.030 A 
ATOM     20  C   UNL     1      -8.329  -2.177  -0.134  0.00  0.00    +0.105 A 
ATOM     21  C   UNL     1      -8.256  -0.936   0.472  0.00  0.00    +0.030 A 
ATOM     22  C   UNL     1      -7.068  -0.232   0.466  0.00  0.00    +0.025 A 
BRANCH  20  23
ATOM     23  S   UNL     1      -9.847  -3.071  -0.124  0.00  0.00    +0.056 S 
ATOM     24  O   UNL     1      -9.511  -4.443  -0.281  0.00  0.00    -0.153 OA
ATOM     25  O   UNL     1     -10.594  -2.592   0.986  0.00  0.00    -0.153 OA
BRANCH  23  26
ATOM     26  N   UNL     1     -10.684  -2.631  -1.483  0.00  0.00    -0.204 NA
ATOM     27  H   UNL     1     -10.303  -1.986  -2.100  0.00  0.00    +0.144 HD
ATOM     28  H   UNL     1     -11.556  -3.018  -1.663  0.00  0.00    +0.144 HD
ENDBRANCH  23  26
ENDBRANCH  20  23
ENDBRANCH   4  17
TORSDOF 5
