REMARK  Name = ZINC09346234
REMARK  9 active torsions:
REMARK  status: ('A' for Active; 'I' for Inactive)
REMARK    1  A    between atoms: C_1  and  C_2
REMARK    2  A    between atoms: C_2  and  O_3
REMARK    3  A    between atoms: O_3  and  C_4
REMARK    4  A    between atoms: C_7  and  C_12
REMARK    5  A    between atoms: C_9  and  O_10
REMARK    6  A    between atoms: O_10  and  C_11
REMARK    7  A    between atoms: C_23  and  C_25
REMARK    8  A    between atoms: C_35  and  S_37
REMARK    9  A    between atoms: S_37  and  C_38
REMARK                            x       y       z     vdW  Elec       q    Type
REMARK                         _______ _______ _______ _____ _____    ______ ____
ROOT
ATOM      1  C   UNL     1       1.107  -6.044  -1.844  0.00  0.00    +0.159 C 
ATOM      2  C   UNL     1      -0.180  -6.548  -2.458  0.00  0.00    +0.025 C 
ATOM      3  C   UNL     1      -0.881  -7.484  -1.786  0.00  0.00    +0.058 C 
ATOM      4  C   UNL     1      -2.138  -7.975  -2.407  0.00  0.00    +0.040 A 
ATOM      5  C   UNL     1      -3.080  -8.682  -1.674  0.00  0.00    +0.013 A 
ATOM      6  C   UNL     1      -4.237  -9.120  -2.291  0.00  0.00    +0.001 A 
ATOM      7  C   UNL     1      -4.454  -8.855  -3.632  0.00  0.00    +0.004 A 
ATOM      8  C   UNL     1      -3.519  -8.152  -4.370  0.00  0.00    +0.046 A 
ATOM      9  C   UNL     1      -2.356  -7.709  -3.765  0.00  0.00    +0.131 A 
ATOM     10  O   UNL     1      -1.418  -7.023  -4.466  0.00  0.00    -0.479 OA
ATOM     11  C   UNL     1      -0.675  -6.019  -3.772  0.00  0.00    +0.234 C 
ATOM     12  N   UNL     1      -0.460  -7.963  -0.591  0.00  0.00    -0.326 N 
ATOM     13  C   UNL     1       0.645  -7.581   0.014  0.00  0.00    +0.216 C 
ATOM     14  N   UNL     1       1.471  -6.632  -0.548  0.00  0.00    -0.209 N 
ATOM     15  N   UNL     1       2.540  -6.455   0.333  0.00  0.00    -0.239 N 
ATOM     16  C   UNL     1       2.313  -7.298   1.389  0.00  0.00    +0.174 C 
ATOM     17  N   UNL     1       1.198  -7.953   1.183  0.00  0.00    -0.192 NA
ATOM     18  H   UNL     1      -1.008  -8.632  -0.152  0.00  0.00    +0.169 HD
ATOM     19  H   UNL     1       3.294  -5.855   0.220  0.00  0.00    +0.172 HD
ENDROOT
BRANCH   1  23
ATOM     20  C   UNL     1       0.777  -1.811  -1.336  0.00  0.00    +0.162 A 
ATOM     21  C   UNL     1       0.243  -2.669  -0.388  0.00  0.00    +0.050 A 
ATOM     22  C   UNL     1       0.352  -4.037  -0.555  0.00  0.00    +0.009 A 
ATOM     23  C   UNL     1       0.992  -4.552  -1.667  0.00  0.00    -0.017 A 
ATOM     24  C   UNL     1       1.526  -3.702  -2.616  0.00  0.00    +0.055 A 
ATOM     25  C   UNL     1       1.416  -2.330  -2.458  0.00  0.00    +0.162 A 
BRANCH  25  26
ATOM     26  O   UNL     1       1.936  -1.492  -3.394  0.00  0.00    -0.491 OA
ATOM     27  C   UNL     1       2.578  -2.095  -4.520  0.00  0.00    +0.277 C 
ENDBRANCH  25  26
BRANCH  20  28
ATOM     28  O   UNL     1       0.671  -0.465  -1.174  0.00  0.00    -0.489 OA
BRANCH  28  30
ATOM     29  C   UNL     1      -0.019   1.526   0.010  0.00  0.00    +0.048 C 
ATOM     30  C   UNL     1       0.002  -0.004   0.002  0.00  0.00    +0.226 C 
ENDBRANCH  28  30
ENDBRANCH  20  28
ENDBRANCH   1  23
BRANCH  11  31
ATOM     31  C   UNL     1      -1.561  -4.824  -3.527  0.00  0.00    -0.003 A 
ATOM     32  C   UNL     1      -2.874  -5.006  -3.137  0.00  0.00    +0.007 A 
ATOM     33  C   UNL     1      -3.687  -3.910  -2.912  0.00  0.00    +0.000 A 
ATOM     34  C   UNL     1      -3.185  -2.633  -3.077  0.00  0.00    +0.000 A 
ATOM     35  C   UNL     1      -1.871  -2.451  -3.467  0.00  0.00    +0.000 A 
ATOM     36  C   UNL     1      -1.058  -3.547  -3.688  0.00  0.00    +0.007 A 
ENDBRANCH  11  31
BRANCH  16  37
ATOM     37  S   UNL     1       3.357  -7.478   2.797  0.00  0.00    -0.092 S 
ATOM     38  C   UNL     1       2.515  -8.725   3.811  0.00  0.00    +0.093 C 
ENDBRANCH  16  37
TORSDOF 6
