REMARK  Name = ZINC36888085
REMARK  4 active torsions:
REMARK  status: ('A' for Active; 'I' for Inactive)
REMARK    1  A    between atoms: C_3  and  C_18
REMARK    2  A    between atoms: C_5  and  O_7
REMARK    3  A    between atoms: O_7  and  C_8
REMARK    4  A    between atoms: C_11  and  C_15
REMARK                            x       y       z     vdW  Elec       q    Type
REMARK                         _______ _______ _______ _____ _____    ______ ____
ROOT
ATOM      1  C   UNL     1       0.052  -2.695   0.092  0.00  0.00    +0.163 A 
ATOM      2  C   UNL     1      -1.139  -1.980   0.100  0.00  0.00    +0.050 A 
ATOM      3  C   UNL     1      -2.342  -2.642   0.214  0.00  0.00    +0.015 A 
ATOM      4  C   UNL     1      -2.364  -4.034   0.321  0.00  0.00    +0.015 A 
ATOM      5  C   UNL     1      -1.166  -4.752   0.313  0.00  0.00    +0.053 A 
ATOM      6  C   UNL     1       0.035  -4.083   0.193  0.00  0.00    +0.166 A 
ATOM      7  F   UNL     1       1.194  -4.775   0.179  0.00  0.00    -0.202 F 
ENDROOT
BRANCH   4   8
ATOM      8  C   UNL     1      -3.653  -4.747   0.445  0.00  0.00    +0.094 C 
ATOM      9  N   UNL     1      -3.672  -6.075   0.547  0.00  0.00    -0.387 N 
ATOM     10  N   UNL     1      -4.795  -4.061   0.453  0.00  0.00    -0.345 N 
ATOM     11  H   UNL     1      -2.841  -6.574   0.540  0.00  0.00    +0.157 HD
ATOM     12  H   UNL     1      -4.781  -3.094   0.379  0.00  0.00    +0.144 HD
ATOM     13  H   UNL     1      -5.641  -4.528   0.534  0.00  0.00    +0.144 HD
ATOM     14  H   UNL     1      -4.518  -6.543   0.628  0.00  0.00    +0.157 HD
ENDBRANCH   4   8
BRANCH   1  15
ATOM     15  O   UNL     1       1.235  -2.039  -0.021  0.00  0.00    -0.453 OA
BRANCH  15  20
ATOM     16  C   UNL     1       0.849   1.367   1.198  0.00  0.00    +0.004 A 
ATOM     17  C   UNL     1       1.177   2.085   0.063  0.00  0.00    +0.012 A 
ATOM     18  C   UNL     1       1.525   1.423  -1.101  0.00  0.00    +0.058 A 
ATOM     19  C   UNL     1       1.545   0.042  -1.131  0.00  0.00    +0.058 A 
ATOM     20  C   UNL     1       1.216  -0.680   0.007  0.00  0.00    +0.129 A 
ATOM     21  C   UNL     1       0.868  -0.014   1.173  0.00  0.00    +0.046 A 
BRANCH  18  22
ATOM     22  C   UNL     1       1.881   2.209  -2.336  0.00  0.00    +0.418 C 
ATOM     23  F   UNL     1       1.788   3.578  -2.061  0.00  0.00    -0.166 F 
ATOM     24  F   UNL     1       3.188   1.899  -2.725  0.00  0.00    -0.166 F 
ATOM     25  F   UNL     1       0.996   1.880  -3.369  0.00  0.00    -0.166 F 
ENDBRANCH  18  22
ENDBRANCH  15  20
ENDBRANCH   1  15
TORSDOF 4
