REMARK  Name = ZINC63698403
REMARK  10 active torsions:
REMARK  status: ('A' for Active; 'I' for Inactive)
REMARK    1  A    between atoms: C_1  and  C_2
REMARK    2  A    between atoms: C_5  and  S_8
REMARK    3  A    between atoms: S_8  and  C_11
REMARK    4  A    between atoms: C_11  and  C_13
REMARK    5  A    between atoms: C_11  and  C_31
REMARK    6  A    between atoms: C_13  and  N_14
REMARK    7  A    between atoms: C_15  and  C_17
REMARK    8  A    between atoms: N_19  and  C_20
REMARK    9  A    between atoms: C_20  and  C_21
REMARK   10  A    between atoms: C_21  and  C_22
REMARK                            x       y       z     vdW  Elec       q    Type
REMARK                         _______ _______ _______ _____ _____    ______ ____
ROOT
ATOM      1  N   UNL     1       1.315  -7.041  -1.240  0.00  0.00    -0.305 N 
ATOM      2  C   UNL     1       1.313  -8.370  -1.460  0.00  0.00    +0.299 C 
ATOM      3  O   UNL     1       1.850  -9.117  -0.668  0.00  0.00    -0.265 OA
ATOM      4  H   UNL     1       0.885  -6.444  -1.873  0.00  0.00    +0.149 HD
ENDROOT
BRANCH   2   5
ATOM      5  C   UNL     1       0.651  -8.925  -2.680  0.00  0.00    +0.299 C 
ATOM      6  O   UNL     1       0.115  -8.178  -3.472  0.00  0.00    -0.265 OA
ATOM      7  N   UNL     1       0.650 -10.255  -2.900  0.00  0.00    -0.307 N 
ATOM      8  H   UNL     1       1.079 -10.852  -2.267  0.00  0.00    +0.149 HD
BRANCH   7   9
ATOM      9  C   UNL     1       0.002 -10.799  -4.096  0.00  0.00    +0.109 C 
BRANCH   9  10
ATOM     10  C   UNL     1       0.143 -12.322  -4.105  0.00  0.00    +0.052 C 
BRANCH  10  11
ATOM     11  C   UNL     1      -0.524 -12.881  -5.335  0.00  0.00    -0.040 C 
ATOM     12  C   UNL     1       0.066 -13.186  -6.513  0.00  0.00    -0.001 A 
ATOM     13  C   UNL     1       1.453 -13.090  -6.985  0.00  0.00    +0.010 A 
ATOM     14  C   UNL     1       1.745 -13.480  -8.246  0.00  0.00    +0.001 A 
ATOM     15  C   UNL     1       0.759 -13.971  -9.113  0.00  0.00    +0.002 A 
ATOM     16  C   UNL     1      -0.537 -14.088  -8.752  0.00  0.00    +0.026 A 
ATOM     17  C   UNL     1      -0.957 -13.708  -7.447  0.00  0.00    +0.043 A 
ATOM     18  N   UNL     1      -2.133 -13.726  -6.869  0.00  0.00    -0.380 N 
ATOM     19  C   UNL     1      -1.989 -13.222  -5.499  0.00  0.00    +0.144 C 
ATOM     20  H   UNL     1      -2.960 -14.026  -7.278  0.00  0.00    +0.160 HD
ENDBRANCH  10  11
ENDBRANCH   9  10
ENDBRANCH   7   9
ENDBRANCH   2   5
BRANCH   1  21
ATOM     21  C   UNL     1       1.964  -6.497  -0.044  0.00  0.00    +0.136 C 
BRANCH  21  22
ATOM     22  C   UNL     1       1.822  -4.974  -0.035  0.00  0.00    +0.189 C 
BRANCH  22  23
ATOM     23  C   UNL     1       2.489  -4.414   1.195  0.00  0.00    +0.016 A 
ATOM     24  C   UNL     1       3.513  -3.531   1.283  0.00  0.00    +0.013 A 
ATOM     25  C   UNL     1       3.968  -3.154   2.533  0.00  0.00    +0.008 A 
ATOM     26  C   UNL     1       3.377  -3.680   3.633  0.00  0.00    +0.045 A 
ATOM     27  S   UNL     1       2.131  -4.738   2.914  0.00  0.00    -0.100 S 
ENDBRANCH  22  23
BRANCH  22  28
ATOM     28  S   UNL     1       0.063  -4.530  -0.023  0.00  0.00    +0.006 S 
ATOM     29  O   UNL     1      -0.528  -4.907   1.213  0.00  0.00    -0.169 OA
ATOM     30  O   UNL     1      -0.542  -4.894  -1.256  0.00  0.00    -0.169 OA
BRANCH  28  35
ATOM     31  C   UNL     1      -0.018   1.503   0.010  0.00  0.00    +0.044 C 
ATOM     32  C   UNL     1       0.002  -0.004   0.002  0.00  0.00    -0.050 A 
ATOM     33  C   UNL     1       0.006  -0.689  -1.199  0.00  0.00    +0.005 A 
ATOM     34  C   UNL     1       0.025  -2.071  -1.206  0.00  0.00    +0.027 A 
ATOM     35  C   UNL     1       0.040  -2.768  -0.013  0.00  0.00    +0.089 A 
ATOM     36  C   UNL     1       0.037  -2.084   1.188  0.00  0.00    +0.027 A 
ATOM     37  C   UNL     1       0.023  -0.702   1.195  0.00  0.00    +0.005 A 
ENDBRANCH  28  35
ENDBRANCH  22  28
ENDBRANCH  21  22
ENDBRANCH   1  21
TORSDOF 9
