REMARK  Name = ZINC12476949
REMARK  13 active torsions:
REMARK  status: ('A' for Active; 'I' for Inactive)
REMARK    1  A    between atoms: C_1  and  C_2
REMARK    2  A    between atoms: C_5  and  C_8
REMARK    3  A    between atoms: C_8  and  C_10
REMARK    4  A    between atoms: C_8  and  N_17
REMARK    5  A    between atoms: N_12  and  C_13
REMARK    6  A    between atoms: C_13  and  C_14
REMARK    7  A    between atoms: C_13  and  C_15
REMARK    8  A    between atoms: C_13  and  C_16
REMARK    9  A    between atoms: N_17  and  C_18
REMARK   10  A    between atoms: C_18  and  C_19
REMARK   11  A    between atoms: C_28  and  C_30
REMARK   12  A    between atoms: C_31  and  N_38
REMARK   13  A    between atoms: C_32  and  C_35
REMARK                            x       y       z     vdW  Elec       q    Type
REMARK                         _______ _______ _______ _____ _____    ______ ____
ROOT
ATOM      1  N   UNL     1      -1.969  -0.136   1.688  0.00  0.00    -0.277 N 
ATOM      2  C   UNL     1      -2.749  -1.232   1.783  0.00  0.00    +0.258 C 
ATOM      3  O   UNL     1      -3.960  -1.122   1.736  0.00  0.00    -0.269 OA
ENDROOT
BRANCH   2   4
ATOM      4  C   UNL     1      -2.139  -2.553   1.942  0.00  0.00    +0.115 A 
ATOM      5  C   UNL     1      -2.748  -3.808   2.000  0.00  0.00    +0.076 A 
ATOM      6  C   UNL     1      -1.825  -4.843   2.156  0.00  0.00    +0.155 A 
ATOM      7  N   UNL     1      -0.545  -4.556   2.241  0.00  0.00    -0.203 NA
ATOM      8  S   UNL     1      -0.422  -2.989   2.123  0.00  0.00    +0.019 S 
BRANCH   6   9
ATOM      9  C   UNL     1      -2.282  -6.242   2.233  0.00  0.00    +0.262 C 
ATOM     10  O   UNL     1      -3.468  -6.500   2.155  0.00  0.00    -0.269 OA
ATOM     11  N   UNL     1      -1.385  -7.236   2.390  0.00  0.00    -0.324 N 
ATOM     12  H   UNL     1      -0.439  -7.030   2.452  0.00  0.00    +0.145 HD
ATOM     13  H   UNL     1      -1.686  -8.157   2.440  0.00  0.00    +0.145 HD
ENDBRANCH   6   9
BRANCH   5  14
ATOM     14  N   UNL     1      -4.119  -4.004   1.908  0.00  0.00    -0.355 N 
ATOM     15  H   UNL     1      -4.712  -3.244   1.797  0.00  0.00    +0.142 HD
ATOM     16  H   UNL     1      -4.485  -4.902   1.955  0.00  0.00    +0.142 HD
ENDBRANCH   5  14
ENDBRANCH   2   4
BRANCH   1  17
ATOM     17  C   UNL     1      -2.578   1.196   1.654  0.00  0.00    +0.193 C 
BRANCH  17  22
ATOM     18  C   UNL     1      -3.746   2.642  -3.817  0.00  0.00    +0.044 C 
ATOM     19  C   UNL     1      -3.441   2.265  -2.390  0.00  0.00    -0.050 A 
ATOM     20  C   UNL     1      -4.333   2.587  -1.385  0.00  0.00    +0.004 A 
ATOM     21  C   UNL     1      -4.054   2.241  -0.076  0.00  0.00    +0.006 A 
ATOM     22  C   UNL     1      -2.883   1.573   0.227  0.00  0.00    -0.018 A 
ATOM     23  C   UNL     1      -1.988   1.255  -0.777  0.00  0.00    +0.006 A 
ATOM     24  C   UNL     1      -2.270   1.597  -2.087  0.00  0.00    +0.004 A 
ENDBRANCH  17  22
BRANCH  17  25
ATOM     25  C   UNL     1      -1.623   2.200   2.247  0.00  0.00    +0.239 C 
ATOM     26  O   UNL     1      -0.455   2.191   1.921  0.00  0.00    -0.273 OA
ATOM     27  N   UNL     1      -2.068   3.108   3.137  0.00  0.00    -0.309 N 
ATOM     28  H   UNL     1      -2.971   3.046   3.484  0.00  0.00    +0.149 HD
BRANCH  27  29
ATOM     29  C   UNL     1      -1.185   4.190   3.583  0.00  0.00    +0.026 C 
ATOM     30  C   UNL     1      -0.705   4.989   2.369  0.00  0.00    +0.031 C 
ATOM     31  C   UNL     1      -1.951   5.114   4.532  0.00  0.00    +0.031 C 
ATOM     32  C   UNL     1       0.021   3.596   4.313  0.00  0.00    +0.031 C 
ENDBRANCH  27  29
ENDBRANCH  17  25
ENDBRANCH   1  17
BRANCH   1  33
ATOM     33  C   UNL     1      -0.513  -0.278   1.619  0.00  0.00    +0.144 C 
BRANCH  33  34
ATOM     34  C   UNL     1       0.060  -0.267   3.013  0.00  0.00    -0.026 A 
ATOM     35  C   UNL     1       1.394   0.039   3.208  0.00  0.00    +0.009 A 
ATOM     36  C   UNL     1       1.922   0.056   4.486  0.00  0.00    +0.050 A 
ATOM     37  C   UNL     1       1.118  -0.246   5.573  0.00  0.00    +0.166 A 
ATOM     38  C   UNL     1      -0.225  -0.560   5.375  0.00  0.00    +0.167 A 
ATOM     39  C   UNL     1      -0.749  -0.569   4.093  0.00  0.00    +0.054 A 
ATOM     40  O   UNL     1      -0.796  -0.816   6.588  0.00  0.00    -0.453 OA
ATOM     41  C   UNL     1       0.303  -1.055   7.488  0.00  0.00    +0.466 C 
ATOM     42  O   UNL     1       1.388  -0.306   6.909  0.00  0.00    -0.453 OA
ENDBRANCH  33  34
ENDBRANCH   1  33
TORSDOF 9
