REMARK  Name = ZINC08734740
REMARK  8 active torsions:
REMARK  status: ('A' for Active; 'I' for Inactive)
REMARK    1  A    between atoms: C_1  and  C_2
REMARK    2  A    between atoms: C_2  and  C_4
REMARK    3  A    between atoms: C_2  and  N_51
REMARK    4  A    between atoms: C_14  and  C_15
REMARK    5  A    between atoms: C_14  and  N_51
REMARK    6  A    between atoms: N_17  and  C_18
REMARK    7  A    between atoms: C_20  and  C_29
REMARK    8  A    between atoms: C_23  and  N_24
REMARK                            x       y       z     vdW  Elec       q    Type
REMARK                         _______ _______ _______ _____ _____    ______ ____
ROOT
ATOM      1  C   UNL     1       7.801   3.640   2.230  0.00  0.00    +0.200 C 
ATOM      2  O   UNL     1       7.674   2.453   2.443  0.00  0.00    -0.278 OA
ATOM      3  N   UNL     1       8.811   4.323   2.804  0.00  0.00    -0.285 N 
ATOM      4  H   UNL     1       8.952   5.257   2.583  0.00  0.00    +0.155 HD
ENDROOT
BRANCH   3   5
ATOM      5  C   UNL     1       9.656   3.685   3.720  0.00  0.00    +0.060 A 
ATOM      6  C   UNL     1       9.986   2.349   3.547  0.00  0.00    +0.037 A 
ATOM      7  C   UNL     1      10.825   1.722   4.449  0.00  0.00    +0.057 A 
ATOM      8  C   UNL     1      11.328   2.421   5.532  0.00  0.00    +0.014 A 
ATOM      9  C   UNL     1      11.000   3.751   5.715  0.00  0.00    +0.030 A 
ATOM     10  C   UNL     1      10.163   4.389   4.811  0.00  0.00    +0.088 A 
BRANCH  10  11
ATOM     11  N   UNL     1       9.829   5.739   4.995  0.00  0.00    -0.218 N 
ATOM     12  C   UNL     1      10.310   6.569   5.940  0.00  0.00    +0.225 A 
ATOM     13  N   UNL     1       9.754   7.741   5.771  0.00  0.00    -0.222 NA
ATOM     14  C   UNL     1       8.909   7.697   4.742  0.00  0.00    +0.245 A 
ATOM     15  N   UNL     1       8.920   6.492   4.234  0.00  0.00    -0.153 NA
ENDBRANCH  10  11
BRANCH   7  16
ATOM     16  C   UNL     1      11.187   0.272   4.257  0.00  0.00    +0.417 C 
ATOM     17  F   UNL     1      12.034  -0.138   5.291  0.00  0.00    -0.166 F 
ATOM     18  F   UNL     1      10.024  -0.505   4.271  0.00  0.00    -0.166 F 
ATOM     19  F   UNL     1      11.839   0.114   3.029  0.00  0.00    -0.166 F 
ENDBRANCH   7  16
ENDBRANCH   3   5
BRANCH   1  20
ATOM     20  C   UNL     1       6.830   4.351   1.323  0.00  0.00    +0.016 C 
BRANCH  20  21
ATOM     21  N   UNL     1       5.831   3.384   0.831  0.00  0.00    +0.389 N 
ATOM     22  H   UNL     1       6.309   2.638   0.313  0.00  0.00    -0.084 HD
ATOM     23  H   UNL     1       5.329   2.979   1.630  0.00  0.00    -0.084 HD
BRANCH  21  25
ATOM     24  C   UNL     1       5.429   4.100  -1.482  0.00  0.00    -0.009 C 
ATOM     25  C   UNL     1       4.865   4.054  -0.060  0.00  0.00    -0.043 C 
BRANCH  25  26
ATOM     26  C   UNL     1       3.571   3.282  -0.058  0.00  0.00    -0.061 A 
ATOM     27  C   UNL     1       3.604   1.888  -0.058  0.00  0.00    +0.002 A 
ATOM     28  C   UNL     1       2.454   1.161  -0.056  0.00  0.00    +0.009 A 
ATOM     29  C   UNL     1       1.213   1.821  -0.054  0.00  0.00    -0.018 A 
ATOM     30  C   UNL     1       0.005   1.103  -0.053  0.00  0.00    +0.008 A 
ATOM     31  C   UNL     1      -1.178   1.776  -0.057  0.00  0.00    +0.001 A 
ATOM     32  C   UNL     1      -1.210   3.170  -0.051  0.00  0.00    +0.001 A 
ATOM     33  C   UNL     1      -0.060   3.898  -0.053  0.00  0.00    +0.008 A 
ATOM     34  C   UNL     1       1.180   3.237  -0.055  0.00  0.00    -0.018 A 
ATOM     35  C   UNL     1       2.389   3.955  -0.057  0.00  0.00    +0.010 A 
ENDBRANCH  25  26
ENDBRANCH  21  25
ENDBRANCH  20  21
ENDBRANCH   1  20
TORSDOF 7
