REMARK  Name = ZINC08790424
REMARK  7 active torsions:
REMARK  status: ('A' for Active; 'I' for Inactive)
REMARK    1  A    between atoms: C_1  and  C_2
REMARK    2  A    between atoms: C_16  and  C_18
REMARK    3  A    between atoms: C_18  and  C_19
REMARK    4  A    between atoms: C_19  and  C_20
REMARK    5  A    between atoms: N_25  and  C_28
REMARK    6  A    between atoms: C_28  and  C_29
REMARK    7  A    between atoms: C_29  and  C_30
REMARK                            x       y       z     vdW  Elec       q    Type
REMARK                         _______ _______ _______ _____ _____    ______ ____
ROOT
ATOM      1  C   UNL     1       3.309   5.617   7.324  0.00  0.00    +0.045 C 
ATOM      2  C   UNL     1       2.311   5.080   6.332  0.00  0.00    -0.029 A 
ATOM      3  C   UNL     1       1.643   5.947   5.491  0.00  0.00    +0.005 A 
ATOM      4  C   UNL     1       0.726   5.464   4.576  0.00  0.00    +0.001 A 
ATOM      5  C   UNL     1       0.475   4.105   4.504  0.00  0.00    +0.004 A 
ATOM      6  C   UNL     1       1.138   3.236   5.342  0.00  0.00    -0.027 A 
ATOM      7  C   UNL     1       2.064   3.711   6.266  0.00  0.00    +0.039 A 
ATOM      8  N   UNL     1       2.603   2.651   6.999  0.00  0.00    -0.286 N 
ATOM      9  C   UNL     1       2.090   1.463   6.624  0.00  0.00    +0.211 C 
ATOM     10  O   UNL     1       2.370   0.376   7.084  0.00  0.00    -0.277 OA
ATOM     11  C   UNL     1       1.103   1.746   5.524  0.00  0.00    +0.050 C 
ATOM     12  C   UNL     1       1.480   1.009   4.233  0.00  0.00    +0.088 C 
ATOM     13  C   UNL     1       0.605  -0.276   4.229  0.00  0.00    +0.073 C 
ATOM     14  C   UNL     1      -0.212  -0.204   5.536  0.00  0.00    -0.057 C 
ATOM     15  C   UNL     1      -0.311  -0.071   3.044  0.00  0.00    +0.224 C 
ATOM     16  O   UNL     1      -1.173  -0.843   2.684  0.00  0.00    -0.275 OA
ATOM     17  N   UNL     1      -0.020   1.094   2.454  0.00  0.00    -0.241 N 
ATOM     18  C   UNL     1       0.967   1.782   3.039  0.00  0.00    +0.225 C 
ATOM     19  O   UNL     1       1.385   2.858   2.669  0.00  0.00    -0.275 OA
ATOM     20  H   UNL     1       3.268   2.758   7.696  0.00  0.00    +0.155 HD
ATOM     21  N   UNL     1      -0.219   1.224   5.874  0.00  0.00    +0.394 N 
ATOM     22  H   UNL     1      -0.946   1.711   5.336  0.00  0.00    -0.083 HD
ATOM     23  H   UNL     1      -0.395   1.349   6.878  0.00  0.00    -0.083 HD
ENDROOT
BRANCH  14  24
ATOM     24  C   UNL     1      -1.631  -0.728   5.307  0.00  0.00    -0.006 C 
BRANCH  24  25
ATOM     25  C   UNL     1      -2.383  -0.765   6.639  0.00  0.00    +0.094 C 
BRANCH  25  26
ATOM     26  C   UNL     1      -3.781  -1.281   6.413  0.00  0.00    +0.210 C 
ATOM     27  O   UNL     1      -4.140  -1.589   5.296  0.00  0.00    -0.276 OA
ATOM     28  N   UNL     1      -4.631  -1.400   7.452  0.00  0.00    -0.329 N 
ATOM     29  H   UNL     1      -4.344  -1.153   8.345  0.00  0.00    +0.145 HD
ATOM     30  H   UNL     1      -5.531  -1.733   7.306  0.00  0.00    +0.145 HD
ENDBRANCH  25  26
ENDBRANCH  24  25
ENDBRANCH  14  24
BRANCH  17  31
ATOM     31  C   UNL     1      -0.729   1.579   1.267  0.00  0.00    +0.121 C 
BRANCH  31  32
ATOM     32  C   UNL     1      -0.013   1.086   0.008  0.00  0.00    +0.054 C 
BRANCH  32  33
ATOM     33  C   UNL     1      -0.742   1.585  -1.213  0.00  0.00    -0.046 A 
ATOM     34  C   UNL     1      -1.750   0.825  -1.775  0.00  0.00    +0.004 A 
ATOM     35  C   UNL     1      -2.422   1.285  -2.892  0.00  0.00    +0.000 A 
ATOM     36  C   UNL     1      -2.078   2.501  -3.453  0.00  0.00    +0.000 A 
ATOM     37  C   UNL     1      -1.066   3.259  -2.894  0.00  0.00    +0.000 A 
ATOM     38  C   UNL     1      -0.398   2.801  -1.774  0.00  0.00    +0.004 A 
ENDBRANCH  32  33
ENDBRANCH  31  32
ENDBRANCH  17  31
TORSDOF 6
