REMARK  Name = ZINC62569822
REMARK  4 active torsions:
REMARK  status: ('A' for Active; 'I' for Inactive)
REMARK    1  A    between atoms: C_1  and  C_2
REMARK    2  A    between atoms: C_4  and  C_17
REMARK    3  A    between atoms: C_11  and  N_16
REMARK    4  A    between atoms: C_13  and  O_15
REMARK                            x       y       z     vdW  Elec       q    Type
REMARK                         _______ _______ _______ _____ _____    ______ ____
ROOT
ATOM      1  C   UNL     1      -0.018   1.503   0.010  0.00  0.00    +0.044 C 
ATOM      2  C   UNL     1       0.002  -0.004   0.002  0.00  0.00    -0.047 A 
ATOM      3  C   UNL     1       0.006  -0.691  -1.198  0.00  0.00    +0.007 A 
ATOM      4  C   UNL     1       0.027  -2.071  -1.205  0.00  0.00    -0.041 A 
ATOM      5  C   UNL     1       0.043  -2.779  -0.012  0.00  0.00    +0.024 A 
ATOM      6  C   UNL     1       0.035  -2.094   1.188  0.00  0.00    +0.127 A 
ATOM      7  C   UNL     1       0.023  -0.702   1.192  0.00  0.00    +0.049 A 
ATOM      8  O   UNL     1       0.040  -2.740   2.381  0.00  0.00    -0.492 OA
ATOM      9  C   UNL     1      -0.921  -3.781   2.580  0.00  0.00    +0.227 C 
ATOM     10  C   UNL     1      -0.245  -5.117   2.249  0.00  0.00    +0.028 C 
ATOM     11  C   UNL     1       0.787  -4.867   1.140  0.00  0.00    -0.038 C 
ATOM     12  C   UNL     1       0.071  -4.283  -0.078  0.00  0.00    +0.134 C 
ATOM     13  C   UNL     1       0.032  -2.813  -2.516  0.00  0.00    +0.044 C 
ENDROOT
BRANCH  11  14
ATOM     14  N   UNL     1       1.432  -6.135   0.774  0.00  0.00    +0.382 N 
ATOM     15  H   UNL     1       0.734  -6.785   0.443  0.00  0.00    -0.090 HD
ATOM     16  H   UNL     1       2.109  -5.970   0.045  0.00  0.00    -0.090 HD
ATOM     17  H   UNL     1       1.895  -6.523   1.582  0.00  0.00    -0.090 HD
ENDBRANCH  11  14
BRANCH  12  18
ATOM     18  O   UNL     1      -1.270  -4.777  -0.117  0.00  0.00    -0.389 OA
ATOM     19  H   UNL     1      -1.782  -4.466  -0.875  0.00  0.00    +0.210 HD
ENDBRANCH  12  18
TORSDOF 2
