REMARK  Name = ZINC31167254
REMARK  17 active torsions:
REMARK  status: ('A' for Active; 'I' for Inactive)
REMARK    1  A    between atoms: C_1  and  C_2
REMARK    2  A    between atoms: C_4  and  C_11
REMARK    3  A    between atoms: C_8  and  C_9
REMARK    4  A    between atoms: C_8  and  O_10
REMARK    5  A    between atoms: C_11  and  C_12
REMARK    6  A    between atoms: C_11  and  C_13
REMARK    7  A    between atoms: C_11  and  O_19
REMARK    8  A    between atoms: C_13  and  C_14
REMARK    9  A    between atoms: C_14  and  C_15
REMARK   10  A    between atoms: C_16  and  C_17
REMARK   11  A    between atoms: C_16  and  C_18
REMARK   12  A    between atoms: O_19  and  C_20
REMARK   13  A    between atoms: C_22  and  O_35
REMARK   14  A    between atoms: C_24  and  O_34
REMARK   15  A    between atoms: C_26  and  O_33
REMARK   16  A    between atoms: C_28  and  C_31
REMARK   17  A    between atoms: C_31  and  O_32
REMARK                            x       y       z     vdW  Elec       q    Type
REMARK                         _______ _______ _______ _____ _____    ______ ____
ROOT
ATOM      1  C   UNL     1      -0.060  -0.554  -3.330  0.00  0.00    +0.073 C 
ATOM      2  C   UNL     1      -0.566  -0.065  -4.689  0.00  0.00    +0.042 C 
ENDROOT
BRANCH   1   5
ATOM      3  C   UNL     1      -0.188   3.030  -2.984  0.00  0.00    +0.011 C 
ATOM      4  C   UNL     1       0.713   1.797  -2.888  0.00  0.00    +0.023 C 
ATOM      5  C   UNL     1      -0.082   0.604  -2.330  0.00  0.00    +0.026 C 
ATOM      6  C   UNL     1       0.614   0.184  -1.019  0.00  0.00    +0.009 C 
ATOM      7  C   UNL     1       1.361   1.461  -0.560  0.00  0.00    +0.035 C 
ATOM      8  C   UNL     1       1.865   2.061  -1.896  0.00  0.00    +0.066 C 
ATOM      9  C   UNL     1       2.112   3.564  -1.749  0.00  0.00    +0.041 C 
BRANCH   8  10
ATOM     10  O   UNL     1       3.056   1.397  -2.324  0.00  0.00    -0.389 OA
ATOM     11  H   UNL     1       3.977   1.480  -1.729  0.00  0.00    +0.210 HD
ENDBRANCH   8  10
ENDBRANCH   1   5
BRANCH   1  12
ATOM     12  C   UNL     1       1.372  -1.074  -3.476  0.00  0.00    +0.039 C 
BRANCH  12  13
ATOM     13  C   UNL     1       1.419  -2.135  -4.577  0.00  0.00    +0.030 C 
BRANCH  13  14
ATOM     14  C   UNL     1       2.829  -2.647  -4.721  0.00  0.00    -0.028 C 
ATOM     15  C   UNL     1       3.076  -3.928  -4.603  0.00  0.00    -0.080 C 
ATOM     16  C   UNL     1       1.950  -4.891  -4.329  0.00  0.00    +0.038 C 
ATOM     17  C   UNL     1       4.487  -4.439  -4.742  0.00  0.00    +0.038 C 
ENDBRANCH  13  14
ENDBRANCH  12  13
ENDBRANCH   1  12
BRANCH   1  18
ATOM     18  O   UNL     1      -0.903  -1.607  -2.858  0.00  0.00    -0.342 OA
BRANCH  18  19
ATOM     19  C   UNL     1      -2.291  -1.268  -2.824  0.00  0.00    +0.282 C 
ATOM     20  C   UNL     1      -3.128  -2.550  -2.806  0.00  0.00    +0.201 C 
ATOM     21  C   UNL     1      -2.811  -3.341  -1.534  0.00  0.00    +0.179 C 
ATOM     22  C   UNL     1      -3.080  -2.454  -0.314  0.00  0.00    +0.177 C 
ATOM     23  C   UNL     1      -2.244  -1.177  -0.427  0.00  0.00    +0.178 C 
ATOM     24  O   UNL     1      -2.566  -0.505  -1.647  0.00  0.00    -0.341 OA
BRANCH  22  25
ATOM     25  O   UNL     1      -4.467  -2.115  -0.267  0.00  0.00    -0.386 OA
ATOM     26  H   UNL     1      -4.850  -1.479   0.545  0.00  0.00    +0.210 HD
ENDBRANCH  22  25
BRANCH  21  27
ATOM     27  O   UNL     1      -3.642  -4.502  -1.473  0.00  0.00    -0.386 OA
ATOM     28  H   UNL     1      -3.555  -5.196  -0.624  0.00  0.00    +0.210 HD
ENDBRANCH  21  27
BRANCH  20  29
ATOM     29  O   UNL     1      -2.814  -3.342  -3.953  0.00  0.00    -0.384 OA
ATOM     30  H   UNL     1      -3.320  -4.305  -4.112  0.00  0.00    +0.210 HD
ENDBRANCH  20  29
BRANCH  23  31
ATOM     31  C   UNL     1      -2.552  -0.258   0.757  0.00  0.00    +0.190 C 
BRANCH  31  32
ATOM     32  O   UNL     1      -1.710   0.894   0.698  0.00  0.00    -0.392 OA
ATOM     33  H   UNL     1      -1.787   1.673   1.471  0.00  0.00    +0.210 HD
ENDBRANCH  31  32
ENDBRANCH  23  31
ENDBRANCH  18  19
ENDBRANCH   1  18
TORSDOF 12
