REMARK  Name = ZINC64376034
REMARK  7 active torsions:
REMARK  status: ('A' for Active; 'I' for Inactive)
REMARK    1  A    between atoms: C_3  and  S_10
REMARK    2  A    between atoms: S_10  and  N_13
REMARK    3  A    between atoms: N_13  and  N_14
REMARK    4  A    between atoms: N_17  and  C_18
REMARK    5  A    between atoms: C_18  and  C_19
REMARK    6  A    between atoms: C_19  and  C_20
REMARK    7  A    between atoms: C_20  and  N_21
REMARK                            x       y       z     vdW  Elec       q    Type
REMARK                         _______ _______ _______ _____ _____    ______ ____
ROOT
ATOM      1  N   UNL     1       5.024   0.676   1.716  0.00  0.00    -0.216 N 
ATOM      2  C   UNL     1       6.305   0.378   2.014  0.00  0.00    +0.315 C 
ATOM      3  O   UNL     1       6.615  -0.765   2.288  0.00  0.00    -0.251 OA
ATOM      4  N   UNL     1       7.241   1.347   2.010  0.00  0.00    -0.298 N 
ATOM      5  H   UNL     1       4.351  -0.022   1.720  0.00  0.00    +0.172 HD
ATOM      6  H   UNL     1       6.993   2.260   1.792  0.00  0.00    +0.150 HD
ENDROOT
BRANCH   1   7
ATOM      7  N   UNL     1       4.667   1.993   1.401  0.00  0.00    -0.107 NA
ATOM      8  H   UNL     1       4.875   2.713   2.018  0.00  0.00    +0.172 HD
BRANCH   7   9
ATOM      9  S   UNL     1       3.889   2.322  -0.023  0.00  0.00    +0.076 S 
ATOM     10  O   UNL     1       4.688   1.768  -1.059  0.00  0.00    -0.152 OA
ATOM     11  O   UNL     1       3.538   3.699   0.014  0.00  0.00    -0.152 OA
BRANCH   9  14
ATOM     12  C   UNL     1      -0.017   1.380   0.010  0.00  0.00    +0.043 A 
ATOM     13  C   UNL     1       1.171   2.088   0.002  0.00  0.00    +0.034 A 
ATOM     14  C   UNL     1       2.378   1.416  -0.013  0.00  0.00    +0.145 A 
ATOM     15  C   UNL     1       2.401   0.032  -0.021  0.00  0.00    +0.187 A 
ATOM     16  C   UNL     1       1.212  -0.680  -0.013  0.00  0.00    +0.195 A 
ATOM     17  C   UNL     1       0.002  -0.004   0.002  0.00  0.00    +0.161 A 
ATOM     18  F   UNL     1      -1.158  -0.696   0.010  0.00  0.00    -0.202 F 
ATOM     19  F   UNL     1       1.233  -2.031  -0.021  0.00  0.00    -0.199 F 
ATOM     20  F   UNL     1       3.582  -0.624  -0.036  0.00  0.00    -0.200 F 
ENDBRANCH   9  14
ENDBRANCH   7   9
ENDBRANCH   1   7
BRANCH   4  21
ATOM     21  C   UNL     1       8.633   1.024   2.334  0.00  0.00    +0.107 C 
BRANCH  21  22
ATOM     22  C   UNL     1       9.483   2.293   2.256  0.00  0.00    +0.040 C 
BRANCH  22  23
ATOM     23  C   UNL     1      10.936   1.955   2.595  0.00  0.00    +0.124 C 
BRANCH  23  24
ATOM     24  N   UNL     1      11.750   3.171   2.521  0.00  0.00    -0.338 N 
ATOM     25  C   UNL     1      12.398   3.648   1.413  0.00  0.00    +0.104 A 
ATOM     26  C   UNL     1      13.022   4.782   1.786  0.00  0.00    +0.101 A 
ATOM     27  N   UNL     1      12.762   4.991   3.085  0.00  0.00    -0.352 N 
ATOM     28  C   UNL     1      11.997   4.033   3.530  0.00  0.00    +0.173 A 
ATOM     29  H   UNL     1      13.089   5.739   3.610  0.00  0.00    +0.166 HD
ENDBRANCH  23  24
ENDBRANCH  22  23
ENDBRANCH  21  22
ENDBRANCH   4  21
TORSDOF 7
