REMARK  Name = ZINC45790193
REMARK  12 active torsions:
REMARK  status: ('A' for Active; 'I' for Inactive)
REMARK    1  A    between atoms: C_1  and  C_2
REMARK    2  A    between atoms: C_2  and  C_3
REMARK    3  A    between atoms: C_2  and  N_4
REMARK    4  A    between atoms: N_4  and  C_5
REMARK    5  A    between atoms: N_4  and  C_6
REMARK    6  A    between atoms: C_6  and  C_7
REMARK    7  A    between atoms: C_12  and  C_13
REMARK    8  A    between atoms: C_13  and  N_14
REMARK    9  A    between atoms: N_17  and  N_18
REMARK   10  A    between atoms: N_18  and  C_19
REMARK   11  A    between atoms: C_19  and  N_21
REMARK   12  A    between atoms: N_21  and  C_22
REMARK                            x       y       z     vdW  Elec       q    Type
REMARK                         _______ _______ _______ _____ _____    ______ ____
ROOT
ATOM      1  N   UNL     1      -2.150  -3.401  -2.722  0.00  0.00    -0.294 N 
ATOM      2  C   UNL     1      -1.534  -3.237  -3.909  0.00  0.00    +0.316 C 
ATOM      3  O   UNL     1      -1.760  -2.249  -4.581  0.00  0.00    -0.251 OA
ATOM      4  N   UNL     1      -0.666  -4.169  -4.353  0.00  0.00    -0.219 N 
ATOM      5  H   UNL     1      -1.969  -4.189  -2.186  0.00  0.00    +0.151 HD
ATOM      6  H   UNL     1      -0.223  -4.051  -5.207  0.00  0.00    +0.174 HD
ENDROOT
BRANCH   4   7
ATOM      7  N   UNL     1      -0.405  -5.307  -3.579  0.00  0.00    -0.245 N 
ATOM      8  H   UNL     1      -0.849  -5.425  -2.725  0.00  0.00    +0.172 HD
BRANCH   7   9
ATOM      9  C   UNL     1       0.462  -6.239  -4.023  0.00  0.00    +0.147 C 
ATOM     10  S   UNL     1       0.781  -7.630  -3.078  0.00  0.00    -0.017 S 
BRANCH   9  11
ATOM     11  N   UNL     1       1.078  -6.075  -5.210  0.00  0.00    -0.323 N 
ATOM     12  H   UNL     1       0.897  -5.287  -5.746  0.00  0.00    +0.148 HD
BRANCH  11  13
ATOM     13  C   UNL     1       2.020  -7.088  -5.692  0.00  0.00    +0.072 C 
ATOM     14  C   UNL     1       1.266  -8.179  -6.480  0.00  0.00    +0.022 C 
ATOM     15  C   UNL     1       1.399  -7.741  -7.960  0.00  0.00    +0.002 C 
ATOM     16  C   UNL     1       2.842  -7.179  -8.021  0.00  0.00    +0.002 C 
ATOM     17  C   UNL     1       3.022  -6.452  -6.672  0.00  0.00    +0.022 C 
ENDBRANCH  11  13
ENDBRANCH   9  11
ENDBRANCH   7   9
ENDBRANCH   4   7
BRANCH   1  18
ATOM     18  C   UNL     1      -3.092  -2.388  -2.240  0.00  0.00    +0.141 C 
BRANCH  18  24
ATOM     19  C   UNL     1      -2.745  -2.422   0.239  0.00  0.00    -0.059 A 
ATOM     20  C   UNL     1      -3.160  -2.743   1.518  0.00  0.00    +0.002 A 
ATOM     21  C   UNL     1      -4.366  -3.388   1.713  0.00  0.00    +0.000 A 
ATOM     22  C   UNL     1      -5.159  -3.713   0.628  0.00  0.00    +0.000 A 
ATOM     23  C   UNL     1      -4.746  -3.392  -0.651  0.00  0.00    +0.005 A 
ATOM     24  C   UNL     1      -3.541  -2.743  -0.845  0.00  0.00    -0.029 A 
BRANCH  19  25
ATOM     25  C   UNL     1      -1.430  -1.719   0.027  0.00  0.00    -0.043 C 
BRANCH  25  26
ATOM     26  N   UNL     1      -0.404  -2.701  -0.350  0.00  0.00    +0.382 N 
ATOM     27  C   UNL     1      -0.178  -3.626   0.769  0.00  0.00    -0.095 C 
ATOM     28  H   UNL     1      -0.716  -3.220  -1.157  0.00  0.00    -0.081 HD
BRANCH  26  30
ATOM     29  C   UNL     1       1.916  -3.026  -1.061  0.00  0.00    -0.014 C 
ATOM     30  C   UNL     1       0.848  -2.003  -0.669  0.00  0.00    -0.075 C 
ATOM     31  C   UNL     1       0.613  -1.040  -1.835  0.00  0.00    -0.014 C 
ENDBRANCH  26  30
ENDBRANCH  25  26
ENDBRANCH  19  25
ENDBRANCH  18  24
ENDBRANCH   1  18
TORSDOF 9
