REMARK  Name = ZINC38845765
REMARK  15 active torsions:
REMARK  status: ('A' for Active; 'I' for Inactive)
REMARK    1  A    between atoms: C_1  and  N_2
REMARK    2  A    between atoms: N_2  and  C_3
REMARK    3  A    between atoms: N_2  and  C_4
REMARK    4  A    between atoms: C_4  and  C_5
REMARK    5  A    between atoms: C_5  and  N_6
REMARK    6  A    between atoms: C_12  and  S_16
REMARK    7  A    between atoms: S_16  and  C_19
REMARK    8  A    between atoms: C_20  and  C_22
REMARK    9  A    between atoms: C_23  and  C_24
REMARK   10  A    between atoms: C_26  and  O_34
REMARK   11  A    between atoms: C_27  and  O_32
REMARK   12  A    between atoms: C_28  and  O_30
REMARK   13  A    between atoms: O_30  and  C_31
REMARK   14  A    between atoms: O_32  and  C_33
REMARK   15  A    between atoms: O_34  and  C_35
REMARK                            x       y       z     vdW  Elec       q    Type
REMARK                         _______ _______ _______ _____ _____    ______ ____
ROOT
ATOM      1  N   UNL     1      -2.733  -2.544  -0.111  0.00  0.00    -0.249 N 
ATOM      2  C   UNL     1      -3.429  -2.679  -1.299  0.00  0.00    +0.168 A 
ATOM      3  N   UNL     1      -3.031  -2.413  -2.522  0.00  0.00    -0.224 NA
ATOM      4  C   UNL     1      -3.826  -2.595  -3.599  0.00  0.00    +0.080 A 
ATOM      5  C   UNL     1      -3.523  -2.350  -4.959  0.00  0.00    +0.031 A 
ATOM      6  C   UNL     1      -4.452  -2.590  -5.937  0.00  0.00    +0.029 A 
ATOM      7  C   UNL     1      -5.715  -3.078  -5.634  0.00  0.00    +0.089 A 
ATOM      8  C   UNL     1      -6.045  -3.328  -4.315  0.00  0.00    +0.044 A 
ATOM      9  C   UNL     1      -5.121  -3.091  -3.328  0.00  0.00    +0.043 A 
ATOM     10  S   UNL     1      -5.097  -3.266  -1.560  0.00  0.00    -0.052 S 
ATOM     11  C   UNL     1      -3.319  -2.879   1.055  0.00  0.00    +0.245 C 
ATOM     12  O   UNL     1      -4.461  -3.300   1.064  0.00  0.00    -0.270 OA
ENDROOT
BRANCH   7  13
ATOM     13  S   UNL     1      -6.886  -3.374  -6.917  0.00  0.00    -0.006 S 
ATOM     14  O   UNL     1      -8.153  -3.252  -6.286  0.00  0.00    -0.170 OA
ATOM     15  O   UNL     1      -6.509  -2.489  -7.963  0.00  0.00    -0.170 OA
ATOM     16  C   UNL     1      -6.601  -5.093  -7.420  0.00  0.00    +0.200 C 
ENDBRANCH   7  13
BRANCH  11  17
ATOM     17  C   UNL     1      -2.583  -2.736   2.310  0.00  0.00    +0.068 C 
ATOM     18  C   UNL     1      -3.170  -3.071   3.479  0.00  0.00    +0.013 C 
BRANCH  18  19
ATOM     19  C   UNL     1      -2.430  -2.928   4.741  0.00  0.00    -0.018 A 
ATOM     20  C   UNL     1      -1.119  -2.438   4.734  0.00  0.00    +0.057 A 
ATOM     21  C   UNL     1      -0.426  -2.305   5.922  0.00  0.00    +0.166 A 
ATOM     22  C   UNL     1      -1.031  -2.657   7.126  0.00  0.00    +0.204 A 
ATOM     23  C   UNL     1      -2.336  -3.145   7.137  0.00  0.00    +0.166 A 
ATOM     24  C   UNL     1      -3.037  -3.275   5.953  0.00  0.00    +0.057 A 
BRANCH  23  25
ATOM     25  O   UNL     1      -2.922  -3.488   8.315  0.00  0.00    -0.491 OA
ATOM     26  C   UNL     1      -4.262  -3.981   8.253  0.00  0.00    +0.277 C 
ENDBRANCH  23  25
BRANCH  22  27
ATOM     27  O   UNL     1      -0.347  -2.526   8.293  0.00  0.00    -0.488 OA
ATOM     28  C   UNL     1      -0.462  -1.275   8.975  0.00  0.00    +0.277 C 
ENDBRANCH  22  27
BRANCH  21  29
ATOM     29  O   UNL     1       0.848  -1.829   5.915  0.00  0.00    -0.491 OA
ATOM     30  C   UNL     1       1.406  -1.487   4.645  0.00  0.00    +0.277 C 
ENDBRANCH  21  29
ENDBRANCH  18  19
ENDBRANCH  11  17
BRANCH   1  31
ATOM     31  C   UNL     1      -1.358  -2.037  -0.122  0.00  0.00    +0.097 C 
BRANCH  31  32
ATOM     32  C   UNL     1      -1.376  -0.512   0.012  0.00  0.00    -0.060 C 
BRANCH  32  34
ATOM     33  C   UNL     1      -0.018   1.465   0.010  0.00  0.00    -0.097 C 
ATOM     34  N   UNL     1       0.002  -0.004   0.002  0.00  0.00    +0.377 N 
ATOM     35  C   UNL     1       0.713  -0.491   1.192  0.00  0.00    -0.097 C 
ATOM     36  H   UNL     1       0.474  -0.330  -0.828  0.00  0.00    -0.083 HD
ENDBRANCH  32  34
ENDBRANCH  31  32
ENDBRANCH   1  31
TORSDOF 9
