REMARK  Name = ZINC25161001
REMARK  10 active torsions:
REMARK  status: ('A' for Active; 'I' for Inactive)
REMARK    1  A    between atoms: C_11  and  C_13
REMARK    2  A    between atoms: C_13  and  C_14
REMARK    3  A    between atoms: C_14  and  C_15
REMARK    4  A    between atoms: N_17  and  C_18
REMARK    5  A    between atoms: C_18  and  C_19
REMARK    6  A    between atoms: C_19  and  C_20
REMARK    7  A    between atoms: C_20  and  C_21
REMARK    8  A    between atoms: C_22  and  C_34
REMARK    9  A    between atoms: C_23  and  N_33
REMARK   10  A    between atoms: N_24  and  C_26
REMARK                            x       y       z     vdW  Elec       q    Type
REMARK                         _______ _______ _______ _____ _____    ______ ____
ROOT
ATOM      1  C   UNL     1       9.882  -2.104  -0.112  0.00  0.00    +0.104 C 
ENDROOT
BRANCH   1   4
ATOM      2  C   UNL     1       7.447  -2.195  -0.087  0.00  0.00    +0.213 C 
ATOM      3  O   UNL     1       7.522  -3.405  -0.095  0.00  0.00    -0.276 OA
ATOM      4  N   UNL     1       8.571  -1.451  -0.094  0.00  0.00    -0.315 N 
ATOM      5  H   UNL     1       8.512  -0.483  -0.088  0.00  0.00    +0.149 HD
BRANCH   2   6
ATOM      6  C   UNL     1       6.099  -1.523  -0.069  0.00  0.00    +0.103 C 
BRANCH   6   7
ATOM      7  C   UNL     1       4.999  -2.586  -0.063  0.00  0.00    +0.083 C 
BRANCH   7  18
ATOM      8  C   UNL     1      -0.017   1.373   0.010  0.00  0.00    +0.001 A 
ATOM      9  C   UNL     1       1.169   2.096   0.002  0.00  0.00    +0.002 A 
ATOM     10  C   UNL     1       2.387   1.453  -0.013  0.00  0.00    +0.028 A 
ATOM     11  C   UNL     1       2.432   0.058  -0.021  0.00  0.00    +0.078 A 
ATOM     12  C   UNL     1       1.224  -0.674  -0.013  0.00  0.00    +0.065 A 
ATOM     13  C   UNL     1       0.002  -0.004   0.002  0.00  0.00    +0.015 A 
ATOM     14  C   UNL     1       1.306  -2.142  -0.022  0.00  0.00    +0.259 A 
ATOM     15  O   UNL     1       0.302  -2.832  -0.017  0.00  0.00    -0.267 OA
ATOM     16  N   UNL     1       2.540  -2.697  -0.038  0.00  0.00    -0.310 N 
ATOM     17  H   UNL     1       2.633  -3.663  -0.045  0.00  0.00    +0.170 HD
ATOM     18  C   UNL     1       3.650  -1.914  -0.045  0.00  0.00    +0.111 A 
ATOM     19  N   UNL     1       3.609  -0.616  -0.037  0.00  0.00    -0.234 NA
ENDBRANCH   7  18
ENDBRANCH   6   7
ENDBRANCH   2   6
ENDBRANCH   1   4
BRANCH   1  20
ATOM     20  C   UNL     1      10.982  -1.041  -0.117  0.00  0.00    +0.025 C 
BRANCH  20  21
ATOM     21  C   UNL     1      12.351  -1.723  -0.136  0.00  0.00    +0.060 C 
BRANCH  21  22
ATOM     22  C   UNL     1      13.435  -0.676  -0.141  0.00  0.00    +0.083 A 
ATOM     23  C   UNL     1      14.015  -0.089  -1.290  0.00  0.00    +0.114 A 
ATOM     24  C   UNL     1      14.968   0.823  -0.845  0.00  0.00    +0.138 A 
ATOM     25  N   UNL     1      14.956   0.782   0.507  0.00  0.00    -0.217 N 
ATOM     26  N   UNL     1      13.995  -0.150   0.913  0.00  0.00    -0.168 NA
BRANCH  25  27
ATOM     27  C   UNL     1      15.767   1.547   1.357  0.00  0.00    +0.068 A 
ATOM     28  C   UNL     1      17.067   1.860   0.983  0.00  0.00    +0.030 A 
ATOM     29  C   UNL     1      17.863   2.613   1.822  0.00  0.00    +0.040 A 
ATOM     30  C   UNL     1      17.367   3.056   3.037  0.00  0.00    +0.124 A 
ATOM     31  C   UNL     1      16.071   2.745   3.412  0.00  0.00    +0.040 A 
ATOM     32  C   UNL     1      15.269   1.997   2.573  0.00  0.00    +0.030 A 
ATOM     33  F   UNL     1      18.148   3.793   3.856  0.00  0.00    -0.205 F 
ENDBRANCH  25  27
BRANCH  24  34
ATOM     34  N   UNL     1      15.774   1.620  -1.635  0.00  0.00    -0.342 N 
ATOM     35  H   UNL     1      15.703   1.574  -2.601  0.00  0.00    +0.144 HD
ATOM     36  H   UNL     1      16.410   2.226  -1.223  0.00  0.00    +0.144 HD
ENDBRANCH  24  34
BRANCH  23  37
ATOM     37  C   UNL     1      13.685  -0.379  -2.653  0.00  0.00    +0.104 C 
ATOM     38  N   UNL     1      13.423  -0.609  -3.734  0.00  0.00    -0.191 NA
ENDBRANCH  23  37
ENDBRANCH  21  22
ENDBRANCH  20  21
ENDBRANCH   1  20
TORSDOF 10
