REMARK  Name = ZINC63789289
REMARK  7 active torsions:
REMARK  status: ('A' for Active; 'I' for Inactive)
REMARK    1  A    between atoms: C_1  and  O_2
REMARK    2  A    between atoms: O_2  and  C_3
REMARK    3  A    between atoms: C_5  and  C_21
REMARK    4  A    between atoms: C_8  and  O_9
REMARK    5  A    between atoms: O_9  and  C_10
REMARK    6  A    between atoms: C_10  and  C_11
REMARK    7  A    between atoms: N_13  and  C_14
REMARK                            x       y       z     vdW  Elec       q    Type
REMARK                         _______ _______ _______ _____ _____    ______ ____
ROOT
ATOM      1  C   UNL     1       0.644  -0.472   0.876  0.00  0.00    +0.162 A 
ATOM      2  C   UNL     1       1.225   0.315   1.857  0.00  0.00    +0.054 A 
ATOM      3  C   UNL     1       1.868  -0.277   2.928  0.00  0.00    -0.024 A 
ATOM      4  C   UNL     1       1.934  -1.655   3.023  0.00  0.00    +0.009 A 
ATOM      5  C   UNL     1       1.356  -2.446   2.048  0.00  0.00    +0.050 A 
ATOM      6  C   UNL     1       0.705  -1.859   0.975  0.00  0.00    +0.163 A 
ENDROOT
BRANCH   3   7
ATOM      7  C   UNL     1       2.500   0.581   3.994  0.00  0.00    +0.111 C 
ATOM      8  C   UNL     1       3.965   0.178   4.179  0.00  0.00    +0.128 C 
ATOM      9  C   UNL     1       3.950  -1.238   4.744  0.00  0.00    -0.035 C 
ATOM     10  C   UNL     1       4.709  -1.970   3.941  0.00  0.00    -0.001 A 
ATOM     11  C   UNL     1       5.142  -3.375   4.011  0.00  0.00    +0.010 A 
ATOM     12  C   UNL     1       5.922  -3.814   2.989  0.00  0.00    +0.001 A 
ATOM     13  C   UNL     1       6.310  -3.006   1.915  0.00  0.00    +0.002 A 
ATOM     14  C   UNL     1       5.963  -1.702   1.772  0.00  0.00    +0.026 A 
ATOM     15  C   UNL     1       5.148  -1.124   2.789  0.00  0.00    +0.043 A 
ATOM     16  N   UNL     1       4.693   0.108   2.913  0.00  0.00    -0.376 N 
ATOM     17  C   UNL     1       3.102  -1.605   5.938  0.00  0.00    +0.048 C 
ATOM     18  C   UNL     1       1.700  -1.030   5.662  0.00  0.00    +0.086 C 
ATOM     19  N   UNL     1       1.799   0.380   5.272  0.00  0.00    -0.307 NA
ATOM     20  H   UNL     1       2.221   0.929   6.006  0.00  0.00    +0.123 HD
ATOM     21  H   UNL     1       4.811   0.837   2.284  0.00  0.00    +0.160 HD
ENDBRANCH   3   7
BRANCH   1  23
ATOM     22  C   UNL     1      -0.013   1.538  -0.213  0.00  0.00    +0.277 C 
ATOM     23  O   UNL     1       0.010   0.109  -0.177  0.00  0.00    -0.491 OA
ENDBRANCH   1  23
BRANCH   6  24
ATOM     24  O   UNL     1       0.131  -2.636   0.018  0.00  0.00    -0.479 OA
BRANCH  24  25
ATOM     25  C   UNL     1       0.232  -4.051   0.184  0.00  0.00    +0.325 C 
BRANCH  25  26
ATOM     26  C   UNL     1      -0.456  -4.743  -0.964  0.00  0.00    +0.255 C 
ATOM     27  O   UNL     1      -0.982  -4.088  -1.839  0.00  0.00    -0.272 OA
ATOM     28  N   UNL     1      -0.487  -6.089  -1.019  0.00  0.00    -0.280 N 
ATOM     29  H   UNL     1      -0.140  -6.613  -0.280  0.00  0.00    +0.155 HD
BRANCH  28  30
ATOM     30  C   UNL     1      -1.022  -6.732  -2.142  0.00  0.00    +0.069 A 
ATOM     31  C   UNL     1      -0.873  -6.169  -3.402  0.00  0.00    +0.026 A 
ATOM     32  C   UNL     1      -1.401  -6.806  -4.509  0.00  0.00    +0.002 A 
ATOM     33  C   UNL     1      -2.078  -8.003  -4.364  0.00  0.00    +0.003 A 
ATOM     34  C   UNL     1      -2.229  -8.568  -3.111  0.00  0.00    +0.040 A 
ATOM     35  C   UNL     1      -1.698  -7.939  -1.999  0.00  0.00    +0.144 A 
ATOM     36  F   UNL     1      -1.841  -8.493  -0.775  0.00  0.00    -0.204 F 
ENDBRANCH  28  30
ENDBRANCH  25  26
ENDBRANCH  24  25
ENDBRANCH   6  24
TORSDOF 6
