REMARK  Name = ZINC35337814
REMARK  7 active torsions:
REMARK  status: ('A' for Active; 'I' for Inactive)
REMARK    1  A    between atoms: C_1  and  C_2
REMARK    2  A    between atoms: C_3  and  C_31
REMARK    3  A    between atoms: C_4  and  C_13
REMARK    4  A    between atoms: C_17  and  N_19
REMARK    5  A    between atoms: N_22  and  C_23
REMARK    6  A    between atoms: C_26  and  C_29
REMARK    7  A    between atoms: N_33  and  C_34
REMARK                            x       y       z     vdW  Elec       q    Type
REMARK                         _______ _______ _______ _____ _____    ______ ____
ROOT
ATOM      1  C   UNL     1      -0.993  -2.941   1.675  0.00  0.00    -0.021 A 
ATOM      2  C   UNL     1       0.105  -3.267   2.451  0.00  0.00    +0.006 A 
ATOM      3  C   UNL     1      -0.070  -3.864   3.686  0.00  0.00    +0.002 A 
ATOM      4  C   UNL     1      -1.343  -4.136   4.149  0.00  0.00    +0.023 A 
ATOM      5  C   UNL     1      -2.447  -3.810   3.372  0.00  0.00    +0.035 A 
ATOM      6  C   UNL     1      -2.268  -3.206   2.135  0.00  0.00    +0.029 A 
ENDROOT
BRANCH   1  10
ATOM      7  C   UNL     1       1.021   1.090   0.826  0.00  0.00    +0.064 C 
ATOM      8  C   UNL     1       0.753  -0.372   0.579  0.00  0.00    +0.025 C 
ATOM      9  C   UNL     1      -0.532  -0.818   0.513  0.00  0.00    +0.058 C 
ATOM     10  C   UNL     1      -0.798  -2.292   0.330  0.00  0.00    +0.143 C 
ATOM     11  N   UNL     1       0.361  -2.897  -0.353  0.00  0.00    -0.300 N 
ATOM     12  C   UNL     1       0.112  -3.900  -1.373  0.00  0.00    +0.109 C 
ATOM     13  C   UNL     1       1.145  -4.992  -1.505  0.00  0.00    +0.030 C 
ATOM     14  C   UNL     1       2.546  -4.427  -1.746  0.00  0.00    +0.078 C 
ATOM     15  S   UNL     1       3.013  -3.484  -0.259  0.00  0.00    -0.092 S 
ATOM     16  C   UNL     1       1.607  -2.439  -0.031  0.00  0.00    +0.135 C 
ATOM     17  N   UNL     1       1.776  -1.210   0.423  0.00  0.00    -0.341 N 
ATOM     18  H   UNL     1       2.670  -0.911   0.654  0.00  0.00    +0.167 HD
BRANCH   9  19
ATOM     19  C   UNL     1      -1.603   0.089   0.614  0.00  0.00    +0.244 C 
ATOM     20  O   UNL     1      -1.383   1.279   0.762  0.00  0.00    -0.270 OA
ATOM     21  N   UNL     1      -2.873  -0.358   0.548  0.00  0.00    -0.315 N 
ATOM     22  C   UNL     1      -3.989   0.586   0.653  0.00  0.00    +0.128 C 
ATOM     23  H   UNL     1      -3.049  -1.304   0.430  0.00  0.00    +0.149 HD
ENDBRANCH   9  19
ENDBRANCH   1  10
BRANCH   5  24
ATOM     24  N   UNL     1      -3.737  -4.085   3.838  0.00  0.00    -0.269 N 
ATOM     25  C   UNL     1      -4.005  -4.022   5.158  0.00  0.00    +0.308 C 
ATOM     26  O   UNL     1      -3.152  -3.636   5.933  0.00  0.00    -0.252 OA
ATOM     27  N   UNL     1      -5.218  -4.387   5.618  0.00  0.00    -0.269 N 
ATOM     28  H   UNL     1      -4.439  -4.321   3.212  0.00  0.00    +0.156 HD
ATOM     29  H   UNL     1      -5.873  -4.766   5.011  0.00  0.00    +0.156 HD
BRANCH  27  30
ATOM     30  C   UNL     1      -5.532  -4.221   6.967  0.00  0.00    +0.035 A 
ATOM     31  C   UNL     1      -5.008  -3.143   7.673  0.00  0.00    +0.024 A 
ATOM     32  C   UNL     1      -5.315  -2.976   9.005  0.00  0.00    +0.020 A 
ATOM     33  C   UNL     1      -6.156  -3.889   9.647  0.00  0.00    +0.052 A 
ATOM     34  C   UNL     1      -6.682  -4.971   8.934  0.00  0.00    +0.020 A 
ATOM     35  C   UNL     1      -6.374  -5.129   7.601  0.00  0.00    +0.024 A 
BRANCH  33  36
ATOM     36  C   UNL     1      -6.478  -3.719  11.032  0.00  0.00    +0.099 C 
ATOM     37  N   UNL     1      -6.733  -3.583  12.130  0.00  0.00    -0.191 NA
ENDBRANCH  33  36
ENDBRANCH  27  30
ENDBRANCH   5  24
TORSDOF 5
