REMARK  Name = ZINC63131378
REMARK  8 active torsions:
REMARK  status: ('A' for Active; 'I' for Inactive)
REMARK    1  A    between atoms: C_1  and  C_2
REMARK    2  A    between atoms: C_2  and  C_3
REMARK    3  A    between atoms: C_3  and  C_5
REMARK    4  A    between atoms: C_3  and  S_9
REMARK    5  A    between atoms: C_5  and  C_6
REMARK    6  A    between atoms: S_9  and  C_10
REMARK    7  A    between atoms: C_13  and  S_16
REMARK    8  A    between atoms: S_16  and  C_19
REMARK                            x       y       z     vdW  Elec       q    Type
REMARK                         _______ _______ _______ _____ _____    ______ ____
ROOT
ATOM      1  C   UNL     1       0.582  -0.480  -1.324  0.00  0.00    +0.058 C 
ENDROOT
BRANCH   1   3
ATOM      2  C   UNL     1      -0.157   1.532  -0.041  0.00  0.00    +0.005 C 
ATOM      3  C   UNL     1      -0.200   0.004  -0.101  0.00  0.00    +0.011 C 
ENDBRANCH   1   3
BRANCH   1   4
ATOM      4  C   UNL     1       0.403  -1.992  -1.478  0.00  0.00    +0.083 C 
BRANCH   4   5
ATOM      5  C   UNL     1       1.006  -2.439  -2.784  0.00  0.00    +0.064 C 
ATOM      6  N   UNL     1       0.267  -2.463  -3.880  0.00  0.00    -0.391 N 
ATOM      7  N   UNL     1       2.274  -2.807  -2.834  0.00  0.00    -0.348 N 
ATOM      8  H   UNL     1      -0.664  -2.192  -3.843  0.00  0.00    +0.157 HD
ATOM      9  H   UNL     1       2.817  -2.790  -2.031  0.00  0.00    +0.143 HD
ATOM     10  H   UNL     1       2.663  -3.095  -3.675  0.00  0.00    +0.143 HD
ATOM     11  H   UNL     1       0.655  -2.751  -4.721  0.00  0.00    +0.157 HD
ENDBRANCH   4   5
ENDBRANCH   1   4
BRANCH   1  12
ATOM     12  S   UNL     1       2.342  -0.100  -1.105  0.00  0.00    -0.121 S 
BRANCH  12  13
ATOM     13  C   UNL     1       2.755  -0.859   0.430  0.00  0.00    +0.008 A 
ATOM     14  C   UNL     1       1.822  -1.649   1.090  0.00  0.00    +0.016 A 
ATOM     15  C   UNL     1       2.149  -2.243   2.293  0.00  0.00    +0.028 A 
ATOM     16  C   UNL     1       3.404  -2.051   2.841  0.00  0.00    +0.088 A 
ATOM     17  C   UNL     1       4.336  -1.265   2.188  0.00  0.00    +0.028 A 
ATOM     18  C   UNL     1       4.017  -0.673   0.981  0.00  0.00    +0.016 A 
BRANCH  16  19
ATOM     19  S   UNL     1       3.817  -2.810   4.377  0.00  0.00    -0.006 S 
ATOM     20  O   UNL     1       4.826  -1.978   4.933  0.00  0.00    -0.170 OA
ATOM     21  O   UNL     1       2.574  -2.985   5.042  0.00  0.00    -0.170 OA
ATOM     22  C   UNL     1       4.516  -4.423   3.926  0.00  0.00    +0.200 C 
ENDBRANCH  16  19
ENDBRANCH  12  13
ENDBRANCH   1  12
TORSDOF 6
