REMARK  Name = ZINC05287900
REMARK  12 active torsions:
REMARK  status: ('A' for Active; 'I' for Inactive)
REMARK    1  A    between atoms: C_1  and  C_2
REMARK    2  A    between atoms: C_2  and  N_3
REMARK    3  A    between atoms: N_3  and  N_4
REMARK    4  A    between atoms: C_5  and  C_7
REMARK    5  A    between atoms: N_9  and  C_10
REMARK    6  A    between atoms: C_10  and  C_11
REMARK    7  A    between atoms: C_10  and  C_12
REMARK    8  A    between atoms: C_10  and  C_13
REMARK    9  A    between atoms: C_14  and  C_15
REMARK   10  A    between atoms: N_17  and  C_18
REMARK   11  A    between atoms: C_23  and  N_24
REMARK   12  A    between atoms: C_25  and  C_27
REMARK                            x       y       z     vdW  Elec       q    Type
REMARK                         _______ _______ _______ _____ _____    ______ ____
ROOT
ATOM      1  C   UNL     1       0.000   2.240  -1.351  0.00  0.00    +0.062 C 
ATOM      2  C   UNL     1       0.036   1.496  -0.041  0.00  0.00    +0.024 C 
ATOM      3  C   UNL     1       0.045  -0.011  -0.030  0.00  0.00    +0.087 C 
ENDROOT
BRANCH   3   4
ATOM      4  C   UNL     1       0.012  -0.523  -1.447  0.00  0.00    +0.243 C 
ATOM      5  O   UNL     1      -0.015   0.258  -2.374  0.00  0.00    -0.270 OA
ATOM      6  N   UNL     1       0.013  -1.850  -1.684  0.00  0.00    -0.280 N 
ATOM      7  H   UNL     1      -0.057  -2.558  -0.845  0.00  0.00    +0.155 HD
BRANCH   6   8
ATOM      8  C   UNL     1       0.103  -2.327  -2.998  0.00  0.00    +0.055 A 
ATOM      9  C   UNL     1       0.689  -1.545  -3.983  0.00  0.00    +0.025 A 
ATOM     10  C   UNL     1       0.780  -2.019  -5.277  0.00  0.00    +0.002 A 
ATOM     11  C   UNL     1       0.281  -3.269  -5.598  0.00  0.00    +0.002 A 
ATOM     12  C   UNL     1      -0.308  -4.052  -4.624  0.00  0.00    +0.025 A 
ATOM     13  C   UNL     1      -0.400  -3.586  -3.321  0.00  0.00    +0.055 A 
BRANCH  13  14
ATOM     14  N   UNL     1      -0.998  -4.378  -2.332  0.00  0.00    -0.284 N 
ATOM     15  C   UNL     1      -0.861  -5.719  -2.369  0.00  0.00    +0.214 C 
ATOM     16  O   UNL     1      -0.143  -6.233  -3.200  0.00  0.00    -0.276 OA
ATOM     17  C   UNL     1      -1.601  -6.579  -1.376  0.00  0.00    +0.109 C 
ATOM     18  H   UNL     1      -1.579  -3.907  -1.526  0.00  0.00    +0.155 HD
ENDBRANCH  13  14
ENDBRANCH   6   8
ENDBRANCH   3   4
BRANCH   2  19
ATOM     19  N   UNL     1       0.060   2.144   1.063  0.00  0.00    -0.268 N 
ATOM     20  H   UNL     1      -0.030   3.240   1.060  0.00  0.00    +0.170 HD
BRANCH  19  21
ATOM     21  N   UNL     1       0.202   1.457   2.276  0.00  0.00    -0.229 N 
ATOM     22  C   UNL     1       0.125   2.127   3.443  0.00  0.00    +0.315 C 
ATOM     23  O   UNL     1      -0.067   3.326   3.443  0.00  0.00    -0.264 OA
ATOM     24  H   UNL     1       0.377   0.371   2.276  0.00  0.00    +0.173 HD
BRANCH  22  25
ATOM     25  C   UNL     1       0.277   1.395   4.735  0.00  0.00    +0.301 C 
ATOM     26  O   UNL     1       0.469   0.197   4.735  0.00  0.00    -0.265 OA
ATOM     27  N   UNL     1       0.200   2.065   5.902  0.00  0.00    -0.303 N 
ATOM     28  H   UNL     1       0.025   3.151   5.902  0.00  0.00    +0.150 HD
BRANCH  27  29
ATOM     29  C   UNL     1       0.348   1.347   7.170  0.00  0.00    +0.027 C 
ATOM     30  C   UNL     1       1.722   0.676   7.219  0.00  0.00    +0.031 C 
ATOM     31  C   UNL     1       0.220   2.333   8.333  0.00  0.00    +0.031 C 
ATOM     32  C   UNL     1      -0.744   0.281   7.283  0.00  0.00    +0.031 C 
ENDBRANCH  27  29
ENDBRANCH  22  25
ENDBRANCH  19  21
ENDBRANCH   2  19
TORSDOF 7
