REMARK  Name = ZINC50463993
REMARK  4 active torsions:
REMARK  status: ('A' for Active; 'I' for Inactive)
REMARK    1  A    between atoms: C_1  and  C_2
REMARK    2  A    between atoms: C_2  and  N_3
REMARK    3  A    between atoms: C_12  and  C_14
REMARK    4  A    between atoms: C_17  and  N_19
REMARK                            x       y       z     vdW  Elec       q    Type
REMARK                         _______ _______ _______ _____ _____    ______ ____
ROOT
ATOM      1  N   UNL     1       0.714  -0.489   1.186  0.00  0.00    -0.300 N 
ATOM      2  C   UNL     1       0.854  -1.814   1.394  0.00  0.00    +0.302 C 
ATOM      3  O   UNL     1       0.314  -2.606   0.646  0.00  0.00    -0.253 OA
ATOM      4  N   UNL     1       1.591  -2.260   2.430  0.00  0.00    -0.283 N 
ATOM      5  C   UNL     1       2.149  -1.318   3.411  0.00  0.00    +0.128 C 
ATOM      6  C   UNL     1       1.685  -1.738   4.812  0.00  0.00    +0.127 C 
ATOM      7  N   UNL     1       1.946  -3.174   4.981  0.00  0.00    -0.298 N 
ATOM      8  C   UNL     1       1.388  -4.116   4.000  0.00  0.00    +0.127 C 
ATOM      9  C   UNL     1       1.847  -3.696   2.603  0.00  0.00    +0.128 C 
ATOM     10  C   UNL     1       2.683  -3.620   6.018  0.00  0.00    +0.217 C 
ATOM     11  O   UNL     1       3.138  -2.833   6.821  0.00  0.00    -0.275 OA
ATOM     12  H   UNL     1       1.083   0.143   1.823  0.00  0.00    +0.150 HD
ENDROOT
BRANCH  10  13
ATOM     13  C   UNL     1       2.941  -5.096   6.179  0.00  0.00    +0.059 C 
ATOM     14  C   UNL     1       4.373  -5.590   5.961  0.00  0.00    -0.005 C 
ATOM     15  C   UNL     1       3.787  -5.539   7.375  0.00  0.00    -0.063 C 
BRANCH  15  16
ATOM     16  N   UNL     1       4.285  -4.492   8.278  0.00  0.00    +0.380 N 
ATOM     17  H   UNL     1       3.504  -3.991   8.674  0.00  0.00    -0.090 HD
ATOM     18  H   UNL     1       4.824  -4.916   9.018  0.00  0.00    -0.090 HD
ATOM     19  H   UNL     1       4.869  -3.852   7.761  0.00  0.00    -0.090 HD
ENDBRANCH  15  16
ENDBRANCH  10  13
BRANCH   1  21
ATOM     20  C   UNL     1      -0.011   1.525   0.004  0.00  0.00    +0.024 C 
ATOM     21  C   UNL     1       0.005  -0.004  -0.001  0.00  0.00    +0.102 C 
ENDBRANCH   1  21
TORSDOF 3
