REMARK  Name = ZINC43526692
REMARK  10 active torsions:
REMARK  status: ('A' for Active; 'I' for Inactive)
REMARK    1  A    between atoms: C_1  and  N_2
REMARK    2  A    between atoms: C_3  and  C_17
REMARK    3  A    between atoms: C_5  and  C_7
REMARK    4  A    between atoms: C_10  and  O_15
REMARK    5  A    between atoms: C_11  and  O_13
REMARK    6  A    between atoms: O_13  and  C_14
REMARK    7  A    between atoms: O_15  and  C_16
REMARK    8  A    between atoms: C_26  and  C_28
REMARK    9  A    between atoms: C_28  and  N_29
REMARK   10  A    between atoms: N_32  and  C_33
REMARK                            x       y       z     vdW  Elec       q    Type
REMARK                         _______ _______ _______ _____ _____    ______ ____
ROOT
ATOM      1  C   UNL     1      -0.045  -0.259  -2.574  0.00  0.00    +0.024 C 
ATOM      2  C   UNL     1       1.404  -0.116  -3.046  0.00  0.00    -0.068 C 
ATOM      3  N   UNL     1       1.643  -0.986  -4.201  0.00  0.00    +0.383 N 
ATOM      4  C   UNL     1       1.436  -2.390  -3.840  0.00  0.00    -0.078 C 
ATOM      5  C   UNL     1      -0.011  -2.609  -3.394  0.00  0.00    -0.015 C 
ATOM      6  C   UNL     1      -0.764  -1.271  -3.475  0.00  0.00    -0.007 C 
ATOM      7  C   UNL     1      -0.695  -0.766  -4.923  0.00  0.00    -0.010 C 
ATOM      8  C   UNL     1       0.777  -0.607  -5.320  0.00  0.00    -0.051 C 
ATOM      9  H   UNL     1       2.604  -0.876  -4.489  0.00  0.00    -0.081 HD
ENDROOT
BRANCH   1  12
ATOM     10  C   UNL     1      -2.120   0.480  -0.399  0.00  0.00    +0.172 C 
ATOM     11  N   UNL     1      -0.977  -0.418  -0.209  0.00  0.00    -0.271 N 
ATOM     12  C   UNL     1      -0.065  -0.748  -1.149  0.00  0.00    +0.041 A 
ATOM     13  C   UNL     1       0.825  -1.594  -0.587  0.00  0.00    +0.053 A 
ATOM     14  C   UNL     1       0.444  -1.792   0.755  0.00  0.00    +0.093 A 
ATOM     15  N   UNL     1      -0.638  -1.077   0.979  0.00  0.00    -0.171 NA
BRANCH  14  16
ATOM     16  C   UNL     1       1.143  -2.651   1.743  0.00  0.00    +0.006 A 
ATOM     17  C   UNL     1       2.292  -3.348   1.373  0.00  0.00    +0.014 A 
ATOM     18  C   UNL     1       2.941  -4.146   2.293  0.00  0.00    +0.050 A 
ATOM     19  C   UNL     1       2.454  -4.257   3.586  0.00  0.00    +0.162 A 
ATOM     20  C   UNL     1       1.307  -3.562   3.961  0.00  0.00    +0.162 A 
ATOM     21  C   UNL     1       0.655  -2.757   3.044  0.00  0.00    +0.059 A 
BRANCH  20  22
ATOM     22  O   UNL     1       0.829  -3.672   5.230  0.00  0.00    -0.491 OA
ATOM     23  C   UNL     1      -0.352  -2.932   5.545  0.00  0.00    +0.277 C 
ENDBRANCH  20  22
BRANCH  19  24
ATOM     24  O   UNL     1       3.096  -5.045   4.489  0.00  0.00    -0.491 OA
ATOM     25  C   UNL     1       4.266  -5.729   4.036  0.00  0.00    +0.277 C 
ENDBRANCH  19  24
ENDBRANCH  14  16
ENDBRANCH   1  12
BRANCH   8  26
ATOM     26  C   UNL     1       1.079  -1.505  -6.521  0.00  0.00    +0.090 C 
BRANCH  26  27
ATOM     27  N   UNL     1       2.508  -1.434  -6.837  0.00  0.00    -0.301 N 
ATOM     28  C   UNL     1       3.007  -2.148  -7.865  0.00  0.00    +0.304 C 
ATOM     29  O   UNL     1       2.272  -2.851  -8.531  0.00  0.00    -0.253 OA
ATOM     30  N   UNL     1       4.322  -2.083  -8.156  0.00  0.00    -0.267 N 
ATOM     31  H   UNL     1       3.095  -0.874  -6.306  0.00  0.00    +0.150 HD
ATOM     32  H   UNL     1       4.921  -1.582  -7.581  0.00  0.00    +0.156 HD
BRANCH  30  33
ATOM     33  C   UNL     1       4.823  -2.740  -9.289  0.00  0.00    +0.070 A 
ATOM     34  C   UNL     1       4.040  -2.854 -10.429  0.00  0.00    +0.029 A 
ATOM     35  C   UNL     1       4.535  -3.501 -11.544  0.00  0.00    +0.040 A 
ATOM     36  C   UNL     1       5.812  -4.036 -11.526  0.00  0.00    +0.126 A 
ATOM     37  C   UNL     1       6.596  -3.925 -10.390  0.00  0.00    +0.078 A 
ATOM     38  C   UNL     1       6.107  -3.273  -9.273  0.00  0.00    +0.147 A 
ATOM     39  F   UNL     1       6.874  -3.158  -8.167  0.00  0.00    -0.203 F 
ATOM     40  F   UNL     1       6.294  -4.669 -12.619  0.00  0.00    -0.205 F 
ENDBRANCH  30  33
ENDBRANCH  26  27
ENDBRANCH   8  26
TORSDOF 7
