REMARK  Name = ZINC34915566
REMARK  7 active torsions:
REMARK  status: ('A' for Active; 'I' for Inactive)
REMARK    1  A    between atoms: C_4  and  C_8
REMARK    2  A    between atoms: C_8  and  O_9
REMARK    3  A    between atoms: O_9  and  C_10
REMARK    4  A    between atoms: C_10  and  C_12
REMARK    5  A    between atoms: C_10  and  C_29
REMARK    6  A    between atoms: C_12  and  N_13
REMARK    7  A    between atoms: N_21  and  C_22
REMARK                            x       y       z     vdW  Elec       q    Type
REMARK                         _______ _______ _______ _____ _____    ______ ____
ROOT
ATOM      1  C   UNL     1       5.673  -0.615   3.273  0.00  0.00    -0.042 C 
ENDROOT
BRANCH   1   2
ATOM      2  N   UNL     1       6.111   0.687   2.752  0.00  0.00    +0.384 N 
ATOM      3  C   UNL     1       6.433   1.578   3.874  0.00  0.00    -0.059 C 
ATOM      4  C   UNL     1       6.779   2.970   3.336  0.00  0.00    +0.091 C 
ATOM      5  N   UNL     1       7.856   2.832   2.343  0.00  0.00    -0.289 N 
ATOM      6  C   UNL     1       7.686   1.838   1.271  0.00  0.00    +0.091 C 
ATOM      7  C   UNL     1       7.296   0.499   1.907  0.00  0.00    -0.059 C 
ATOM      8  C   UNL     1       8.965   3.593   2.413  0.00  0.00    +0.306 C 
ATOM      9  O   UNL     1       9.127   4.348   3.352  0.00  0.00    -0.252 OA
ATOM     10  N   UNL     1       9.896   3.518   1.441  0.00  0.00    -0.269 N 
ATOM     11  H   UNL     1       9.794   2.878   0.720  0.00  0.00    +0.156 HD
ATOM     12  H   UNL     1       5.369   1.095   2.204  0.00  0.00    -0.082 HD
BRANCH  10  13
ATOM     13  C   UNL     1      11.010   4.367   1.472  0.00  0.00    +0.035 A 
ATOM     14  C   UNL     1      11.558   4.751   2.688  0.00  0.00    +0.026 A 
ATOM     15  C   UNL     1      12.657   5.587   2.716  0.00  0.00    +0.040 A 
ATOM     16  C   UNL     1      13.213   6.041   1.532  0.00  0.00    +0.124 A 
ATOM     17  C   UNL     1      12.668   5.660   0.318  0.00  0.00    +0.040 A 
ATOM     18  C   UNL     1      11.572   4.819   0.285  0.00  0.00    +0.026 A 
ATOM     19  F   UNL     1      14.288   6.859   1.562  0.00  0.00    -0.205 F 
ENDBRANCH  10  13
ENDBRANCH   1   2
BRANCH   1  20
ATOM     20  C   UNL     1       4.978  -1.402   2.161  0.00  0.00    +0.132 C 
BRANCH  20  21
ATOM     21  C   UNL     1       4.571  -2.756   2.682  0.00  0.00    -0.021 A 
ATOM     22  C   UNL     1       3.370  -2.907   3.349  0.00  0.00    +0.007 A 
ATOM     23  C   UNL     1       2.996  -4.149   3.828  0.00  0.00    +0.020 A 
ATOM     24  C   UNL     1       3.825  -5.241   3.638  0.00  0.00    +0.041 A 
ATOM     25  C   UNL     1       5.026  -5.089   2.970  0.00  0.00    +0.020 A 
ATOM     26  C   UNL     1       5.396  -3.848   2.487  0.00  0.00    +0.007 A 
ATOM     27 CL   UNL     1       3.356  -6.801   4.239  0.00  0.00    -0.084 Cl
ENDBRANCH  20  21
BRANCH  20  28
ATOM     28  O   UNL     1       3.817  -0.690   1.727  0.00  0.00    -0.369 OA
BRANCH  28  29
ATOM     29  C   UNL     1       3.484  -0.903   0.353  0.00  0.00    +0.201 C 
BRANCH  29  33
ATOM     30  C   UNL     1      -0.013   1.349  -0.632  0.00  0.00    +0.006 A 
ATOM     31  C   UNL     1       1.239   1.916  -0.783  0.00  0.00    +0.039 A 
ATOM     32  C   UNL     1       2.372   1.187  -0.464  0.00  0.00    +0.131 A 
ATOM     33  C   UNL     1       2.252  -0.109   0.006  0.00  0.00    +0.048 A 
ATOM     34  C   UNL     1       0.998  -0.675   0.157  0.00  0.00    +0.131 A 
ATOM     35  C   UNL     1      -0.135   0.055  -0.163  0.00  0.00    +0.039 A 
ATOM     36  F   UNL     1       0.878  -1.940   0.617  0.00  0.00    -0.205 F 
ATOM     37  F   UNL     1       3.595   1.741  -0.613  0.00  0.00    -0.205 F 
ENDBRANCH  29  33
ENDBRANCH  28  29
ENDBRANCH  20  28
ENDBRANCH   1  20
TORSDOF 7
