REMARK  Name = ZINC16796274
REMARK  11 active torsions:
REMARK  status: ('A' for Active; 'I' for Inactive)
REMARK    1  A    between atoms: C_1  and  C_2
REMARK    2  A    between atoms: C_2  and  C_4
REMARK    3  A    between atoms: C_2  and  S_14
REMARK    4  A    between atoms: N_6  and  C_7
REMARK    5  A    between atoms: S_14  and  C_15
REMARK    6  A    between atoms: N_28  and  C_29
REMARK    7  A    between atoms: C_29  and  C_30
REMARK    8  A    between atoms: C_30  and  C_31
REMARK    9  A    between atoms: C_31  and  N_62
REMARK   10  A    between atoms: C_32  and  N_62
REMARK   11  A    between atoms: C_33  and  N_62
REMARK                            x       y       z     vdW  Elec       q    Type
REMARK                         _______ _______ _______ _____ _____    ______ ____
ROOT
ATOM      1  C   UNL     1       1.172   3.326  -0.349  0.00  0.00    +0.173 A 
ATOM      2  N   UNL     1       0.035   3.965  -0.160  0.00  0.00    -0.216 NA
ATOM      3  C   UNL     1      -1.117   3.306  -0.120  0.00  0.00    +0.117 A 
ATOM      4  C   UNL     1      -1.187   1.912  -0.281  0.00  0.00    +0.076 A 
ATOM      5  C   UNL     1      -2.526   1.326  -0.208  0.00  0.00    -0.023 A 
ATOM      6  C   UNL     1      -3.555   2.175  -0.005  0.00  0.00    -0.004 A 
ATOM      7  S   UNL     1      -2.813   3.780   0.106  0.00  0.00    -0.073 S 
ATOM      8  C   UNL     1      -5.009   1.829   0.101  0.00  0.00    +0.043 C 
ATOM      9  C   UNL     1      -5.207   0.399  -0.422  0.00  0.00    +0.005 C 
ATOM     10  C   UNL     1      -4.149  -0.508   0.213  0.00  0.00    +0.005 C 
ATOM     11  C   UNL     1      -2.769  -0.173  -0.356  0.00  0.00    +0.037 C 
ATOM     12  C   UNL     1       0.063   1.244  -0.480  0.00  0.00    +0.263 A 
ATOM     13  O   UNL     1       0.101   0.035  -0.625  0.00  0.00    -0.267 OA
ATOM     14  N   UNL     1       1.196   1.971  -0.510  0.00  0.00    -0.287 N 
ENDROOT
BRANCH   1  15
ATOM     15  S   UNL     1       2.682   4.233  -0.397  0.00  0.00    -0.075 S 
BRANCH  15  17
ATOM     16  C   UNL     1       1.172   6.313  -1.324  0.00  0.00    +0.029 C 
ATOM     17  C   UNL     1       2.049   5.909  -0.137  0.00  0.00    +0.137 C 
BRANCH  17  18
ATOM     18  C   UNL     1       3.205   6.869  -0.017  0.00  0.00    +0.230 C 
ATOM     19  O   UNL     1       4.272   6.600  -0.526  0.00  0.00    -0.274 OA
ATOM     20  N   UNL     1       3.052   8.027   0.655  0.00  0.00    -0.285 N 
ATOM     21  H   UNL     1       2.179   8.278   0.997  0.00  0.00    +0.155 HD
BRANCH  20  22
ATOM     22  C   UNL     1       4.152   8.867   0.862  0.00  0.00    +0.036 A 
ATOM     23  C   UNL     1       3.979  10.245   0.893  0.00  0.00    +0.023 A 
ATOM     24  C   UNL     1       5.066  11.072   1.097  0.00  0.00    +0.005 A 
ATOM     25  C   UNL     1       6.327  10.530   1.270  0.00  0.00    +0.038 A 
ATOM     26  C   UNL     1       6.504   9.157   1.239  0.00  0.00    +0.125 A 
ATOM     27  C   UNL     1       5.417   8.324   1.040  0.00  0.00    +0.061 A 
ATOM     28  F   UNL     1       7.737   8.631   1.407  0.00  0.00    -0.205 F 
ENDBRANCH  20  22
ENDBRANCH  17  18
ENDBRANCH  15  17
ENDBRANCH   1  15
BRANCH  14  29
ATOM     29  C   UNL     1       2.478   1.294  -0.719  0.00  0.00    +0.125 C 
BRANCH  29  30
ATOM     30  C   UNL     1       2.780   1.225  -2.217  0.00  0.00    +0.003 C 
BRANCH  30  31
ATOM     31  C   UNL     1       4.119   0.518  -2.435  0.00  0.00    -0.078 C 
BRANCH  31  34
ATOM     32  C   UNL     1       4.628   1.793  -4.430  0.00  0.00    -0.097 C 
ATOM     33  C   UNL     1       5.560  -0.422  -4.139  0.00  0.00    -0.097 C 
ATOM     34  N   UNL     1       4.386   0.440  -3.887  0.00  0.00    +0.376 N 
ATOM     35  H   UNL     1       3.568   0.034  -4.355  0.00  0.00    -0.083 HD
ENDBRANCH  31  34
ENDBRANCH  30  31
ENDBRANCH  29  30
ENDBRANCH  14  29
TORSDOF 8
