REMARK  Name = ZINC36812045
REMARK  6 active torsions:
REMARK  status: ('A' for Active; 'I' for Inactive)
REMARK    1  A    between atoms: C_1  and  C_2
REMARK    2  A    between atoms: C_2  and  N_3
REMARK    3  A    between atoms: C_7  and  C_9
REMARK    4  A    between atoms: C_9  and  S_10
REMARK    5  A    between atoms: S_10  and  C_11
REMARK    6  A    between atoms: C_21  and  C_25
REMARK                            x       y       z     vdW  Elec       q    Type
REMARK                         _______ _______ _______ _____ _____    ______ ____
ROOT
ATOM      1  C   UNL     1       3.128  -6.333   5.471  0.00  0.00    +0.191 A 
ATOM      2  N   UNL     1       3.579  -5.365   6.261  0.00  0.00    -0.207 NA
ATOM      3  C   UNL     1       4.385  -5.609   7.280  0.00  0.00    +0.129 A 
ATOM      4  C   UNL     1       4.787  -6.948   7.545  0.00  0.00    +0.051 A 
ATOM      5  C   UNL     1       5.665  -7.448   8.605  0.00  0.00    -0.025 A 
ATOM      6  C   UNL     1       5.890  -8.777   8.638  0.00  0.00    -0.004 A 
ATOM      7  S   UNL     1       4.960  -9.437   7.280  0.00  0.00    -0.073 S 
ATOM      8  C   UNL     1       4.270  -7.922   6.668  0.00  0.00    +0.115 A 
ATOM      9  N   UNL     1       3.465  -7.599   5.674  0.00  0.00    -0.214 NA
ATOM     10  C   UNL     1       6.743  -9.529   9.613  0.00  0.00    +0.046 C 
ATOM     11  C   UNL     1       7.632  -8.523  10.357  0.00  0.00    -0.009 C 
ATOM     12  C   UNL     1       6.760  -7.357  10.835  0.00  0.00    +0.008 C 
ATOM     13  C   UNL     1       6.307  -6.523   9.636  0.00  0.00    +0.037 C 
ATOM     14  C   UNL     1       8.285  -9.206  11.561  0.00  0.00    +0.008 C 
ATOM     15  N   UNL     1       4.833  -4.574   8.081  0.00  0.00    -0.343 N 
ATOM     16  H   UNL     1       4.387  -3.713   8.055  0.00  0.00    +0.144 HD
ATOM     17  H   UNL     1       5.594  -4.708   8.667  0.00  0.00    +0.144 HD
ENDROOT
BRANCH   1  18
ATOM     18  S   UNL     1       2.056  -5.926   4.133  0.00  0.00    -0.077 S 
BRANCH  18  19
ATOM     19  C   UNL     1       1.879  -4.125   4.244  0.00  0.00    +0.173 C 
BRANCH  19  24
ATOM     20  N   UNL     1      -0.391  -0.579   1.923  0.00  0.00    -0.299 N 
ATOM     21  C   UNL     1      -0.114  -1.893   2.038  0.00  0.00    +0.306 C 
ATOM     22  O   UNL     1      -0.593  -2.687   1.253  0.00  0.00    -0.252 OA
ATOM     23  N   UNL     1       0.696  -2.326   3.025  0.00  0.00    -0.240 N 
ATOM     24  C   UNL     1       0.974  -3.640   3.140  0.00  0.00    +0.231 C 
ATOM     25  O   UNL     1       0.496  -4.432   2.357  0.00  0.00    -0.274 OA
ATOM     26  H   UNL     1      -0.009   0.054   2.550  0.00  0.00    +0.150 HD
ATOM     27  H   UNL     1       1.079  -1.693   3.652  0.00  0.00    +0.159 HD
BRANCH  20  29
ATOM     28  C   UNL     1      -1.421   1.412   0.944  0.00  0.00    +0.024 C 
ATOM     29  C   UNL     1      -1.271  -0.108   0.850  0.00  0.00    +0.102 C 
ENDBRANCH  20  29
ENDBRANCH  19  24
ENDBRANCH  18  19
ENDBRANCH   1  18
TORSDOF 4
