REMARK  Name = ZINC04403391
REMARK  16 active torsions:
REMARK  status: ('A' for Active; 'I' for Inactive)
REMARK    1  A    between atoms: C_1  and  C_2
REMARK    2  A    between atoms: C_1  and  O_32
REMARK    3  A    between atoms: C_4  and  O_31
REMARK    4  A    between atoms: C_6  and  O_30
REMARK    5  A    between atoms: C_8  and  O_29
REMARK    6  A    between atoms: C_10  and  O_13
REMARK    7  A    between atoms: O_13  and  C_14
REMARK    8  A    between atoms: C_14  and  C_15
REMARK    9  A    between atoms: C_15  and  C_17
REMARK   10  A    between atoms: C_15  and  O_28
REMARK   11  A    between atoms: C_17  and  C_19
REMARK   12  A    between atoms: C_17  and  O_27
REMARK   13  A    between atoms: C_19  and  C_21
REMARK   14  A    between atoms: C_19  and  O_26
REMARK   15  A    between atoms: C_21  and  C_23
REMARK   16  A    between atoms: C_21  and  O_25
REMARK                            x       y       z     vdW  Elec       q    Type
REMARK                         _______ _______ _______ _____ _____    ______ ____
ROOT
ATOM      1  O   UNL     1      -2.865   3.033  -0.058  0.00  0.00    -0.346 OA
ENDROOT
BRANCH   1   6
ATOM      2  C   UNL     1      -0.756   1.594  -1.230  0.00  0.00    +0.178 C 
ATOM      3  C   UNL     1      -0.013   1.086   0.008  0.00  0.00    +0.177 C 
ATOM      4  C   UNL     1      -0.732   1.581   1.266  0.00  0.00    +0.179 C 
ATOM      5  C   UNL     1      -0.817   3.110   1.224  0.00  0.00    +0.201 C 
ATOM      6  C   UNL     1      -1.528   3.540  -0.061  0.00  0.00    +0.282 C 
ATOM      7  O   UNL     1      -0.824   3.021  -1.191  0.00  0.00    -0.341 OA
BRANCH   3   8
ATOM      8  O   UNL     1       1.327   1.582  -0.002  0.00  0.00    -0.386 OA
ATOM      9  H   UNL     1       1.857   1.300   0.756  0.00  0.00    +0.210 HD
ENDBRANCH   3   8
BRANCH   4  10
ATOM     10  O   UNL     1      -2.051   1.032   1.311  0.00  0.00    -0.386 OA
ATOM     11  H   UNL     1      -2.564   1.304   2.083  0.00  0.00    +0.210 HD
ENDBRANCH   4  10
BRANCH   5  12
ATOM     12  O   UNL     1      -1.550   3.580   2.357  0.00  0.00    -0.384 OA
ATOM     13  H   UNL     1      -1.645   4.542   2.392  0.00  0.00    +0.210 HD
ENDBRANCH   5  12
BRANCH   2  14
ATOM     14  C   UNL     1      -0.008   1.154  -2.490  0.00  0.00    +0.190 C 
BRANCH  14  15
ATOM     15  O   UNL     1      -0.761   1.527  -3.646  0.00  0.00    -0.392 OA
ATOM     16  H   UNL     1      -0.346   1.279  -4.483  0.00  0.00    +0.210 HD
ENDBRANCH  14  15
ENDBRANCH   2  14
ENDBRANCH   1   6
BRANCH   1  17
ATOM     17  C   UNL     1      -3.655   3.472  -1.165  0.00  0.00    +0.197 C 
BRANCH  17  18
ATOM     18  C   UNL     1      -5.058   2.871  -1.060  0.00  0.00    +0.171 C 
BRANCH  18  19
ATOM     19  O   UNL     1      -4.979   1.450  -1.191  0.00  0.00    -0.387 OA
ATOM     20  H   UNL     1      -4.604   1.153  -2.031  0.00  0.00    +0.210 HD
ENDBRANCH  18  19
BRANCH  18  21
ATOM     21  C   UNL     1      -5.941   3.438  -2.174  0.00  0.00    +0.176 C 
BRANCH  21  22
ATOM     22  O   UNL     1      -6.019   4.859  -2.043  0.00  0.00    -0.386 OA
ATOM     23  H   UNL     1      -6.395   5.156  -1.202  0.00  0.00    +0.210 HD
ENDBRANCH  21  22
BRANCH  21  24
ATOM     24  C   UNL     1      -7.344   2.837  -2.068  0.00  0.00    +0.181 C 
BRANCH  24  25
ATOM     25  O   UNL     1      -7.265   1.416  -2.199  0.00  0.00    -0.386 OA
ATOM     26  H   UNL     1      -6.889   1.119  -3.040  0.00  0.00    +0.210 HD
ENDBRANCH  24  25
BRANCH  24  27
ATOM     27  C   UNL     1      -8.226   3.404  -3.182  0.00  0.00    +0.208 C 
BRANCH  27  28
ATOM     28  O   UNL     1      -8.305   4.824  -3.051  0.00  0.00    -0.382 OA
ATOM     29  H   UNL     1      -8.680   5.122  -2.211  0.00  0.00    +0.210 HD
ENDBRANCH  27  28
BRANCH  27  30
ATOM     30  C   UNL     1      -9.608   2.812  -3.078  0.00  0.00    +0.257 C 
ATOM     31  O   UNL     1     -10.562   3.533  -2.910  0.00  0.00    -0.298 OA
ENDBRANCH  27  30
ENDBRANCH  24  27
ENDBRANCH  21  24
ENDBRANCH  18  21
ENDBRANCH  17  18
ENDBRANCH   1  17
TORSDOF 16
