REMARK  Name = ZINC12329488
REMARK  8 active torsions:
REMARK  status: ('A' for Active; 'I' for Inactive)
REMARK    1  A    between atoms: C_1  and  C_2
REMARK    2  A    between atoms: C_5  and  C_9
REMARK    3  A    between atoms: C_7  and  C_8
REMARK    4  A    between atoms: C_9  and  C_11
REMARK    5  A    between atoms: C_9  and  O_29
REMARK    6  A    between atoms: C_11  and  N_57
REMARK    7  A    between atoms: C_18  and  O_28
REMARK    8  A    between atoms: C_22  and  O_27
REMARK                            x       y       z     vdW  Elec       q    Type
REMARK                         _______ _______ _______ _____ _____    ______ ____
ROOT
ATOM      1  C   UNL     1       4.126   6.027   0.748  0.00  0.00    -0.075 C 
ATOM      2  C   UNL     1       5.487   6.716   0.627  0.00  0.00    +0.029 C 
ATOM      3  C   UNL     1       6.088   6.900   2.021  0.00  0.00    +0.110 C 
ATOM      4  C   UNL     1       6.201   5.540   2.711  0.00  0.00    +0.029 C 
ATOM      5  C   UNL     1       4.818   4.886   2.770  0.00  0.00    -0.075 C 
ATOM      6  C   UNL     1       7.481   7.529   1.899  0.00  0.00    +0.084 C 
ATOM      7  C   UNL     1       7.352   8.833   1.109  0.00  0.00    +0.152 C 
ATOM      8  C   UNL     1       6.216   9.655   1.665  0.00  0.00    +0.026 A 
ATOM      9  C   UNL     1       6.159  11.004   1.359  0.00  0.00    +0.055 A 
ATOM     10  C   UNL     1       5.127  11.788   1.847  0.00  0.00    +0.117 A 
ATOM     11  C   UNL     1       4.146  11.220   2.647  0.00  0.00    +0.049 A 
ATOM     12  C   UNL     1       4.204   9.876   2.954  0.00  0.00    +0.049 A 
ATOM     13  C   UNL     1       5.240   9.088   2.465  0.00  0.00    +0.127 A 
ATOM     14  O   UNL     1       5.261   7.768   2.794  0.00  0.00    -0.485 OA
ATOM     15  N   UNL     1       4.312   4.710   1.393  0.00  0.00    +0.382 N 
ATOM     16  H   UNL     1       4.997   4.169   0.852  0.00  0.00    -0.082 HD
ENDROOT
BRANCH  10  17
ATOM     17  O   UNL     1       5.075  13.112   1.543  0.00  0.00    -0.507 OA
ATOM     18  H   UNL     1       5.539  13.680   2.174  0.00  0.00    +0.292 HD
ENDBRANCH  10  17
BRANCH   7  19
ATOM     19  O   UNL     1       8.570   9.574   1.212  0.00  0.00    -0.387 OA
ATOM     20  H   UNL     1       8.562  10.413   0.732  0.00  0.00    +0.210 HD
ENDBRANCH   7  19
BRANCH  15  21
ATOM     21  C   UNL     1       3.030   3.975   1.416  0.00  0.00    -0.042 C 
BRANCH  21  22
ATOM     22  C   UNL     1       2.465   3.912  -0.005  0.00  0.00    +0.128 C 
BRANCH  22  27
ATOM     23  C   UNL     1      -2.440   0.858  -0.005  0.00  0.00    +0.044 C 
ATOM     24  C   UNL     1      -1.161   1.654  -0.002  0.00  0.00    -0.048 A 
ATOM     25  C   UNL     1       0.059   1.003   0.007  0.00  0.00    +0.004 A 
ATOM     26  C   UNL     1       1.232   1.734   0.004  0.00  0.00    +0.006 A 
ATOM     27  C   UNL     1       1.186   3.115  -0.002  0.00  0.00    -0.021 A 
ATOM     28  C   UNL     1      -0.033   3.766  -0.006  0.00  0.00    +0.009 A 
ATOM     29  C   UNL     1      -1.207   3.035  -0.004  0.00  0.00    -0.047 A 
ATOM     30  C   UNL     1      -2.536   3.745  -0.008  0.00  0.00    +0.044 C 
ENDBRANCH  22  27
BRANCH  22  31
ATOM     31  O   UNL     1       3.416   3.284  -0.868  0.00  0.00    -0.389 OA
ATOM     32  H   UNL     1       3.643   2.380  -0.611  0.00  0.00    +0.210 HD
ENDBRANCH  22  31
ENDBRANCH  21  22
ENDBRANCH  15  21
TORSDOF 6
