REMARK  Name = ZINC63375992
REMARK  9 active torsions:
REMARK  status: ('A' for Active; 'I' for Inactive)
REMARK    1  A    between atoms: C_1  and  C_2
REMARK    2  A    between atoms: C_2  and  C_3
REMARK    3  A    between atoms: C_3  and  C_5
REMARK    4  A    between atoms: C_3  and  N_6
REMARK    5  A    between atoms: C_7  and  C_9
REMARK    6  A    between atoms: C_14  and  N_15
REMARK    7  A    between atoms: C_31  and  C_36
REMARK    8  A    between atoms: C_39  and  O_42
REMARK    9  A    between atoms: O_42  and  C_43
REMARK                            x       y       z     vdW  Elec       q    Type
REMARK                         _______ _______ _______ _____ _____    ______ ____
ROOT
ATOM      1  N   UNL     1       1.808   0.498  -6.565  0.00  0.00    -0.192 N 
ATOM      2  C   UNL     1       2.345  -0.712  -6.824  0.00  0.00    +0.248 C 
ATOM      3  O   UNL     1       1.751  -1.737  -7.082  0.00  0.00    -0.273 OA
ATOM      4  C   UNL     1       3.843  -0.524  -6.726  0.00  0.00    +0.169 C 
ATOM      5  C   UNL     1       4.421  -1.461  -5.651  0.00  0.00    +0.065 C 
ATOM      6  C   UNL     1       5.719  -0.836  -5.195  0.00  0.00    -0.034 C 
ATOM      7  C   UNL     1       6.947  -1.339  -5.134  0.00  0.00    -0.001 A 
ATOM      8  C   UNL     1       7.464  -2.693  -5.390  0.00  0.00    +0.010 A 
ATOM      9  C   UNL     1       8.806  -2.858  -5.250  0.00  0.00    +0.001 A 
ATOM     10  C   UNL     1       9.675  -1.825  -4.884  0.00  0.00    +0.002 A 
ATOM     11  C   UNL     1       9.285  -0.552  -4.622  0.00  0.00    +0.026 A 
ATOM     12  C   UNL     1       7.895  -0.256  -4.729  0.00  0.00    +0.043 A 
ATOM     13  N   UNL     1       7.253   0.855  -4.520  0.00  0.00    -0.375 N 
ATOM     14  C   UNL     1       5.823   0.605  -4.710  0.00  0.00    +0.131 C 
ATOM     15  C   UNL     1       5.238   1.492  -5.818  0.00  0.00    +0.135 C 
ATOM     16  N   UNL     1       3.980   0.873  -6.268  0.00  0.00    -0.264 N 
ATOM     17  C   UNL     1       2.752   1.408  -6.283  0.00  0.00    +0.317 C 
ATOM     18  O   UNL     1       2.520   2.580  -6.064  0.00  0.00    -0.252 OA
ATOM     19  H   UNL     1       7.653   1.704  -4.279  0.00  0.00    +0.160 HD
ENDROOT
BRANCH   1  25
ATOM     20  C   UNL     1      -0.331   0.627  -5.430  0.00  0.00    +0.059 A 
ATOM     21  C   UNL     1      -1.699   0.909  -5.469  0.00  0.00    +0.015 A 
ATOM     22  C   UNL     1      -2.283   1.320  -6.648  0.00  0.00    +0.001 A 
ATOM     23  C   UNL     1      -1.519   1.456  -7.796  0.00  0.00    +0.002 A 
ATOM     24  C   UNL     1      -0.166   1.182  -7.772  0.00  0.00    +0.025 A 
ATOM     25  C   UNL     1       0.439   0.772  -6.593  0.00  0.00    +0.058 A 
BRANCH  20  27
ATOM     26  N   UNL     1      -0.445   0.049  -3.056  0.00  0.00    -0.309 N 
ATOM     27  C   UNL     1       0.300   0.187  -4.171  0.00  0.00    +0.246 C 
ATOM     28  O   UNL     1       1.492  -0.052  -4.140  0.00  0.00    -0.270 OA
ATOM     29  H   UNL     1      -1.395   0.240  -3.081  0.00  0.00    +0.149 HD
BRANCH  26  30
ATOM     30  C   UNL     1       0.182  -0.388  -1.806  0.00  0.00    +0.070 C 
ATOM     31  C   UNL     1       0.246  -1.917  -1.776  0.00  0.00    +0.028 C 
BRANCH  30  33
ATOM     32  C   UNL     1      -0.604   1.641  -0.579  0.00  0.00    +0.005 C 
ATOM     33  C   UNL     1      -0.644   0.112  -0.619  0.00  0.00    +0.018 C 
ENDBRANCH  30  33
ENDBRANCH  26  30
ENDBRANCH  20  27
ENDBRANCH   1  25
BRANCH  15  34
ATOM     34  C   UNL     1       4.971   2.876  -5.283  0.00  0.00    -0.024 A 
ATOM     35  C   UNL     1       4.126   3.046  -4.202  0.00  0.00    +0.009 A 
ATOM     36  C   UNL     1       3.879   4.313  -3.709  0.00  0.00    +0.046 A 
ATOM     37  C   UNL     1       4.480   5.415  -4.300  0.00  0.00    +0.120 A 
ATOM     38  C   UNL     1       5.328   5.241  -5.384  0.00  0.00    +0.046 A 
ATOM     39  C   UNL     1       5.576   3.972  -5.870  0.00  0.00    +0.009 A 
BRANCH  37  40
ATOM     40  O   UNL     1       4.239   6.662  -3.817  0.00  0.00    -0.495 OA
ATOM     41  C   UNL     1       4.892   7.749  -4.475  0.00  0.00    +0.277 C 
ENDBRANCH  37  40
ENDBRANCH  15  34
TORSDOF 6
