REMARK  Name = ZINC45645782
REMARK  10 active torsions:
REMARK  status: ('A' for Active; 'I' for Inactive)
REMARK    1  A    between atoms: C_1  and  N_2
REMARK    2  A    between atoms: N_2  and  C_3
REMARK    3  A    between atoms: N_2  and  C_4
REMARK    4  A    between atoms: C_4  and  C_6
REMARK    5  A    between atoms: C_4  and  C_22
REMARK    6  A    between atoms: C_6  and  N_7
REMARK    7  A    between atoms: N_10  and  C_11
REMARK    8  A    between atoms: C_13  and  C_19
REMARK    9  A    between atoms: C_16  and  O_17
REMARK   10  A    between atoms: O_17  and  C_18
REMARK                            x       y       z     vdW  Elec       q    Type
REMARK                         _______ _______ _______ _____ _____    ______ ____
ROOT
ATOM      1  N   UNL     1       0.298  -1.477   0.006  0.00  0.00    -0.300 N 
ATOM      2  C   UNL     1       0.871  -2.685  -0.164  0.00  0.00    +0.304 C 
ATOM      3  O   UNL     1       0.847  -3.220  -1.256  0.00  0.00    -0.253 OA
ATOM      4  N   UNL     1       1.469  -3.300   0.875  0.00  0.00    -0.266 N 
ATOM      5  H   UNL     1       0.317  -1.050   0.877  0.00  0.00    +0.150 HD
ATOM      6  H   UNL     1       1.415  -2.914   1.764  0.00  0.00    +0.156 HD
ENDROOT
BRANCH   4   7
ATOM      7  C   UNL     1       2.169  -4.498   0.673  0.00  0.00    +0.077 A 
ATOM      8  C   UNL     1       2.594  -4.845  -0.597  0.00  0.00    +0.040 A 
ATOM      9  C   UNL     1       3.291  -6.039  -0.794  0.00  0.00    +0.038 A 
ATOM     10  C   UNL     1       3.556  -6.878   0.291  0.00  0.00    +0.017 A 
ATOM     11  C   UNL     1       3.131  -6.527   1.554  0.00  0.00    +0.048 A 
ATOM     12  C   UNL     1       2.442  -5.338   1.753  0.00  0.00    +0.141 A 
BRANCH   9  13
ATOM     13  C   UNL     1       3.746  -6.414  -2.147  0.00  0.00    +0.242 C 
ATOM     14  O   UNL     1       3.514  -5.684  -3.091  0.00  0.00    -0.270 OA
ATOM     15  N   UNL     1       4.419  -7.567  -2.336  0.00  0.00    -0.325 N 
ATOM     16  H   UNL     1       4.604  -8.149  -1.583  0.00  0.00    +0.145 HD
ATOM     17  H   UNL     1       4.718  -7.814  -3.225  0.00  0.00    +0.145 HD
ENDBRANCH   9  13
BRANCH  12  18
ATOM     18  O   UNL     1       2.030  -4.994   3.000  0.00  0.00    -0.493 OA
ATOM     19  C   UNL     1       2.343  -5.900   4.060  0.00  0.00    +0.277 C 
ENDBRANCH  12  18
ENDBRANCH   4   7
BRANCH   1  20
ATOM     20  C   UNL     1      -0.352  -0.809  -1.123  0.00  0.00    +0.095 C 
BRANCH  20  21
ATOM     21  C   UNL     1      -1.027   0.475  -0.636  0.00  0.00    -0.020 C 
BRANCH  21  22
ATOM     22  C   UNL     1      -2.160   0.126   0.293  0.00  0.00    -0.052 A 
ATOM     23  C   UNL     1      -1.995   0.210   1.663  0.00  0.00    +0.009 A 
ATOM     24  C   UNL     1      -3.034  -0.111   2.472  0.00  0.00    +0.045 A 
ATOM     25  S   UNL     1      -4.299  -0.550   1.290  0.00  0.00    -0.105 S 
ATOM     26  C   UNL     1      -3.358  -0.270  -0.201  0.00  0.00    +0.047 A 
ENDBRANCH  21  22
BRANCH  21  28
ATOM     27  C   UNL     1      -2.234   2.433  -1.319  0.00  0.00    -0.096 C 
ATOM     28  N   UNL     1      -1.551   1.220  -1.789  0.00  0.00    +0.382 N 
ATOM     29  C   UNL     1      -0.441   1.596  -2.675  0.00  0.00    -0.096 C 
ATOM     30  H   UNL     1      -2.204   0.641  -2.295  0.00  0.00    -0.082 HD
ENDBRANCH  21  28
ENDBRANCH  20  21
ENDBRANCH   1  20
TORSDOF 7
