REMARK  Name = ZINC43222907
REMARK  13 active torsions:
REMARK  status: ('A' for Active; 'I' for Inactive)
REMARK    1  A    between atoms: C_1  and  C_2
REMARK    2  A    between atoms: C_2  and  C_4
REMARK    3  A    between atoms: C_2  and  N_10
REMARK    4  A    between atoms: C_4  and  C_5
REMARK    5  A    between atoms: C_5  and  C_6
REMARK    6  A    between atoms: C_6  and  C_7
REMARK    7  A    between atoms: C_7  and  C_8
REMARK    8  A    between atoms: C_7  and  C_9
REMARK    9  A    between atoms: C_11  and  C_13
REMARK   10  A    between atoms: C_18  and  C_20
REMARK   11  A    between atoms: N_22  and  C_23
REMARK   12  A    between atoms: C_23  and  C_25
REMARK   13  A    between atoms: C_23  and  C_26
REMARK                            x       y       z     vdW  Elec       q    Type
REMARK                         _______ _______ _______ _____ _____    ______ ____
ROOT
ATOM      1  C   UNL     1      -2.186   0.997   3.607  0.00  0.00    +0.068 C 
ATOM      2  C   UNL     1      -1.558   0.828   2.207  0.00  0.00    -0.069 C 
ATOM      3  N   UNL     1      -1.836  -0.584   1.840  0.00  0.00    +0.380 N 
ATOM      4  C   UNL     1      -3.217  -0.825   2.334  0.00  0.00    -0.069 C 
ATOM      5  C   UNL     1      -3.279  -0.089   3.692  0.00  0.00    +0.068 C 
ATOM      6  H   UNL     1      -1.794  -0.703   0.838  0.00  0.00    -0.086 HD
ATOM      7  H   UNL     1      -1.185  -1.203   2.298  0.00  0.00    -0.086 HD
ENDROOT
BRANCH   1   9
ATOM      8  N   UNL     1      -0.084   1.602   4.762  0.00  0.00    -0.313 N 
ATOM      9  C   UNL     1      -1.147   0.778   4.677  0.00  0.00    +0.215 C 
ATOM     10  O   UNL     1      -1.268  -0.139   5.462  0.00  0.00    -0.276 OA
ATOM     11  H   UNL     1       0.012   2.336   4.135  0.00  0.00    +0.149 HD
BRANCH   8  13
ATOM     12  C   UNL     1       0.478   2.074   7.095  0.00  0.00    +0.028 C 
ATOM     13  C   UNL     1       0.926   1.390   5.802  0.00  0.00    +0.070 C 
BRANCH  13  14
ATOM     14  C   UNL     1       2.260   1.985   5.346  0.00  0.00    +0.022 C 
BRANCH  14  15
ATOM     15  C   UNL     1       2.769   1.218   4.124  0.00  0.00    +0.002 C 
BRANCH  15  16
ATOM     16  C   UNL     1       4.103   1.813   3.668  0.00  0.00    +0.003 C 
BRANCH  16  17
ATOM     17  C   UNL     1       4.613   1.046   2.447  0.00  0.00    -0.017 C 
ATOM     18  C   UNL     1       3.653   1.259   1.274  0.00  0.00    +0.007 C 
ATOM     19  C   UNL     1       6.004   1.558   2.067  0.00  0.00    +0.007 C 
ENDBRANCH  16  17
ENDBRANCH  15  16
ENDBRANCH  14  15
ENDBRANCH  13  14
ENDBRANCH   8  13
ENDBRANCH   1   9
BRANCH   5  20
ATOM     20  C   UNL     1      -4.633   0.544   3.885  0.00  0.00    +0.215 C 
ATOM     21  O   UNL     1      -4.733   1.751   3.951  0.00  0.00    -0.276 OA
ATOM     22  N   UNL     1      -5.731  -0.230   3.985  0.00  0.00    -0.309 N 
ATOM     23  H   UNL     1      -5.650  -1.195   3.932  0.00  0.00    +0.149 HD
BRANCH  22  24
ATOM     24  C   UNL     1      -7.047   0.386   4.172  0.00  0.00    +0.101 C 
ATOM     25  C   UNL     1      -8.133  -0.570   3.674  0.00  0.00    +0.033 C 
BRANCH  24  26
ATOM     26  C   UNL     1      -7.263   0.673   5.635  0.00  0.00    -0.020 A 
ATOM     27  C   UNL     1      -6.584  -0.034   6.579  0.00  0.00    +0.006 A 
ATOM     28  C   UNL     1      -6.770   0.218   7.937  0.00  0.00    +0.001 A 
ATOM     29  C   UNL     1      -7.638   1.178   8.359  0.00  0.00    +0.008 A 
ATOM     30  C   UNL     1      -8.357   1.929   7.414  0.00  0.00    -0.018 A 
ATOM     31  C   UNL     1      -8.162   1.677   6.032  0.00  0.00    -0.013 A 
ATOM     32  C   UNL     1      -8.878   2.432   5.087  0.00  0.00    +0.009 A 
ATOM     33  C   UNL     1      -9.740   3.396   5.509  0.00  0.00    +0.001 A 
ATOM     34  C   UNL     1      -9.927   3.649   6.867  0.00  0.00    +0.001 A 
ATOM     35  C   UNL     1      -9.262   2.928   7.811  0.00  0.00    +0.008 A 
ENDBRANCH  24  26
ENDBRANCH  22  24
ENDBRANCH   5  20
TORSDOF 9
