REMARK  Name = ZINC63490987
REMARK  10 active torsions:
REMARK  status: ('A' for Active; 'I' for Inactive)
REMARK    1  A    between atoms: C_1  and  C_2
REMARK    2  A    between atoms: C_2  and  C_3
REMARK    3  A    between atoms: C_10  and  C_14
REMARK    4  A    between atoms: C_14  and  O_15
REMARK    5  A    between atoms: O_15  and  C_16
REMARK    6  A    between atoms: C_19  and  C_24
REMARK    7  A    between atoms: C_21  and  O_22
REMARK    8  A    between atoms: O_22  and  C_23
REMARK    9  A    between atoms: C_25  and  C_26
REMARK   10  A    between atoms: C_25  and  C_28
REMARK                            x       y       z     vdW  Elec       q    Type
REMARK                         _______ _______ _______ _____ _____    ______ ____
ROOT
ATOM      1  C   UNL     1       3.320  -2.715   8.887  0.00  0.00    +0.162 A 
ATOM      2  C   UNL     1       3.109  -4.081   9.023  0.00  0.00    +0.050 A 
ATOM      3  C   UNL     1       3.470  -4.725  10.186  0.00  0.00    +0.012 A 
ATOM      4  C   UNL     1       4.052  -4.002  11.233  0.00  0.00    -0.020 A 
ATOM      5  C   UNL     1       4.265  -2.626  11.095  0.00  0.00    +0.057 A 
ATOM      6  C   UNL     1       3.904  -1.989   9.924  0.00  0.00    +0.162 A 
ENDROOT
BRANCH   6   7
ATOM      7  O   UNL     1       4.113  -0.653   9.784  0.00  0.00    -0.491 OA
ATOM      8  C   UNL     1       4.715   0.028  10.886  0.00  0.00    +0.277 C 
ENDBRANCH   6   7
BRANCH   4   9
ATOM      9  C   UNL     1       4.439  -4.686  12.476  0.00  0.00    +0.026 C 
ATOM     10  C   UNL     1       4.836  -5.976  12.441  0.00  0.00    +0.072 C 
BRANCH  10  11
ATOM     11  C   UNL     1       5.078  -6.725  13.726  0.00  0.00    +0.216 C 
ATOM     12  N   UNL     1       6.450  -7.248  13.753  0.00  0.00    -0.359 N 
ATOM     13  C   UNL     1       6.371  -8.545  13.837  0.00  0.00    +0.060 A 
ATOM     14  C   UNL     1       7.387  -9.605  13.900  0.00  0.00    +0.027 A 
ATOM     15  C   UNL     1       6.999 -10.893  13.985  0.00  0.00    +0.002 A 
ATOM     16  C   UNL     1       5.646 -11.277  14.016  0.00  0.00    +0.002 A 
ATOM     17  C   UNL     1       4.636 -10.386  13.963  0.00  0.00    +0.027 A 
ATOM     18  C   UNL     1       4.940  -8.951  13.870  0.00  0.00    +0.060 A 
ATOM     19  N   UNL     1       4.189  -7.890  13.805  0.00  0.00    -0.359 N 
ATOM     20  H   UNL     1       7.265  -6.724  13.715  0.00  0.00    +0.162 HD
ATOM     21  H   UNL     1       3.219  -7.873  13.809  0.00  0.00    +0.162 HD
ENDBRANCH  10  11
BRANCH  10  22
ATOM     22  C   UNL     1       5.028  -6.632  11.182  0.00  0.00    +0.099 C 
ATOM     23  N   UNL     1       5.180  -7.152  10.184  0.00  0.00    -0.191 NA
ENDBRANCH  10  22
ENDBRANCH   4   9
BRANCH   1  24
ATOM     24  O   UNL     1       2.961  -2.086   7.737  0.00  0.00    -0.482 OA
BRANCH  24  25
ATOM     25  C   UNL     1       2.368  -2.890   6.715  0.00  0.00    +0.279 C 
BRANCH  25  32
ATOM     26  C   UNL     1       0.151  -0.561   1.409  0.00  0.00    +0.095 C 
ATOM     27  N   UNL     1       0.834   0.112   2.283  0.00  0.00    -0.172 NA
ATOM     28  N   UNL     1       1.528  -0.482   3.317  0.00  0.00    -0.158 N 
ATOM     29  C   UNL     1       1.742  -1.951   3.115  0.00  0.00    +0.250 C 
ATOM     30  S   UNL     1       0.358  -2.258   1.939  0.00  0.00    -0.065 S 
ATOM     31  N   UNL     1       1.456  -2.583   4.410  0.00  0.00    -0.316 N 
ATOM     32  C   UNL     1       2.039  -2.026   5.525  0.00  0.00    +0.049 C 
ATOM     33  C   UNL     1       2.315  -0.706   5.551  0.00  0.00    +0.091 C 
ATOM     34  C   UNL     1       1.983   0.114   4.449  0.00  0.00    +0.263 C 
ATOM     35  O   UNL     1       2.134   1.321   4.506  0.00  0.00    -0.269 OA
ATOM     36  H   UNL     1       0.880  -3.361   4.476  0.00  0.00    +0.148 HD
BRANCH  26  38
ATOM     37  C   UNL     1      -0.520   1.486   0.181  0.00  0.00    +0.011 C 
ATOM     38  C   UNL     1      -0.634  -0.038   0.234  0.00  0.00    +0.061 C 
ENDBRANCH  26  38
ENDBRANCH  25  32
ENDBRANCH  24  25
ENDBRANCH   1  24
TORSDOF 8
