REMARK  Name = ZINC19357707
REMARK  5 active torsions:
REMARK  status: ('A' for Active; 'I' for Inactive)
REMARK    1  A    between atoms: C_1  and  O_2
REMARK    2  A    between atoms: O_2  and  C_3
REMARK    3  A    between atoms: C_6  and  C_13
REMARK    4  A    between atoms: C_8  and  O_9
REMARK    5  A    between atoms: O_9  and  C_10
REMARK                            x       y       z     vdW  Elec       q    Type
REMARK                         _______ _______ _______ _____ _____    ______ ____
ROOT
ATOM      1  C   UNL     1      -4.987  -2.627   0.035  0.00  0.00    +0.209 C 
ATOM      2  N   UNL     1      -5.942  -1.901  -0.822  0.00  0.00    -0.294 N 
ATOM      3  C   UNL     1      -6.606  -0.808  -0.331  0.00  0.00    +0.160 C 
ATOM      4  N   UNL     1      -6.895  -0.697   0.953  0.00  0.00    -0.302 N 
ATOM      5  C   UNL     1      -6.464  -1.665   1.797  0.00  0.00    +0.213 A 
ATOM      6  N   UNL     1      -5.548  -2.621   1.391  0.00  0.00    -0.286 N 
ATOM      7  C   UNL     1      -5.318  -3.464   2.453  0.00  0.00    +0.076 A 
ATOM      8  C   UNL     1      -4.530  -4.591   2.643  0.00  0.00    +0.077 A 
ATOM      9  C   UNL     1      -4.521  -5.225   3.870  0.00  0.00    +0.164 A 
ATOM     10  C   UNL     1      -5.298  -4.744   4.919  0.00  0.00    +0.164 A 
ATOM     11  C   UNL     1      -6.088  -3.626   4.748  0.00  0.00    +0.079 A 
ATOM     12  C   UNL     1      -6.106  -2.973   3.511  0.00  0.00    +0.095 A 
ATOM     13  N   UNL     1      -6.771  -1.871   3.050  0.00  0.00    -0.212 NA
ATOM     14  O   UNL     1      -5.274  -5.385   6.125  0.00  0.00    -0.488 OA
ATOM     15  C   UNL     1      -5.858  -6.689   6.152  0.00  0.00    +0.232 C 
ATOM     16  C   UNL     1      -4.854  -7.739   5.702  0.00  0.00    +0.082 C 
ATOM     17  C   UNL     1      -4.447  -7.564   4.248  0.00  0.00    +0.232 C 
ATOM     18  O   UNL     1      -3.745  -6.333   4.061  0.00  0.00    -0.488 OA
ATOM     19  N   UNL     1      -6.977   0.191  -1.190  0.00  0.00    -0.332 N 
ATOM     20  H   UNL     1      -7.404   0.059   1.284  0.00  0.00    +0.171 HD
ATOM     21  H   UNL     1      -6.770   0.120  -2.135  0.00  0.00    +0.145 HD
ATOM     22  H   UNL     1      -7.448   0.969  -0.854  0.00  0.00    +0.145 HD
ATOM     23  H   UNL     1      -6.101  -2.198  -1.732  0.00  0.00    +0.151 HD
ENDROOT
BRANCH   1  27
ATOM     24  C   UNL     1      -1.201  -0.638   0.010  0.00  0.00    +0.162 A 
ATOM     25  C   UNL     1      -2.374   0.099   0.019  0.00  0.00    +0.050 A 
ATOM     26  C   UNL     1      -3.596  -0.546   0.027  0.00  0.00    +0.011 A 
ATOM     27  C   UNL     1      -3.652  -1.928   0.026  0.00  0.00    -0.003 A 
ATOM     28  C   UNL     1      -2.485  -2.669   0.017  0.00  0.00    +0.057 A 
ATOM     29  C   UNL     1      -1.257  -2.028   0.003  0.00  0.00    +0.169 A 
BRANCH  24  31
ATOM     30  C   UNL     1      -0.017   1.425   0.010  0.00  0.00    +0.277 C 
ATOM     31  O   UNL     1       0.002  -0.004   0.002  0.00  0.00    -0.491 OA
ENDBRANCH  24  31
BRANCH  29  32
ATOM     32  O   UNL     1      -0.108  -2.756  -0.012  0.00  0.00    -0.431 OA
BRANCH  32  33
ATOM     33  C   UNL     1      -0.242  -4.179  -0.018  0.00  0.00    +0.541 C 
ATOM     34  F   UNL     1      -0.931  -4.588   1.129  0.00  0.00    -0.166 F 
ATOM     35  F   UNL     1      -0.953  -4.575  -1.156  0.00  0.00    -0.166 F 
ENDBRANCH  32  33
ENDBRANCH  29  32
ENDBRANCH   1  27
TORSDOF 4
