REMARK  Name = ZINC44963767
REMARK  15 active torsions:
REMARK  status: ('A' for Active; 'I' for Inactive)
REMARK    1  A    between atoms: C_1  and  C_2
REMARK    2  A    between atoms: C_2  and  C_3
REMARK    3  A    between atoms: C_3  and  C_4
REMARK    4  A    between atoms: C_7  and  C_12
REMARK    5  A    between atoms: N_9  and  C_11
REMARK    6  A    between atoms: N_14  and  C_15
REMARK    7  A    between atoms: C_15  and  C_17
REMARK    8  A    between atoms: C_15  and  C_33
REMARK    9  A    between atoms: C_19  and  O_32
REMARK   10  A    between atoms: C_21  and  O_31
REMARK   11  A    between atoms: C_23  and  O_30
REMARK   12  A    between atoms: C_25  and  S_28
REMARK   13  A    between atoms: S_28  and  C_29
REMARK   14  A    between atoms: C_33  and  C_35
REMARK   15  A    between atoms: C_33  and  O_36
REMARK                            x       y       z     vdW  Elec       q    Type
REMARK                         _______ _______ _______ _____ _____    ______ ____
ROOT
ATOM      1  C   UNL     1      -0.716  -4.798  -5.208  0.00  0.00    +0.132 C 
ENDROOT
BRANCH   1   2
ATOM      2  C   UNL     1       0.702  -4.548  -5.725  0.00  0.00    +0.173 C 
ATOM      3  C   UNL     1       1.027  -3.055  -5.623  0.00  0.00    +0.176 C 
ATOM      4  C   UNL     1       0.061  -2.269  -6.516  0.00  0.00    +0.177 C 
ATOM      5  C   UNL     1       0.170  -2.792  -7.952  0.00  0.00    +0.184 C 
ATOM      6  C   UNL     1      -0.121  -4.294  -7.963  0.00  0.00    +0.207 C 
ATOM      7  O   UNL     1       0.792  -4.962  -7.089  0.00  0.00    -0.356 OA
BRANCH   6   8
ATOM      8  S   UNL     1       0.075  -4.936  -9.648  0.00  0.00    -0.131 S 
ATOM      9  C   UNL     1      -0.589  -6.622  -9.556  0.00  0.00    +0.087 C 
ENDBRANCH   6   8
BRANCH   5  10
ATOM     10  O   UNL     1      -0.777  -2.114  -8.779  0.00  0.00    -0.386 OA
ATOM     11  H   UNL     1      -0.763  -2.396  -9.704  0.00  0.00    +0.210 HD
ENDBRANCH   5  10
BRANCH   4  12
ATOM     12  O   UNL     1       0.402  -0.882  -6.483  0.00  0.00    -0.386 OA
ATOM     13  H   UNL     1      -0.170  -0.323  -7.027  0.00  0.00    +0.210 HD
ENDBRANCH   4  12
BRANCH   3  14
ATOM     14  O   UNL     1       0.883  -2.626  -4.268  0.00  0.00    -0.387 OA
ATOM     15  H   UNL     1       1.073  -1.688  -4.130  0.00  0.00    +0.210 HD
ENDBRANCH   3  14
ENDBRANCH   1   2
BRANCH   1  18
ATOM     16  C   UNL     1      -1.946  -4.150  -3.207  0.00  0.00    +0.200 C 
ATOM     17  O   UNL     1      -2.953  -4.089  -3.881  0.00  0.00    -0.278 OA
ATOM     18  N   UNL     1      -0.774  -4.495  -3.776  0.00  0.00    -0.309 N 
ATOM     19  H   UNL     1       0.031  -4.543  -3.236  0.00  0.00    +0.149 HD
BRANCH  16  22
ATOM     20  C   UNL     1      -1.740  -2.077  -0.093  0.00  0.00    -0.029 C 
ATOM     21  C   UNL     1      -1.108  -2.622  -1.395  0.00  0.00    -0.005 C 
ATOM     22  C   UNL     1      -2.006  -3.838  -1.734  0.00  0.00    +0.019 C 
ATOM     23  N   UNL     1      -3.364  -3.376  -1.347  0.00  0.00    +0.386 N 
ATOM     24  C   UNL     1      -3.186  -2.605  -0.095  0.00  0.00    -0.075 C 
ATOM     25  C   UNL     1      -4.243  -4.529  -1.111  0.00  0.00    -0.095 C 
ATOM     26  H   UNL     1      -3.749  -2.785  -2.068  0.00  0.00    -0.081 HD
BRANCH  20  27
ATOM     27  C   UNL     1      -1.732  -0.547  -0.099  0.00  0.00    +0.001 C 
BRANCH  27  29
ATOM     28  C   UNL     1      -0.283   1.486  -0.013  0.00  0.00    +0.004 C 
ATOM     29  C   UNL     1      -0.291  -0.044  -0.007  0.00  0.00    -0.003 C 
ENDBRANCH  27  29
ENDBRANCH  20  27
ENDBRANCH  16  22
ENDBRANCH   1  18
BRANCH   1  30
ATOM     30  C   UNL     1      -1.090  -6.264  -5.435  0.00  0.00    +0.134 C 
ATOM     31  C   UNL     1      -0.197  -7.158  -4.572  0.00  0.00    +0.039 C 
BRANCH  30  32
ATOM     32  O   UNL     1      -2.458  -6.468  -5.075  0.00  0.00    -0.390 OA
ATOM     33  H   UNL     1      -3.087  -5.992  -5.634  0.00  0.00    +0.210 HD
ENDBRANCH  30  32
ENDBRANCH   1  30
TORSDOF 11
