REMARK  Name = ZINC08395490
REMARK  9 active torsions:
REMARK  status: ('A' for Active; 'I' for Inactive)
REMARK    1  A    between atoms: C_1  and  C_2
REMARK    2  A    between atoms: C_5  and  N_9
REMARK    3  A    between atoms: C_6  and  C_8
REMARK    4  A    between atoms: C_10  and  C_12
REMARK    5  A    between atoms: C_12  and  C_13
REMARK    6  A    between atoms: C_13  and  C_15
REMARK    7  A    between atoms: C_13  and  N_49
REMARK    8  A    between atoms: C_16  and  N_49
REMARK    9  A    between atoms: C_19  and  O_22
REMARK                            x       y       z     vdW  Elec       q    Type
REMARK                         _______ _______ _______ _____ _____    ______ ____
ROOT
ATOM      1  C   UNL     1       3.785  -0.965   0.149  0.00  0.00    +0.080 C 
ENDROOT
BRANCH   1   3
ATOM      2  N   UNL     1       2.519   1.143  -0.122  0.00  0.00    -0.285 N 
ATOM      3  C   UNL     1       2.495  -0.199   0.005  0.00  0.00    +0.216 C 
ATOM      4  O   UNL     1       1.436  -0.789   0.003  0.00  0.00    -0.276 OA
ATOM      5  H   UNL     1       3.368   1.610  -0.174  0.00  0.00    +0.155 HD
BRANCH   2  10
ATOM      6  C   UNL     1      -2.342   4.059  -0.350  0.00  0.00    +0.044 C 
ATOM      7  C   UNL     1      -1.051   3.284  -0.288  0.00  0.00    -0.050 A 
ATOM      8  C   UNL     1      -0.975   2.023  -0.852  0.00  0.00    +0.005 A 
ATOM      9  C   UNL     1       0.205   1.309  -0.793  0.00  0.00    +0.024 A 
ATOM     10  C   UNL     1       1.320   1.862  -0.177  0.00  0.00    +0.036 A 
ATOM     11  C   UNL     1       1.243   3.130   0.383  0.00  0.00    -0.029 A 
ATOM     12  C   UNL     1       0.058   3.837   0.326  0.00  0.00    +0.008 A 
ATOM     13  C   UNL     1       2.450   3.734   1.053  0.00  0.00    +0.045 C 
ENDBRANCH   2  10
ENDBRANCH   1   3
BRANCH   1  14
ATOM     14  C   UNL     1       3.479  -2.459   0.274  0.00  0.00    -0.066 C 
ATOM     15  C   UNL     1       4.776  -3.224   0.545  0.00  0.00    -0.013 C 
BRANCH  14  16
ATOM     16  N   UNL     1       2.879  -2.938  -0.985  0.00  0.00    +0.383 N 
ATOM     17  H   UNL     1       3.626  -3.217  -1.632  0.00  0.00    -0.085 HD
ATOM     18  H   UNL     1       2.326  -2.182  -1.406  0.00  0.00    -0.085 HD
BRANCH  16  19
ATOM     19  C   UNL     1       2.002  -4.096  -0.726  0.00  0.00    -0.071 C 
ATOM     20  C   UNL     1       1.981  -4.997  -1.963  0.00  0.00    -0.013 C 
ATOM     21  C   UNL     1       1.069  -6.198  -1.703  0.00  0.00    +0.030 C 
ATOM     22  C   UNL     1      -0.349  -5.707  -1.406  0.00  0.00    +0.114 C 
ATOM     23  C   UNL     1      -0.329  -4.806  -0.170  0.00  0.00    +0.030 C 
ATOM     24  C   UNL     1       0.583  -3.604  -0.429  0.00  0.00    -0.013 C 
BRANCH  22  25
ATOM     25  O   UNL     1      -0.842  -4.968  -2.526  0.00  0.00    -0.392 OA
ATOM     26  H   UNL     1      -0.882  -5.478  -3.347  0.00  0.00    +0.210 HD
ENDBRANCH  22  25
ENDBRANCH  16  19
ENDBRANCH  14  16
ENDBRANCH   1  14
TORSDOF 6
