REMARK  Name = ZINC15962712
REMARK  11 active torsions:
REMARK  status: ('A' for Active; 'I' for Inactive)
REMARK    1  A    between atoms: C_1  and  C_2
REMARK    2  A    between atoms: C_6  and  C_19
REMARK    3  A    between atoms: N_8  and  C_9
REMARK    4  A    between atoms: C_13  and  C_15
REMARK    5  A    between atoms: N_21  and  C_22
REMARK    6  A    between atoms: C_24  and  O_30
REMARK    7  A    between atoms: C_26  and  O_28
REMARK    8  A    between atoms: O_28  and  C_29
REMARK    9  A    between atoms: O_30  and  C_31
REMARK   10  A    between atoms: C_32  and  C_35
REMARK   11  A    between atoms: C_35  and  O_36
REMARK                            x       y       z     vdW  Elec       q    Type
REMARK                         _______ _______ _______ _____ _____    ______ ____
ROOT
ATOM      1  C   UNL     1       1.657   0.955   0.418  0.00  0.00    +0.069 C 
ATOM      2  C   UNL     1       0.714  -0.206   0.235  0.00  0.00    +0.081 A 
ATOM      3  C   UNL     1       0.321  -0.582  -1.041  0.00  0.00    +0.159 A 
ATOM      4  C   UNL     1      -0.559  -1.671  -1.186  0.00  0.00    +0.027 A 
ATOM      5  C   UNL     1      -0.981  -2.088  -2.525  0.00  0.00    +0.030 A 
ATOM      6  C   UNL     1      -0.290  -1.565  -3.596  0.00  0.00    +0.098 A 
ATOM      7  C   UNL     1       0.816  -0.632  -3.298  0.00  0.00    +0.212 A 
ATOM      8  N   UNL     1       1.822  -0.490  -4.131  0.00  0.00    -0.325 N 
ATOM      9  O   UNL     1       0.764   0.074  -2.139  0.00  0.00    -0.437 OA
ATOM     10  C   UNL     1      -1.006  -2.330  -0.034  0.00  0.00    +0.007 A 
ATOM     11  C   UNL     1      -0.561  -1.883   1.193  0.00  0.00    +0.117 A 
ATOM     12  N   UNL     1       0.271  -0.862   1.289  0.00  0.00    -0.256 NA
ATOM     13  H   UNL     1       1.943  -1.121  -4.858  0.00  0.00    +0.169 HD
ENDROOT
BRANCH   8  14
ATOM     14  C   UNL     1       2.699   0.548  -3.973  0.00  0.00    +0.043 A 
ATOM     15  C   UNL     1       2.222   1.835  -3.709  0.00  0.00    +0.026 A 
ATOM     16  C   UNL     1       3.106   2.883  -3.549  0.00  0.00    +0.003 A 
ATOM     17  C   UNL     1       4.467   2.668  -3.649  0.00  0.00    +0.013 A 
ATOM     18  C   UNL     1       4.958   1.388  -3.913  0.00  0.00    +0.038 A 
ATOM     19  C   UNL     1       4.072   0.324  -4.070  0.00  0.00    +0.038 A 
BRANCH  18  20
ATOM     20  C   UNL     1       6.415   1.161  -4.021  0.00  0.00    +0.242 C 
ATOM     21  O   UNL     1       6.841   0.046  -4.250  0.00  0.00    -0.270 OA
ATOM     22  N   UNL     1       7.271   2.190  -3.864  0.00  0.00    -0.325 N 
ATOM     23  H   UNL     1       6.931   3.080  -3.680  0.00  0.00    +0.145 HD
ATOM     24  H   UNL     1       8.227   2.041  -3.934  0.00  0.00    +0.145 HD
ENDBRANCH  18  20
ENDBRANCH   8  14
BRANCH   6  25
ATOM     25  C   UNL     1      -0.640  -1.922  -4.983  0.00  0.00    +0.253 C 
ATOM     26  O   UNL     1      -1.476  -2.778  -5.198  0.00  0.00    -0.270 OA
ATOM     27  N   UNL     1      -0.033  -1.299  -6.013  0.00  0.00    -0.281 N 
ATOM     28  H   UNL     1       0.657  -0.639  -5.841  0.00  0.00    +0.155 HD
BRANCH  27  29
ATOM     29  C   UNL     1      -0.397  -1.605  -7.327  0.00  0.00    +0.041 A 
ATOM     30  C   UNL     1      -0.846  -2.880  -7.645  0.00  0.00    +0.069 A 
ATOM     31  C   UNL     1      -1.207  -3.182  -8.949  0.00  0.00    +0.125 A 
ATOM     32  C   UNL     1      -1.120  -2.212  -9.936  0.00  0.00    +0.091 A 
ATOM     33  C   UNL     1      -0.672  -0.938  -9.620  0.00  0.00    +0.125 A 
ATOM     34  C   UNL     1      -0.316  -0.632  -8.315  0.00  0.00    +0.069 A 
BRANCH  33  35
ATOM     35  O   UNL     1      -0.587   0.013 -10.587  0.00  0.00    -0.495 OA
ATOM     36  C   UNL     1      -0.976  -0.370 -11.908  0.00  0.00    +0.277 C 
ENDBRANCH  33  35
BRANCH  31  37
ATOM     37  O   UNL     1      -1.646  -4.430  -9.261  0.00  0.00    -0.495 OA
ATOM     38  C   UNL     1      -2.001  -4.672 -10.623  0.00  0.00    +0.277 C 
ENDBRANCH  31  37
ENDBRANCH  27  29
ENDBRANCH   6  25
BRANCH  10  39
ATOM     39  C   UNL     1      -1.951  -3.499  -0.133  0.00  0.00    +0.193 C 
BRANCH  39  40
ATOM     40  O   UNL     1      -2.247  -3.984   1.179  0.00  0.00    -0.390 OA
ATOM     41  H   UNL     1      -2.852  -4.739   1.192  0.00  0.00    +0.210 HD
ENDBRANCH  39  40
ENDBRANCH  10  39
TORSDOF 8
