REMARK  Name = ZINC28620741
REMARK  9 active torsions:
REMARK  status: ('A' for Active; 'I' for Inactive)
REMARK    1  A    between atoms: C_1  and  C_2
REMARK    2  A    between atoms: C_5  and  S_7
REMARK    3  A    between atoms: S_7  and  N_10
REMARK    4  A    between atoms: C_14  and  C_17
REMARK    5  A    between atoms: N_19  and  C_20
REMARK    6  A    between atoms: C_25  and  C_26
REMARK    7  A    between atoms: C_26  and  N_27
REMARK    8  A    between atoms: N_27  and  C_28
REMARK    9  A    between atoms: N_27  and  C_29
REMARK                            x       y       z     vdW  Elec       q    Type
REMARK                         _______ _______ _______ _____ _____    ______ ____
ROOT
ATOM      1  C   UNL     1       3.901   2.809  -5.484  0.00  0.00    +0.222 C 
ATOM      2  O   UNL     1       4.781   2.846  -6.318  0.00  0.00    -0.275 OA
ATOM      3  N   UNL     1       3.677   1.676  -4.790  0.00  0.00    -0.285 N 
ATOM      4  H   UNL     1       2.833   1.619  -4.086  0.00  0.00    +0.155 HD
ENDROOT
BRANCH   1   9
ATOM      5  N   UNL     1       2.601   6.310  -5.968  0.00  0.00    -0.175 NA
ATOM      6  C   UNL     1       1.157   6.089  -6.128  0.00  0.00    +0.109 C 
ATOM      7  C   UNL     1       0.729   4.939  -5.211  0.00  0.00    +0.018 C 
ATOM      8  C   UNL     1       1.589   3.709  -5.507  0.00  0.00    +0.015 C 
ATOM      9  C   UNL     1       3.058   4.031  -5.223  0.00  0.00    +0.091 C 
ATOM     10  C   UNL     1       3.513   5.171  -6.141  0.00  0.00    +0.122 C 
BRANCH   5  11
ATOM     11  S   UNL     1       3.188   7.813  -5.598  0.00  0.00    +0.067 S 
ATOM     12  O   UNL     1       4.535   7.845  -6.051  0.00  0.00    -0.152 OA
ATOM     13  O   UNL     1       2.214   8.749  -6.039  0.00  0.00    -0.152 OA
BRANCH  11  18
ATOM     14  C   UNL     1       2.456   8.568   0.223  0.00  0.00    +0.051 C 
ATOM     15  C   UNL     1       2.892   8.284  -1.191  0.00  0.00    -0.011 A 
ATOM     16  C   UNL     1       4.072   7.789  -1.637  0.00  0.00    +0.013 A 
ATOM     17  C   UNL     1       4.251   7.604  -2.995  0.00  0.00    +0.036 A 
ATOM     18  C   UNL     1       3.245   7.933  -3.841  0.00  0.00    +0.143 A 
ATOM     19  S   UNL     1       1.988   8.513  -2.713  0.00  0.00    -0.074 S 
ENDBRANCH  11  18
ENDBRANCH   5  11
ENDBRANCH   1   9
BRANCH   3  20
ATOM     20  C   UNL     1       4.519   0.572  -4.963  0.00  0.00    +0.035 A 
ATOM     21  C   UNL     1       5.066   0.303  -6.211  0.00  0.00    +0.023 A 
ATOM     22  C   UNL     1       5.890  -0.792  -6.381  0.00  0.00    +0.002 A 
ATOM     23  C   UNL     1       6.177  -1.616  -5.308  0.00  0.00    +0.000 A 
ATOM     24  C   UNL     1       5.639  -1.348  -4.063  0.00  0.00    +0.003 A 
ATOM     25  C   UNL     1       4.812  -0.255  -3.887  0.00  0.00    -0.043 A 
BRANCH  25  26
ATOM     26  C   UNL     1       4.225   0.035  -2.530  0.00  0.00    -0.041 C 
BRANCH  26  27
ATOM     27  N   UNL     1       2.838  -0.448  -2.483  0.00  0.00    +0.382 N 
ATOM     28  C   UNL     1       2.788  -1.913  -2.579  0.00  0.00    -0.095 C 
ATOM     29  H   UNL     1       2.306  -0.033  -3.352  0.00  0.00    -0.081 HD
BRANCH  27  30
ATOM     30  C   UNL     1       2.158   0.024  -1.270  0.00  0.00    -0.069 C 
ATOM     31  C   UNL     1       0.720  -0.498  -1.256  0.00  0.00    -0.015 C 
ATOM     32  C   UNL     1       0.011  -0.006   0.008  0.00  0.00    -0.002 C 
ATOM     33  C   UNL     1      -0.002   1.523   0.023  0.00  0.00    -0.000 C 
ATOM     34  C   UNL     1       1.436   2.046   0.009  0.00  0.00    -0.002 C 
ATOM     35  C   UNL     1       2.145   1.554  -1.254  0.00  0.00    -0.015 C 
ENDBRANCH  27  30
ENDBRANCH  26  27
ENDBRANCH  25  26
ENDBRANCH   3  20
TORSDOF 7
