REMARK  Name = ZINC63709560
REMARK  5 active torsions:
REMARK  status: ('A' for Active; 'I' for Inactive)
REMARK    1  A    between atoms: C_4  and  N_16
REMARK    2  A    between atoms: C_5  and  C_7
REMARK    3  A    between atoms: C_17  and  C_19
REMARK    4  A    between atoms: N_22  and  S_25
REMARK    5  A    between atoms: S_25  and  C_28
REMARK                            x       y       z     vdW  Elec       q    Type
REMARK                         _______ _______ _______ _____ _____    ______ ____
ROOT
ATOM      1  N   UNL     1       3.503  -0.816   0.230  0.00  0.00    -0.285 N 
ATOM      2  C   UNL     1       4.705  -0.209   0.274  0.00  0.00    +0.220 C 
ATOM      3  O   UNL     1       4.773   1.002   0.302  0.00  0.00    -0.275 OA
ATOM      4  H   UNL     1       3.446  -1.783   0.267  0.00  0.00    +0.155 HD
ENDROOT
BRANCH   1   8
ATOM      5  C   UNL     1       0.028   1.464  -0.063  0.00  0.00    +0.001 A 
ATOM      6  C   UNL     1       1.058   1.879   0.761  0.00  0.00    +0.002 A 
ATOM      7  C   UNL     1       2.211   1.125   0.861  0.00  0.00    +0.024 A 
ATOM      8  C   UNL     1       2.336  -0.050   0.132  0.00  0.00    +0.040 A 
ATOM      9  C   UNL     1       1.300  -0.464  -0.695  0.00  0.00    +0.016 A 
ATOM     10  C   UNL     1       0.149   0.295  -0.790  0.00  0.00    +0.009 A 
BRANCH   9  11
ATOM     11  C   UNL     1       1.431  -1.739  -1.488  0.00  0.00    +0.208 C 
ATOM     12  N   UNL     1       2.786  -1.851  -2.042  0.00  0.00    -0.360 N 
ATOM     13  C   UNL     1       2.675  -1.887  -3.339  0.00  0.00    +0.060 A 
ATOM     14  C   UNL     1       3.662  -1.992  -4.423  0.00  0.00    +0.027 A 
ATOM     15  C   UNL     1       3.243  -2.007  -5.704  0.00  0.00    +0.002 A 
ATOM     16  C   UNL     1       1.885  -1.925  -6.059  0.00  0.00    +0.002 A 
ATOM     17  C   UNL     1       0.899  -1.826  -5.144  0.00  0.00    +0.027 A 
ATOM     18  C   UNL     1       1.238  -1.801  -3.714  0.00  0.00    +0.060 A 
ATOM     19  N   UNL     1       0.515  -1.715  -2.635  0.00  0.00    -0.360 N 
ATOM     20  H   UNL     1       3.612  -1.889  -1.535  0.00  0.00    +0.162 HD
ATOM     21  H   UNL     1      -0.452  -1.648  -2.596  0.00  0.00    +0.162 HD
ENDBRANCH   9  11
ENDBRANCH   1   8
BRANCH   2  22
ATOM     22  C   UNL     1       5.966  -1.034   0.288  0.00  0.00    +0.078 C 
ATOM     23  C   UNL     1       5.965  -1.945   1.518  0.00  0.00    +0.030 C 
ATOM     24  C   UNL     1       7.231  -2.807   1.510  0.00  0.00    +0.110 C 
ATOM     25  N   UNL     1       8.403  -1.926   1.413  0.00  0.00    -0.176 NA
ATOM     26  C   UNL     1       8.462  -0.948   0.319  0.00  0.00    +0.110 C 
ATOM     27  C   UNL     1       7.182  -0.106   0.339  0.00  0.00    +0.030 C 
BRANCH  25  28
ATOM     28  S   UNL     1       9.633  -2.033   2.517  0.00  0.00    +0.067 S 
ATOM     29  O   UNL     1      10.288  -0.771   2.518  0.00  0.00    -0.152 OA
ATOM     30  O   UNL     1       9.075  -2.603   3.693  0.00  0.00    -0.152 OA
BRANCH  28  31
ATOM     31  C   UNL     1      10.794  -3.202   1.892  0.00  0.00    +0.143 A 
ATOM     32  C   UNL     1      11.872  -2.993   1.097  0.00  0.00    +0.036 A 
ATOM     33  C   UNL     1      12.651  -4.074   0.728  0.00  0.00    +0.010 A 
ATOM     34  C   UNL     1      12.314  -5.309   1.171  0.00  0.00    +0.047 A 
ATOM     35  S   UNL     1      10.859  -4.967   2.148  0.00  0.00    -0.077 S 
ENDBRANCH  28  31
ENDBRANCH  25  28
ENDBRANCH   2  22
TORSDOF 5
