REMARK  Name = ZINC63161112
REMARK  8 active torsions:
REMARK  status: ('A' for Active; 'I' for Inactive)
REMARK    1  A    between atoms: C_4  and  C_7
REMARK    2  A    between atoms: C_7  and  O_8
REMARK    3  A    between atoms: O_8  and  C_9
REMARK    4  A    between atoms: N_11  and  C_12
REMARK    5  A    between atoms: C_12  and  C_14
REMARK    6  A    between atoms: C_12  and  C_24
REMARK    7  A    between atoms: C_14  and  C_15
REMARK    8  A    between atoms: C_30  and  N_33
REMARK                            x       y       z     vdW  Elec       q    Type
REMARK                         _______ _______ _______ _____ _____    ______ ____
ROOT
ATOM      1  C   UNL     1       7.050  -2.550   2.887  0.00  0.00    +0.166 C 
ENDROOT
BRANCH   1   2
ATOM      2  C   UNL     1       7.055  -3.245   4.224  0.00  0.00    +0.239 C 
ATOM      3  O   UNL     1       6.098  -3.145   4.963  0.00  0.00    -0.273 OA
ATOM      4  N   UNL     1       8.123  -3.977   4.599  0.00  0.00    -0.269 N 
ATOM      5  C   UNL     1       8.174  -4.531   5.880  0.00  0.00    +0.125 A 
ATOM      6  C   UNL     1       9.323  -5.193   6.296  0.00  0.00    +0.045 A 
ATOM      7  C   UNL     1       9.365  -5.739   7.566  0.00  0.00    +0.028 A 
ATOM      8  C   UNL     1       8.244  -5.601   8.384  0.00  0.00    +0.048 A 
ATOM      9  C   UNL     1       7.133  -4.927   7.901  0.00  0.00    +0.136 A 
ATOM     10  N   UNL     1       7.131  -4.415   6.685  0.00  0.00    -0.238 NA
ATOM     11  H   UNL     1       8.855  -4.118   3.979  0.00  0.00    +0.156 HD
BRANCH   8  12
ATOM     12  N   UNL     1       8.241  -6.138   9.677  0.00  0.00    -0.324 N 
ATOM     13  C   UNL     1       9.454  -6.743  10.249  0.00  0.00    +0.133 C 
ATOM     14  C   UNL     1       9.695  -6.128  11.632  0.00  0.00    +0.178 C 
ATOM     15  O   UNL     1       8.501  -6.239  12.411  0.00  0.00    -0.377 OA
ATOM     16  C   UNL     1       7.383  -5.528  11.875  0.00  0.00    +0.178 C 
ATOM     17  C   UNL     1       7.026  -6.108  10.506  0.00  0.00    +0.133 C 
ENDBRANCH   8  12
ENDBRANCH   1   2
BRANCH   1  20
ATOM     18  C   UNL     1       5.323  -1.561   1.480  0.00  0.00    +0.401 C 
ATOM     19  O   UNL     1       5.952  -1.922   0.505  0.00  0.00    -0.226 OA
ATOM     20  N   UNL     1       5.787  -1.827   2.717  0.00  0.00    -0.269 N 
ATOM     21  H   UNL     1       5.285  -1.538   3.495  0.00  0.00    +0.153 HD
BRANCH  18  22
ATOM     22  O   UNL     1       4.163  -0.896   1.324  0.00  0.00    -0.446 OA
BRANCH  22  23
ATOM     23  C   UNL     1       3.731  -0.650  -0.016  0.00  0.00    +0.269 C 
BRANCH  23  27
ATOM     24  C   UNL     1       0.026   1.474   0.048  0.00  0.00    +0.000 A 
ATOM     25  C   UNL     1       1.221   2.169   0.038  0.00  0.00    +0.000 A 
ATOM     26  C   UNL     1       2.420   1.482   0.018  0.00  0.00    +0.007 A 
ATOM     27  C   UNL     1       2.424   0.100   0.007  0.00  0.00    -0.010 A 
ATOM     28  C   UNL     1       1.229  -0.595   0.018  0.00  0.00    +0.007 A 
ATOM     29  C   UNL     1       0.030   0.092   0.037  0.00  0.00    +0.000 A 
ENDBRANCH  23  27
ENDBRANCH  22  23
ENDBRANCH  18  22
ENDBRANCH   1  20
BRANCH   1  30
ATOM     30  C   UNL     1       8.216  -1.563   2.820  0.00  0.00    +0.065 C 
BRANCH  30  31
ATOM     31  C   UNL     1       8.285  -0.959   1.441  0.00  0.00    -0.039 C 
ATOM     32  C   UNL     1       7.747   0.216   1.040  0.00  0.00    -0.001 A 
ATOM     33  C   UNL     1       6.966   1.242   1.740  0.00  0.00    +0.010 A 
ATOM     34  C   UNL     1       6.556   2.335   1.057  0.00  0.00    +0.001 A 
ATOM     35  C   UNL     1       6.857   2.511  -0.301  0.00  0.00    +0.002 A 
ATOM     36  C   UNL     1       7.571   1.612  -1.012  0.00  0.00    +0.026 A 
ATOM     37  C   UNL     1       8.053   0.426  -0.393  0.00  0.00    +0.043 A 
ATOM     38  N   UNL     1       8.753  -0.580  -0.860  0.00  0.00    -0.380 N 
ATOM     39  C   UNL     1       8.975  -1.540   0.227  0.00  0.00    +0.144 C 
ATOM     40  H   UNL     1       9.073  -0.672  -1.771  0.00  0.00    +0.160 HD
ENDBRANCH  30  31
ENDBRANCH   1  30
TORSDOF 8
