REMARK  Name = ZINC37267150
REMARK  6 active torsions:
REMARK  status: ('A' for Active; 'I' for Inactive)
REMARK    1  A    between atoms: C_1  and  C_2
REMARK    2  A    between atoms: C_2  and  C_4
REMARK    3  A    between atoms: C_2  and  N_15
REMARK    4  A    between atoms: C_13  and  O_14
REMARK    5  A    between atoms: N_15  and  C_16
REMARK    6  A    between atoms: N_19  and  C_22
REMARK                            x       y       z     vdW  Elec       q    Type
REMARK                         _______ _______ _______ _____ _____    ______ ____
ROOT
ATOM      1  C   UNL     1      -0.019   1.526   0.010  0.00  0.00    +0.029 C 
ATOM      2  C   UNL     1       0.002  -0.004   0.002  0.00  0.00    +0.085 C 
ENDROOT
BRANCH   2   3
ATOM      3  C   UNL     1       0.731  -0.503   1.223  0.00  0.00    +0.011 A 
ATOM      4  C   UNL     1       2.087  -0.807   1.136  0.00  0.00    +0.009 A 
ATOM      5  C   UNL     1       2.776  -1.260   2.220  0.00  0.00    +0.009 A 
ATOM      6  C   UNL     1       2.114  -1.426   3.449  0.00  0.00    -0.014 A 
ATOM      7  C   UNL     1       2.794  -1.891   4.587  0.00  0.00    +0.008 A 
ATOM      8  C   UNL     1       2.120  -2.039   5.760  0.00  0.00    +0.001 A 
ATOM      9  C   UNL     1       0.763  -1.736   5.851  0.00  0.00    +0.001 A 
ATOM     10  C   UNL     1       0.072  -1.283   4.769  0.00  0.00    +0.012 A 
ATOM     11  C   UNL     1       0.734  -1.118   3.542  0.00  0.00    +0.024 A 
ATOM     12  C   UNL     1       0.053  -0.646   2.401  0.00  0.00    +0.129 A 
BRANCH  12  13
ATOM     13  O   UNL     1      -1.268  -0.340   2.471  0.00  0.00    -0.506 OA
ATOM     14  H   UNL     1      -1.855  -1.083   2.273  0.00  0.00    +0.292 HD
ENDBRANCH  12  13
ENDBRANCH   2   3
BRANCH   2  15
ATOM     15  N   UNL     1       0.690  -0.478  -1.207  0.00  0.00    -0.307 NA
ATOM     16  H   UNL     1       1.485   0.104  -1.422  0.00  0.00    +0.123 HD
BRANCH  15  17
ATOM     17  C   UNL     1      -0.235  -0.547  -2.346  0.00  0.00    +0.051 C 
ATOM     18  C   UNL     1      -0.970  -1.891  -2.328  0.00  0.00    -0.000 C 
ATOM     19  C   UNL     1      -1.872  -1.989  -3.560  0.00  0.00    -0.078 C 
ATOM     20  N   UNL     1      -1.057  -1.890  -4.777  0.00  0.00    +0.378 N 
ATOM     21  C   UNL     1      -0.406  -0.576  -4.836  0.00  0.00    -0.078 C 
ATOM     22  C   UNL     1       0.552  -0.424  -3.653  0.00  0.00    -0.000 C 
ATOM     23  C   UNL     1      -1.917  -2.063  -5.956  0.00  0.00    -0.096 C 
ATOM     24  H   UNL     1      -0.353  -2.613  -4.768  0.00  0.00    -0.082 HD
ENDBRANCH  15  17
ENDBRANCH   2  15
TORSDOF 4
