REMARK  Name = ZINC35807683
REMARK  5 active torsions:
REMARK  status: ('A' for Active; 'I' for Inactive)
REMARK    1  A    between atoms: C_1  and  C_2
REMARK    2  A    between atoms: C_22  and  C_30
REMARK    3  A    between atoms: C_30  and  C_32
REMARK    4  A    between atoms: C_37  and  O_38
REMARK    5  A    between atoms: O_38  and  C_39
REMARK                            x       y       z     vdW  Elec       q    Type
REMARK                         _______ _______ _______ _____ _____    ______ ____
ROOT
ATOM      1  C   UNL     1      -0.022   1.545   0.085  0.00  0.00    +0.045 C 
ATOM      2  C   UNL     1      -0.008   0.039   0.058  0.00  0.00    -0.029 A 
ATOM      3  C   UNL     1      -0.018  -0.628  -1.150  0.00  0.00    +0.005 A 
ATOM      4  C   UNL     1      -0.006  -2.010  -1.185  0.00  0.00    +0.001 A 
ATOM      5  C   UNL     1       0.017  -2.729  -0.002  0.00  0.00    +0.004 A 
ATOM      6  C   UNL     1       0.026  -2.067   1.205  0.00  0.00    -0.026 A 
ATOM      7  C   UNL     1       0.020  -0.677   1.253  0.00  0.00    +0.039 A 
ATOM      8  N   UNL     1       0.040  -0.240   2.578  0.00  0.00    -0.286 N 
ATOM      9  C   UNL     1       0.068  -1.264   3.451  0.00  0.00    +0.212 C 
ATOM     10  O   UNL     1       0.090  -1.181   4.661  0.00  0.00    -0.277 OA
ATOM     11  C   UNL     1       0.052  -2.534   2.637  0.00  0.00    +0.060 C 
ATOM     12  C   UNL     1      -1.160  -3.397   2.959  0.00  0.00    +0.085 C 
ATOM     13  C   UNL     1      -1.808  -2.999   4.256  0.00  0.00    -0.011 A 
ATOM     14  C   UNL     1      -1.355  -2.911   5.553  0.00  0.00    +0.006 A 
ATOM     15  C   UNL     1      -2.212  -2.501   6.559  0.00  0.00    +0.000 A 
ATOM     16  C   UNL     1      -3.523  -2.180   6.258  0.00  0.00    +0.002 A 
ATOM     17  C   UNL     1      -3.981  -2.266   4.960  0.00  0.00    +0.023 A 
ATOM     18  C   UNL     1      -3.125  -2.678   3.941  0.00  0.00    +0.038 A 
ATOM     19  N   UNL     1      -3.347  -2.841   2.572  0.00  0.00    -0.285 N 
ATOM     20  C   UNL     1      -2.243  -3.260   1.924  0.00  0.00    +0.228 C 
ATOM     21  O   UNL     1      -2.142  -3.482   0.736  0.00  0.00    -0.275 OA
ATOM     22  C   UNL     1      -0.629  -4.837   3.021  0.00  0.00    +0.066 C 
ATOM     23  C   UNL     1       0.852  -4.658   3.398  0.00  0.00    -0.055 C 
ATOM     24  N   UNL     1       1.264  -3.325   2.904  0.00  0.00    +0.395 N 
ATOM     25  C   UNL     1       1.959  -3.557   1.611  0.00  0.00    -0.076 C 
ATOM     26  C   UNL     1       2.703  -4.898   1.819  0.00  0.00    -0.020 C 
ATOM     27  C   UNL     1       1.710  -5.722   2.700  0.00  0.00    -0.016 C 
ATOM     28  H   UNL     1       0.035   0.694   2.840  0.00  0.00    +0.155 HD
ATOM     29  H   UNL     1      -4.198  -2.672   2.138  0.00  0.00    +0.155 HD
ATOM     30  H   UNL     1       1.859  -2.860   3.572  0.00  0.00    -0.079 HD
ENDROOT
BRANCH  22  31
ATOM     31  C   UNL     1      -1.358  -5.626   4.079  0.00  0.00    +0.169 C 
ATOM     32  O   UNL     1      -0.893  -5.716   5.196  0.00  0.00    -0.292 OA
BRANCH  31  33
ATOM     33  C   UNL     1      -2.629  -6.285   3.758  0.00  0.00    +0.059 A 
ATOM     34  C   UNL     1      -3.110  -6.286   2.442  0.00  0.00    +0.015 A 
ATOM     35  C   UNL     1      -4.303  -6.907   2.149  0.00  0.00    +0.001 A 
ATOM     36  C   UNL     1      -5.033  -7.531   3.149  0.00  0.00    +0.004 A 
ATOM     37  C   UNL     1      -4.572  -7.537   4.451  0.00  0.00    +0.046 A 
ATOM     38  C   UNL     1      -3.369  -6.923   4.766  0.00  0.00    +0.131 A 
BRANCH  38  39
ATOM     39  O   UNL     1      -2.913  -6.934   6.043  0.00  0.00    -0.494 OA
ATOM     40  C   UNL     1      -3.720  -7.603   7.015  0.00  0.00    +0.277 C 
ENDBRANCH  38  39
ENDBRANCH  31  33
ENDBRANCH  22  31
TORSDOF 3
