REMARK  Name = ZINC40758680
REMARK  6 active torsions:
REMARK  status: ('A' for Active; 'I' for Inactive)
REMARK    1  A    between atoms: C_1  and  C_2
REMARK    2  A    between atoms: C_9  and  N_12
REMARK    3  A    between atoms: C_14  and  N_29
REMARK    4  A    between atoms: C_15  and  N_19
REMARK    5  A    between atoms: N_19  and  N_20
REMARK    6  A    between atoms: C_21  and  C_23
REMARK                            x       y       z     vdW  Elec       q    Type
REMARK                         _______ _______ _______ _____ _____    ______ ____
ROOT
ATOM      1  N   UNL     1       0.045  -1.962   3.622  0.00  0.00    -0.296 N 
ATOM      2  C   UNL     1      -0.045  -2.643   4.831  0.00  0.00    +0.149 A 
ATOM      3  C   UNL     1      -0.161  -1.941   6.032  0.00  0.00    +0.107 A 
ATOM      4  C   UNL     1      -0.248  -2.673   7.218  0.00  0.00    +0.161 A 
ATOM      5  N   UNL     1      -0.217  -4.003   7.158  0.00  0.00    -0.217 NA
ATOM      6  C   UNL     1      -0.106  -4.626   6.002  0.00  0.00    +0.225 A 
ATOM      7  N   UNL     1      -0.027  -3.973   4.861  0.00  0.00    -0.219 NA
ATOM      8  H   UNL     1       0.115  -0.995   3.614  0.00  0.00    +0.154 HD
ENDROOT
BRANCH   1  17
ATOM      9  C   UNL     1       2.394   0.967   0.312  0.00  0.00    +0.065 C 
ATOM     10  C   UNL     1       1.756  -0.395   0.222  0.00  0.00    +0.039 A 
ATOM     11  C   UNL     1       1.766  -1.071  -0.997  0.00  0.00    +0.023 A 
ATOM     12  C   UNL     1       1.191  -2.306  -1.096  0.00  0.00    +0.012 A 
ATOM     13  C   UNL     1       0.601  -2.859   0.057  0.00  0.00    +0.002 A 
ATOM     14  C   UNL     1      -0.007  -4.124   0.029  0.00  0.00    +0.010 A 
ATOM     15  C   UNL     1      -0.569  -4.633   1.160  0.00  0.00    +0.003 A 
ATOM     16  C   UNL     1      -0.552  -3.915   2.353  0.00  0.00    +0.025 A 
ATOM     17  C   UNL     1       0.035  -2.671   2.420  0.00  0.00    +0.059 A 
ATOM     18  C   UNL     1       0.627  -2.118   1.263  0.00  0.00    +0.092 A 
ATOM     19  N   UNL     1       1.210  -0.916   1.294  0.00  0.00    -0.250 NA
ENDBRANCH   1  17
BRANCH   3  20
ATOM     20  N   UNL     1      -0.190  -0.537   6.048  0.00  0.00    -0.353 N 
ATOM     21  H   UNL     1      -0.128  -0.042   5.216  0.00  0.00    +0.143 HD
ATOM     22  H   UNL     1      -0.271  -0.063   6.890  0.00  0.00    +0.143 HD
ENDBRANCH   3  20
BRANCH   4  23
ATOM     23  N   UNL     1      -0.365  -2.025   8.441  0.00  0.00    -0.247 N 
ATOM     24  H   UNL     1      -0.387  -1.055   8.476  0.00  0.00    +0.172 HD
BRANCH  23  25
ATOM     25  N   UNL     1      -0.451  -2.770   9.624  0.00  0.00    -0.230 N 
ATOM     26  C   UNL     1      -0.565  -2.141  10.810  0.00  0.00    +0.278 C 
ATOM     27  O   UNL     1      -0.592  -0.927  10.854  0.00  0.00    -0.267 OA
ATOM     28  H   UNL     1      -0.430  -3.739   9.589  0.00  0.00    +0.173 HD
BRANCH  26  29
ATOM     29  C   UNL     1      -0.656  -2.930  12.062  0.00  0.00    +0.127 A 
ATOM     30  C   UNL     1      -0.778  -2.274  13.284  0.00  0.00    +0.033 A 
ATOM     31  C   UNL     1      -0.863  -3.025  14.446  0.00  0.00    +0.004 A 
ATOM     32  C   UNL     1      -0.822  -4.407  14.344  0.00  0.00    +0.020 A 
ATOM     33  C   UNL     1      -0.699  -4.992  13.094  0.00  0.00    +0.111 A 
ATOM     34  N   UNL     1      -0.626  -4.255  12.007  0.00  0.00    -0.250 NA
ENDBRANCH  26  29
ENDBRANCH  23  25
ENDBRANCH   4  23
TORSDOF 5
