REMARK  Name = ZINC44164084
REMARK  7 active torsions:
REMARK  status: ('A' for Active; 'I' for Inactive)
REMARK    1  A    between atoms: C_1  and  C_2
REMARK    2  A    between atoms: C_4  and  C_23
REMARK    3  A    between atoms: C_7  and  C_11
REMARK    4  A    between atoms: N_13  and  C_14
REMARK    5  A    between atoms: C_14  and  C_15
REMARK    6  A    between atoms: C_15  and  C_16
REMARK    7  A    between atoms: C_19  and  O_22
REMARK                            x       y       z     vdW  Elec       q    Type
REMARK                         _______ _______ _______ _____ _____    ______ ____
ROOT
ATOM      1  C   UNL     1       0.540   1.456   0.419  0.00  0.00    +0.017 C 
ATOM      2  C   UNL     1       0.386  -0.060   0.288  0.00  0.00    +0.034 C 
ATOM      3  C   UNL     1      -1.100  -0.420   0.170  0.00  0.00    -0.027 C 
ATOM      4  N   UNL     1      -1.249  -1.867   0.001  0.00  0.00    +0.392 N 
ATOM      5  C   UNL     1      -1.009  -2.576   1.259  0.00  0.00    +0.027 C 
ATOM      6  C   UNL     1       0.492  -2.595   1.569  0.00  0.00    +0.063 C 
ATOM      7  S   UNL     1       1.056  -0.876   1.771  0.00  0.00    -0.160 S 
ATOM      8  H   UNL     1      -2.185  -2.068  -0.319  0.00  0.00    -0.084 HD
ATOM      9  H   UNL     1      -0.588  -2.189  -0.691  0.00  0.00    -0.084 HD
ENDROOT
BRANCH   3  10
ATOM     10  C   UNL     1      -1.694   0.286  -1.021  0.00  0.00    -0.060 A 
ATOM     11  C   UNL     1      -1.509  -0.227  -2.292  0.00  0.00    +0.002 A 
ATOM     12  C   UNL     1      -2.053   0.420  -3.385  0.00  0.00    +0.000 A 
ATOM     13  C   UNL     1      -2.783   1.581  -3.207  0.00  0.00    +0.000 A 
ATOM     14  C   UNL     1      -2.969   2.094  -1.937  0.00  0.00    +0.000 A 
ATOM     15  C   UNL     1      -2.428   1.443  -0.844  0.00  0.00    +0.002 A 
ENDBRANCH   3  10
BRANCH   5  16
ATOM     16  C   UNL     1      -1.740  -1.875   2.376  0.00  0.00    +0.200 C 
ATOM     17  O   UNL     1      -1.261  -1.846   3.489  0.00  0.00    -0.278 OA
ATOM     18  N   UNL     1      -2.926  -1.282   2.136  0.00  0.00    -0.316 N 
ATOM     19  H   UNL     1      -3.309  -1.305   1.245  0.00  0.00    +0.149 HD
BRANCH  18  20
ATOM     20  C   UNL     1      -3.637  -0.601   3.221  0.00  0.00    +0.109 C 
BRANCH  20  21
ATOM     21  C   UNL     1      -4.946  -0.017   2.686  0.00  0.00    +0.054 C 
BRANCH  21  22
ATOM     22  C   UNL     1      -5.677   0.684   3.803  0.00  0.00    -0.046 A 
ATOM     23  C   UNL     1      -6.573  -0.018   4.588  0.00  0.00    +0.007 A 
ATOM     24  C   UNL     1      -7.244   0.623   5.611  0.00  0.00    +0.045 A 
ATOM     25  C   UNL     1      -7.019   1.970   5.851  0.00  0.00    +0.117 A 
ATOM     26  C   UNL     1      -6.118   2.672   5.062  0.00  0.00    +0.045 A 
ATOM     27  C   UNL     1      -5.446   2.026   4.043  0.00  0.00    +0.007 A 
BRANCH  25  28
ATOM     28  O   UNL     1      -7.678   2.602   6.857  0.00  0.00    -0.507 OA
ATOM     29  H   UNL     1      -7.217   2.576   7.707  0.00  0.00    +0.292 HD
ENDBRANCH  25  28
ENDBRANCH  21  22
ENDBRANCH  20  21
ENDBRANCH  18  20
ENDBRANCH   5  16
TORSDOF 6
