REMARK  Name = ZINC04374137
REMARK  11 active torsions:
REMARK  status: ('A' for Active; 'I' for Inactive)
REMARK    1  A    between atoms: C_1  and  C_2
REMARK    2  A    between atoms: C_2  and  C_3
REMARK    3  A    between atoms: C_3  and  C_4
REMARK    4  A    between atoms: C_4  and  C_6
REMARK    5  A    between atoms: C_4  and  N_14
REMARK    6  A    between atoms: N_8  and  C_9
REMARK    7  A    between atoms: N_14  and  C_15
REMARK    8  A    between atoms: C_15  and  C_16
REMARK    9  A    between atoms: C_22  and  C_24
REMARK   10  A    between atoms: C_25  and  N_32
REMARK   11  A    between atoms: C_26  and  C_29
REMARK                            x       y       z     vdW  Elec       q    Type
REMARK                         _______ _______ _______ _____ _____    ______ ____
ROOT
ATOM      1  N   UNL     1      -0.758  -3.283   0.384  0.00  0.00    -0.283 N 
ATOM      2  C   UNL     1       0.464  -3.839   0.259  0.00  0.00    +0.257 C 
ATOM      3  O   UNL     1       1.072  -3.743  -0.790  0.00  0.00    -0.269 OA
ENDROOT
BRANCH   2   4
ATOM      4  C   UNL     1       1.059  -4.558   1.388  0.00  0.00    +0.115 A 
ATOM      5  C   UNL     1       2.334  -5.112   1.510  0.00  0.00    +0.076 A 
ATOM      6  C   UNL     1       2.556  -5.728   2.740  0.00  0.00    +0.155 A 
ATOM      7  N   UNL     1       1.597  -5.739   3.642  0.00  0.00    -0.203 NA
ATOM      8  S   UNL     1       0.351  -4.953   2.974  0.00  0.00    +0.019 S 
BRANCH   6   9
ATOM      9  C   UNL     1       3.855  -6.363   3.028  0.00  0.00    +0.262 C 
ATOM     10  O   UNL     1       4.770  -6.263   2.234  0.00  0.00    -0.269 OA
ATOM     11  N   UNL     1       4.027  -7.054   4.172  0.00  0.00    -0.324 N 
ATOM     12  H   UNL     1       3.297  -7.134   4.806  0.00  0.00    +0.145 HD
ATOM     13  H   UNL     1       4.882  -7.472   4.362  0.00  0.00    +0.145 HD
ENDBRANCH   6   9
BRANCH   5  14
ATOM     14  N   UNL     1       3.289  -5.054   0.503  0.00  0.00    -0.355 N 
ATOM     15  H   UNL     1       3.139  -4.495  -0.276  0.00  0.00    +0.142 HD
ATOM     16  H   UNL     1       4.105  -5.573   0.579  0.00  0.00    +0.142 HD
ENDBRANCH   5  14
ENDBRANCH   2   4
BRANCH   1  17
ATOM     17  C   UNL     1      -1.310  -2.478  -0.709  0.00  0.00    +0.162 C 
BRANCH  17  18
ATOM     18  C   UNL     1      -2.530  -3.162  -1.270  0.00  0.00    +0.234 C 
ATOM     19  O   UNL     1      -3.020  -4.104  -0.685  0.00  0.00    -0.274 OA
ATOM     20  N   UNL     1      -3.076  -2.727  -2.423  0.00  0.00    -0.311 N 
ATOM     21  H   UNL     1      -2.684  -1.974  -2.891  0.00  0.00    +0.149 HD
BRANCH  20  22
ATOM     22  C   UNL     1      -4.261  -3.393  -2.969  0.00  0.00    +0.073 C 
ATOM     23  C   UNL     1      -3.838  -4.573  -3.868  0.00  0.00    +0.022 C 
ATOM     24  C   UNL     1      -4.866  -4.555  -5.027  0.00  0.00    +0.002 C 
ATOM     25  C   UNL     1      -5.075  -3.040  -5.275  0.00  0.00    +0.002 C 
ATOM     26  C   UNL     1      -5.048  -2.418  -3.863  0.00  0.00    +0.022 C 
ENDBRANCH  20  22
ENDBRANCH  17  18
BRANCH  17  27
ATOM     27  C   UNL     1      -1.700  -1.097  -0.177  0.00  0.00    +0.032 C 
BRANCH  27  29
ATOM     28  C   UNL     1      -0.833   1.029   0.809  0.00  0.00    +0.004 C 
ATOM     29  C   UNL     1      -0.443  -0.352   0.278  0.00  0.00    -0.001 C 
ENDBRANCH  27  29
ENDBRANCH  17  27
ENDBRANCH   1  17
BRANCH   1  30
ATOM     30  C   UNL     1      -1.533  -3.483   1.610  0.00  0.00    +0.140 C 
BRANCH  30  31
ATOM     31  C   UNL     1      -1.180  -2.390   2.621  0.00  0.00    +0.136 C 
ATOM     32  C   UNL     1      -1.839  -2.691   3.990  0.00  0.00    +0.035 C 
ATOM     33  C   UNL     1      -0.891  -1.922   4.950  0.00  0.00    +0.031 C 
ATOM     34  C   UNL     1       0.479  -2.086   4.257  0.00  0.00    +0.160 C 
ATOM     35  O   UNL     1       0.234  -2.385   2.877  0.00  0.00    -0.375 OA
ENDBRANCH  30  31
ENDBRANCH   1  30
TORSDOF 10
