REMARK  Name = ZINC54691741
REMARK  6 active torsions:
REMARK  status: ('A' for Active; 'I' for Inactive)
REMARK    1  A    between atoms: C_1  and  C_2
REMARK    2  A    between atoms: C_2  and  N_3
REMARK    3  A    between atoms: N_3  and  C_4
REMARK    4  A    between atoms: C_9  and  S_15
REMARK    5  A    between atoms: S_15  and  C_16
REMARK    6  A    between atoms: C_21  and  C_24
REMARK                            x       y       z     vdW  Elec       q    Type
REMARK                         _______ _______ _______ _____ _____    ______ ____
ROOT
ATOM      1  C   UNL     1       0.468  -2.065   1.260  0.00  0.00    +0.049 C 
ATOM      2  C   UNL     1       1.319  -2.555   2.409  0.00  0.00    -0.031 A 
ATOM      3  C   UNL     1       2.641  -2.357   2.745  0.00  0.00    +0.005 A 
ATOM      4  C   UNL     1       3.160  -2.946   3.883  0.00  0.00    +0.015 A 
ATOM      5  C   UNL     1       2.345  -3.736   4.685  0.00  0.00    +0.010 A 
ATOM      6  C   UNL     1       1.015  -3.934   4.347  0.00  0.00    +0.038 A 
ATOM      7  C   UNL     1       0.491  -3.342   3.201  0.00  0.00    +0.036 A 
ATOM      8  N   UNL     1      -0.793  -3.389   2.656  0.00  0.00    -0.286 N 
ATOM      9  C   UNL     1      -0.893  -2.672   1.521  0.00  0.00    +0.208 C 
ATOM     10  O   UNL     1      -1.886  -2.537   0.837  0.00  0.00    -0.277 OA
ATOM     11  H   UNL     1      -1.529  -3.884   3.050  0.00  0.00    +0.155 HD
ENDROOT
BRANCH   1  12
ATOM     12  N   UNL     1       0.388  -0.598   1.268  0.00  0.00    +0.389 N 
ATOM     13  H   UNL     1       1.318  -0.210   1.230  0.00  0.00    -0.084 HD
ATOM     14  H   UNL     1      -0.070  -0.291   2.113  0.00  0.00    -0.084 HD
BRANCH  12  16
ATOM     15  C   UNL     1      -0.465   1.384   0.110  0.00  0.00    -0.017 C 
ATOM     16  C   UNL     1      -0.381  -0.143   0.102  0.00  0.00    -0.085 C 
ENDBRANCH  12  16
ENDBRANCH   1  12
BRANCH   5  17
ATOM     17  S   UNL     1       3.003  -4.488   6.136  0.00  0.00    -0.122 S 
BRANCH  17  18
ATOM     18  C   UNL     1       2.868  -3.194   7.401  0.00  0.00    +0.052 C 
ATOM     19  C   UNL     1       1.391  -2.925   7.699  0.00  0.00    +0.014 C 
ATOM     20  C   UNL     1       1.277  -1.834   8.766  0.00  0.00    +0.001 C 
ATOM     21  C   UNL     1       1.980  -2.295  10.044  0.00  0.00    +0.003 C 
ATOM     22  C   UNL     1       3.456  -2.565   9.746  0.00  0.00    -0.013 C 
ATOM     23  C   UNL     1       3.570  -3.656   8.680  0.00  0.00    +0.017 C 
ATOM     24  C   UNL     1       4.116  -1.282   9.236  0.00  0.00    +0.007 C 
ENDBRANCH  17  18
ENDBRANCH   5  17
TORSDOF 4
