REMARK  Name = ZINC63572441
REMARK  6 active torsions:
REMARK  status: ('A' for Active; 'I' for Inactive)
REMARK    1  A    between atoms: C_1  and  O_2
REMARK    2  A    between atoms: O_2  and  C_3
REMARK    3  A    between atoms: C_6  and  O_35
REMARK    4  A    between atoms: C_7  and  N_9
REMARK    5  A    between atoms: C_25  and  C_27
REMARK    6  A    between atoms: O_35  and  C_36
REMARK                            x       y       z     vdW  Elec       q    Type
REMARK                         _______ _______ _______ _____ _____    ______ ____
ROOT
ATOM      1  N   UNL     1       1.347  -4.219  -2.550  0.00  0.00    -0.266 N 
ATOM      2  C   UNL     1       0.908  -4.863  -1.450  0.00  0.00    +0.307 C 
ATOM      3  O   UNL     1       0.447  -4.232  -0.519  0.00  0.00    -0.252 OA
ATOM      4  N   UNL     1       0.982  -6.207  -1.383  0.00  0.00    -0.276 N 
ATOM      5  C   UNL     1       1.642  -6.952  -2.459  0.00  0.00    +0.114 C 
ATOM      6  C   UNL     1       0.654  -7.969  -3.061  0.00  0.00    +0.052 C 
ATOM      7  C   UNL     1      -0.024  -8.652  -1.899  0.00  0.00    -0.035 C 
ATOM      8  C   UNL     1      -0.186  -9.937  -1.610  0.00  0.00    +0.001 A 
ATOM      9  C   UNL     1       0.136 -11.159  -2.365  0.00  0.00    +0.030 A 
ATOM     10  C   UNL     1      -0.153 -12.338  -1.750  0.00  0.00    +0.042 A 
ATOM     11  C   UNL     1      -0.722 -12.420  -0.474  0.00  0.00    +0.022 A 
ATOM     12  C   UNL     1      -1.058 -11.348   0.287  0.00  0.00    +0.027 A 
ATOM     13  C   UNL     1      -0.810 -10.054  -0.257  0.00  0.00    +0.043 A 
ATOM     14  N   UNL     1      -1.050  -8.875   0.236  0.00  0.00    -0.375 N 
ATOM     15  C   UNL     1      -0.670  -7.873  -0.760  0.00  0.00    +0.131 C 
ATOM     16  C   UNL     1       0.403  -6.910  -0.227  0.00  0.00    +0.134 C 
ATOM     17 CL   UNL     1       0.203 -13.814  -2.590  0.00  0.00    -0.084 Cl
ATOM     18  H   UNL     1       1.652  -4.725  -3.319  0.00  0.00    +0.156 HD
ATOM     19  H   UNL     1      -1.419  -8.691   1.114  0.00  0.00    +0.160 HD
ENDROOT
BRANCH  16  20
ATOM     20  C   UNL     1       1.479  -7.686   0.489  0.00  0.00    -0.025 A 
ATOM     21  C   UNL     1       1.744  -7.431   1.822  0.00  0.00    +0.008 A 
ATOM     22  C   UNL     1       2.729  -8.142   2.479  0.00  0.00    +0.038 A 
ATOM     23  C   UNL     1       3.452  -9.110   1.803  0.00  0.00    +0.123 A 
ATOM     24  C   UNL     1       3.186  -9.364   0.468  0.00  0.00    +0.038 A 
ATOM     25  C   UNL     1       2.196  -8.656  -0.186  0.00  0.00    +0.008 A 
ATOM     26  F   UNL     1       4.417  -9.805   2.445  0.00  0.00    -0.205 F 
ENDBRANCH  16  20
BRANCH   1  31
ATOM     27  C   UNL     1       0.452  -0.711  -1.876  0.00  0.00    +0.122 A 
ATOM     28  C   UNL     1       1.392  -0.046  -2.650  0.00  0.00    +0.049 A 
ATOM     29  C   UNL     1       2.315  -0.762  -3.388  0.00  0.00    +0.051 A 
ATOM     30  C   UNL     1       2.303  -2.147  -3.358  0.00  0.00    +0.141 A 
ATOM     31  C   UNL     1       1.360  -2.817  -2.583  0.00  0.00    +0.080 A 
ATOM     32  C   UNL     1       0.439  -2.096  -1.838  0.00  0.00    +0.072 A 
BRANCH  27  34
ATOM     33  C   UNL     1      -0.385   1.422  -1.237  0.00  0.00    +0.277 C 
ATOM     34  O   UNL     1      -0.455  -0.003  -1.151  0.00  0.00    -0.495 OA
ENDBRANCH  27  34
BRANCH  30  35
ATOM     35  O   UNL     1       3.212  -2.852  -4.086  0.00  0.00    -0.493 OA
ATOM     36  C   UNL     1       4.148  -2.098  -4.858  0.00  0.00    +0.277 C 
ENDBRANCH  30  35
ENDBRANCH   1  31
TORSDOF 4
