REMARK  Name = ZINC63374928
REMARK  11 active torsions:
REMARK  status: ('A' for Active; 'I' for Inactive)
REMARK    1  A    between atoms: C_1  and  C_2
REMARK    2  A    between atoms: C_2  and  C_3
REMARK    3  A    between atoms: C_3  and  O_4
REMARK    4  A    between atoms: O_4  and  C_5
REMARK    5  A    between atoms: C_9  and  C_14
REMARK    6  A    between atoms: C_10  and  O_11
REMARK    7  A    between atoms: O_11  and  C_12
REMARK    8  A    between atoms: C_12  and  C_13
REMARK    9  A    between atoms: N_20  and  C_35
REMARK   10  A    between atoms: C_23  and  C_34
REMARK   11  A    between atoms: C_38  and  C_41
REMARK                            x       y       z     vdW  Elec       q    Type
REMARK                         _______ _______ _______ _____ _____    ______ ____
ROOT
ATOM      1  C   UNL     1       2.100  -6.029  -3.542  0.00  0.00    +0.069 C 
ATOM      2  C   UNL     1       3.559  -6.522  -3.621  0.00  0.00    +0.123 C 
ATOM      3  N   UNL     1       3.739  -7.194  -4.911  0.00  0.00    -0.268 N 
ATOM      4  C   UNL     1       4.628  -6.912  -5.872  0.00  0.00    +0.317 C 
ATOM      5  O   UNL     1       5.544  -6.123  -5.739  0.00  0.00    -0.252 OA
ATOM      6  N   UNL     1       4.392  -7.599  -6.998  0.00  0.00    -0.192 N 
ATOM      7  C   UNL     1       3.364  -8.460  -6.849  0.00  0.00    +0.253 C 
ATOM      8  O   UNL     1       2.893  -9.193  -7.692  0.00  0.00    -0.272 OA
ATOM      9  C   UNL     1       2.922  -8.321  -5.409  0.00  0.00    +0.137 C 
ATOM     10  C   UNL     1       1.455  -7.904  -5.330  0.00  0.00    +0.139 C 
ATOM     11  C   UNL     1       1.416  -6.473  -4.811  0.00  0.00    -0.027 C 
ATOM     12  C   UNL     1       0.705  -5.779  -5.696  0.00  0.00    -0.000 A 
ATOM     13  C   UNL     1       0.252  -4.379  -5.701  0.00  0.00    +0.010 A 
ATOM     14  C   UNL     1      -0.456  -3.983  -6.793  0.00  0.00    +0.001 A 
ATOM     15  C   UNL     1      -0.754  -4.829  -7.865  0.00  0.00    +0.002 A 
ATOM     16  C   UNL     1      -0.385  -6.133  -7.939  0.00  0.00    +0.026 A 
ATOM     17  C   UNL     1       0.358  -6.667  -6.846  0.00  0.00    +0.043 A 
ATOM     18  N   UNL     1       0.815  -7.883  -6.646  0.00  0.00    -0.375 N 
ATOM     19  C   UNL     1       3.196  -9.601  -4.617  0.00  0.00    +0.044 C 
ATOM     20  H   UNL     1       0.745  -8.635  -7.256  0.00  0.00    +0.160 HD
ENDROOT
BRANCH   6  21
ATOM     21  C   UNL     1       5.123  -7.443  -8.184  0.00  0.00    +0.045 A 
ATOM     22  C   UNL     1       4.887  -8.285  -9.263  0.00  0.00    +0.024 A 
ATOM     23  C   UNL     1       5.608  -8.129 -10.430  0.00  0.00    +0.005 A 
ATOM     24  C   UNL     1       6.565  -7.135 -10.525  0.00  0.00    -0.050 A 
ATOM     25  C   UNL     1       6.803  -6.295  -9.453  0.00  0.00    +0.005 A 
ATOM     26  C   UNL     1       6.080  -6.443  -8.285  0.00  0.00    +0.024 A 
ATOM     27  C   UNL     1       7.351  -6.968 -11.800  0.00  0.00    +0.044 C 
ENDBRANCH   6  21
BRANCH   1  32
ATOM     28  C   UNL     1       1.440  -2.528  -2.263  0.00  0.00    +0.162 A 
ATOM     29  C   UNL     1       2.017  -1.761  -3.261  0.00  0.00    +0.049 A 
ATOM     30  C   UNL     1       2.618  -2.375  -4.344  0.00  0.00    +0.004 A 
ATOM     31  C   UNL     1       2.644  -3.754  -4.434  0.00  0.00    +0.008 A 
ATOM     32  C   UNL     1       2.070  -4.526  -3.441  0.00  0.00    +0.007 A 
ATOM     33  C   UNL     1       1.471  -3.916  -2.350  0.00  0.00    +0.166 A 
BRANCH  28  34
ATOM     34  O   UNL     1       0.848  -1.925  -1.196  0.00  0.00    -0.488 OA
BRANCH  34  35
ATOM     35  C   UNL     1       0.853  -0.497  -1.173  0.00  0.00    +0.229 C 
BRANCH  35  37
ATOM     36  C   UNL     1       0.154   1.525   0.117  0.00  0.00    +0.007 C 
ATOM     37  C   UNL     1       0.148  -0.004   0.092  0.00  0.00    +0.038 C 
ENDBRANCH  35  37
ENDBRANCH  34  35
ENDBRANCH  28  34
BRANCH  33  38
ATOM     38  O   UNL     1       0.910  -4.674  -1.369  0.00  0.00    -0.488 OA
BRANCH  38  39
ATOM     39  C   UNL     1      -0.467  -5.021  -1.525  0.00  0.00    +0.226 C 
ATOM     40  C   UNL     1      -0.917  -5.868  -0.334  0.00  0.00    +0.048 C 
ENDBRANCH  38  39
ENDBRANCH  33  38
ENDBRANCH   1  32
TORSDOF 7
