REMARK  Name = ZINC09283894
REMARK  10 active torsions:
REMARK  status: ('A' for Active; 'I' for Inactive)
REMARK    1  A    between atoms: C_1  and  C_2
REMARK    2  A    between atoms: C_3  and  C_30
REMARK    3  A    between atoms: C_5  and  N_11
REMARK    4  A    between atoms: C_6  and  C_7
REMARK    5  A    between atoms: C_7  and  O_9
REMARK    6  A    between atoms: O_9  and  C_10
REMARK    7  A    between atoms: C_12  and  C_14
REMARK    8  A    between atoms: C_14  and  N_53
REMARK    9  A    between atoms: N_17  and  C_20
REMARK   10  A    between atoms: C_23  and  C_25
REMARK                            x       y       z     vdW  Elec       q    Type
REMARK                         _______ _______ _______ _____ _____    ______ ____
ROOT
ATOM      1  C   UNL     1       2.648   5.955   5.798  0.00  0.00    -0.059 C 
ATOM      2  C   UNL     1       2.630   7.170   6.729  0.00  0.00    +0.088 C 
ATOM      3  N   UNL     1       2.341   6.728   8.100  0.00  0.00    -0.319 N 
ATOM      4  C   UNL     1       1.042   6.043   8.167  0.00  0.00    +0.088 C 
ATOM      5  C   UNL     1       1.060   4.828   7.236  0.00  0.00    -0.059 C 
ATOM      6  N   UNL     1       1.330   5.289   5.857  0.00  0.00    +0.387 N 
ATOM      7  H   UNL     1       0.604   5.960   5.582  0.00  0.00    -0.081 HD
ENDROOT
BRANCH   3   8
ATOM      8  C   UNL     1       2.387   7.797   8.989  0.00  0.00    +0.117 A 
ATOM      9  C   UNL     1       3.298   7.781  10.041  0.00  0.00    +0.079 A 
ATOM     10  C   UNL     1       3.336   8.854  10.914  0.00  0.00    +0.037 A 
ATOM     11  C   UNL     1       2.452   9.905  10.710  0.00  0.00    +0.072 A 
ATOM     12  C   UNL     1       1.571   9.852   9.649  0.00  0.00    +0.096 A 
ATOM     13 CL   UNL     1       4.375   6.436  10.252  0.00  0.00    -0.080 Cl
ATOM     14  N   UNL     1       1.509   8.817   8.769  0.00  0.00    -0.348 N 
ATOM     15  H   UNL     1       0.843   8.805   7.987  0.00  0.00    +0.167 HD
BRANCH  11  16
ATOM     16  C   UNL     1       2.454  11.092  11.639  0.00  0.00    +0.419 C 
ATOM     17  F   UNL     1       1.481  12.009  11.227  0.00  0.00    -0.166 F 
ATOM     18  F   UNL     1       2.171  10.666  12.941  0.00  0.00    -0.166 F 
ATOM     19  F   UNL     1       3.712  11.704  11.611  0.00  0.00    -0.166 F 
ENDBRANCH  11  16
ENDBRANCH   3   8
BRANCH   6  20
ATOM     20  C   UNL     1       1.301   4.141   4.926  0.00  0.00    +0.019 C 
BRANCH  20  22
ATOM     21  N   UNL     1       1.325   3.798   2.477  0.00  0.00    -0.281 N 
ATOM     22  C   UNL     1       1.357   4.660   3.512  0.00  0.00    +0.201 C 
ATOM     23  O   UNL     1       1.429   5.853   3.307  0.00  0.00    -0.278 OA
ATOM     24  H   UNL     1       1.267   2.844   2.641  0.00  0.00    +0.155 HD
BRANCH  21  29
ATOM     25  C   UNL     1       1.395   3.638  -2.583  0.00  0.00    +0.045 C 
ATOM     26  C   UNL     1       1.416   4.313  -1.236  0.00  0.00    -0.025 A 
ATOM     27  C   UNL     1       1.491   5.651  -1.125  0.00  0.00    -0.008 A 
ATOM     28  S   UNL     1       1.484   5.917   0.636  0.00  0.00    -0.078 S 
ATOM     29  C   UNL     1       1.376   4.275   1.176  0.00  0.00    +0.086 A 
ATOM     30  C   UNL     1       1.356   3.551  -0.011  0.00  0.00    +0.091 A 
ATOM     31  C   UNL     1       1.565   6.679  -2.225  0.00  0.00    +0.052 C 
BRANCH  30  32
ATOM     32  C   UNL     1       1.272   2.090  -0.019  0.00  0.00    +0.342 C 
ATOM     33  O   UNL     1       2.288   1.422  -0.008  0.00  0.00    -0.245 OA
BRANCH  32  34
ATOM     34  O   UNL     1       0.067   1.483  -0.037  0.00  0.00    -0.464 OA
ATOM     35  C   UNL     1       0.060   0.031  -0.044  0.00  0.00    +0.280 C 
ENDBRANCH  32  34
ENDBRANCH  30  32
ENDBRANCH  21  29
ENDBRANCH  20  22
ENDBRANCH   6  20
TORSDOF 7
