REMARK  Name = ZINC37618808
REMARK  9 active torsions:
REMARK  status: ('A' for Active; 'I' for Inactive)
REMARK    1  A    between atoms: C_1  and  C_2
REMARK    2  A    between atoms: C_2  and  C_3
REMARK    3  A    between atoms: C_2  and  N_4
REMARK    4  A    between atoms: N_4  and  C_5
REMARK    5  A    between atoms: C_5  and  C_6
REMARK    6  A    between atoms: C_6  and  C_7
REMARK    7  A    between atoms: N_9  and  C_10
REMARK    8  A    between atoms: C_13  and  S_17
REMARK    9  A    between atoms: S_17  and  N_20
REMARK                            x       y       z     vdW  Elec       q    Type
REMARK                         _______ _______ _______ _____ _____    ______ ____
ROOT
ATOM      1  C   UNL     1       6.410   0.004  -3.385  0.00  0.00    +0.048 A 
ATOM      2  C   UNL     1       7.102   0.151  -2.191  0.00  0.00    +0.026 A 
ATOM      3  C   UNL     1       8.401   0.621  -2.200  0.00  0.00    +0.030 A 
ATOM      4  C   UNL     1       9.012   0.945  -3.397  0.00  0.00    +0.106 A 
ATOM      5  C   UNL     1       8.326   0.801  -4.589  0.00  0.00    +0.045 A 
ATOM      6  C   UNL     1       7.028   0.325  -4.587  0.00  0.00    +0.041 A 
ATOM      7 BR   UNL     1       6.093   0.120  -6.218  0.00  0.00    -0.048 Br
ENDROOT
BRANCH   1  10
ATOM      8  C   UNL     1       4.265  -0.150  -2.366  0.00  0.00    +0.215 C 
ATOM      9  O   UNL     1       4.682   0.483  -1.420  0.00  0.00    -0.276 OA
ATOM     10  N   UNL     1       5.094  -0.472  -3.379  0.00  0.00    -0.285 N 
ATOM     11  H   UNL     1       4.778  -1.034  -4.104  0.00  0.00    +0.155 HD
BRANCH   8  12
ATOM     12  C   UNL     1       2.821  -0.578  -2.409  0.00  0.00    +0.077 C 
BRANCH  12  13
ATOM     13  C   UNL     1       2.106  -0.089  -1.148  0.00  0.00    -0.073 C 
BRANCH  13  14
ATOM     14  N   UNL     1       0.698  -0.505  -1.190  0.00  0.00    +0.381 N 
ATOM     15  H   UNL     1       0.647  -1.512  -1.236  0.00  0.00    -0.086 HD
ATOM     16  H   UNL     1       0.254  -0.108  -2.004  0.00  0.00    -0.086 HD
BRANCH  14  18
ATOM     17  C   UNL     1      -0.019   1.494   0.029  0.00  0.00    -0.014 C 
ATOM     18  C   UNL     1       0.012  -0.035   0.021  0.00  0.00    -0.078 C 
ATOM     19  C   UNL     1      -1.420  -0.575   0.038  0.00  0.00    -0.014 C 
ENDBRANCH  14  18
ENDBRANCH  13  14
ENDBRANCH  12  13
ENDBRANCH   8  12
ENDBRANCH   1  10
BRANCH   4  20
ATOM     20  S   UNL     1      10.669   1.545  -3.404  0.00  0.00    +0.056 S 
ATOM     21  O   UNL     1      10.825   2.293  -4.602  0.00  0.00    -0.153 OA
ATOM     22  O   UNL     1      10.903   2.106  -2.120  0.00  0.00    -0.153 OA
BRANCH  20  23
ATOM     23  N   UNL     1      11.665   0.229  -3.534  0.00  0.00    -0.204 NA
ATOM     24  H   UNL     1      11.287  -0.662  -3.589  0.00  0.00    +0.144 HD
ATOM     25  H   UNL     1      12.628   0.349  -3.555  0.00  0.00    +0.144 HD
ENDBRANCH  20  23
ENDBRANCH   4  20
TORSDOF 7
