REMARK  Name = ZINC38549325
REMARK  10 active torsions:
REMARK  status: ('A' for Active; 'I' for Inactive)
REMARK    1  A    between atoms: C_6  and  C_7
REMARK    2  A    between atoms: C_11  and  C_13
REMARK    3  A    between atoms: C_16  and  O_20
REMARK    4  A    between atoms: C_18  and  O_19
REMARK    5  A    between atoms: O_20  and  C_21
REMARK    6  A    between atoms: C_23  and  O_36
REMARK    7  A    between atoms: C_25  and  O_35
REMARK    8  A    between atoms: C_27  and  O_34
REMARK    9  A    between atoms: C_29  and  C_32
REMARK   10  A    between atoms: C_32  and  O_33
REMARK                            x       y       z     vdW  Elec       q    Type
REMARK                         _______ _______ _______ _____ _____    ______ ____
ROOT
ATOM      1  C   UNL     1      -2.904   0.551   1.343  0.00  0.00    +0.022 A 
ATOM      2  C   UNL     1      -4.128   0.883   0.793  0.00  0.00    +0.013 A 
ATOM      3  C   UNL     1      -4.671   2.134   1.014  0.00  0.00    +0.046 A 
ATOM      4  C   UNL     1      -3.987   3.061   1.788  0.00  0.00    +0.127 A 
ATOM      5  C   UNL     1      -2.759   2.731   2.340  0.00  0.00    +0.091 A 
ATOM      6  C   UNL     1      -2.220   1.473   2.122  0.00  0.00    +0.126 A 
ENDROOT
BRANCH   1  11
ATOM      7  C   UNL     1      -1.260  -0.759   0.009  0.00  0.00    +0.008 C 
ATOM      8  C   UNL     1      -1.753  -1.575  -0.954  0.00  0.00    +0.139 C 
ATOM      9  N   UNL     1      -2.933  -2.084  -0.579  0.00  0.00    -0.185 NA
ATOM     10  N   UNL     1      -3.326  -1.723   0.531  0.00  0.00    -0.297 N 
ATOM     11  C   UNL     1      -2.315  -0.815   1.100  0.00  0.00    +0.164 C 
ATOM     12  H   UNL     1      -4.155  -1.992   0.958  0.00  0.00    +0.183 HD
BRANCH   7  18
ATOM     13  C   UNL     1      -0.017   1.395   0.010  0.00  0.00    +0.012 A 
ATOM     14  C   UNL     1       1.167   2.098   0.002  0.00  0.00    +0.050 A 
ATOM     15  C   UNL     1       2.383   1.425  -0.013  0.00  0.00    +0.162 A 
ATOM     16  C   UNL     1       2.410   0.032  -0.018  0.00  0.00    +0.163 A 
ATOM     17  C   UNL     1       1.226  -0.682  -0.012  0.00  0.00    +0.057 A 
ATOM     18  C   UNL     1       0.002  -0.004   0.002  0.00  0.00    -0.014 A 
ATOM     19  O   UNL     1       3.593  -0.641  -0.025  0.00  0.00    -0.485 OA
ATOM     20  C   UNL     1       4.755   0.103  -0.406  0.00  0.00    +0.270 C 
ATOM     21  C   UNL     1       4.734   1.443   0.342  0.00  0.00    +0.270 C 
ATOM     22  O   UNL     1       3.539   2.142  -0.024  0.00  0.00    -0.485 OA
ENDBRANCH   7  18
ENDBRANCH   1  11
BRANCH   6  23
ATOM     23  O   UNL     1      -1.019   1.144   2.667  0.00  0.00    -0.506 OA
ATOM     24  H   UNL     1      -0.261   1.353   2.104  0.00  0.00    +0.292 HD
ENDBRANCH   6  23
BRANCH   4  25
ATOM     25  O   UNL     1      -4.521   4.292   2.005  0.00  0.00    -0.461 OA
BRANCH  25  26
ATOM     26  C   UNL     1      -5.789   4.564   1.405  0.00  0.00    +0.339 C 
ATOM     27  C   UNL     1      -6.284   5.940   1.857  0.00  0.00    +0.214 C 
ATOM     28  C   UNL     1      -5.302   7.011   1.373  0.00  0.00    +0.180 C 
ATOM     29  C   UNL     1      -5.166   6.914  -0.149  0.00  0.00    +0.177 C 
ATOM     30  C   UNL     1      -4.715   5.500  -0.524  0.00  0.00    +0.179 C 
ATOM     31  O   UNL     1      -5.656   4.551  -0.018  0.00  0.00    -0.331 OA
BRANCH  29  32
ATOM     32  O   UNL     1      -6.428   7.191  -0.759  0.00  0.00    -0.386 OA
ATOM     33  H   UNL     1      -6.777   8.071  -0.560  0.00  0.00    +0.210 HD
ENDBRANCH  29  32
BRANCH  28  34
ATOM     34  O   UNL     1      -5.792   8.306   1.730  0.00  0.00    -0.386 OA
ATOM     35  H   UNL     1      -5.907   8.434   2.681  0.00  0.00    +0.210 HD
ENDBRANCH  28  34
BRANCH  27  36
ATOM     36  O   UNL     1      -7.576   6.190   1.302  0.00  0.00    -0.383 OA
ATOM     37  H   UNL     1      -8.248   5.545   1.563  0.00  0.00    +0.210 HD
ENDBRANCH  27  36
BRANCH  30  38
ATOM     38  C   UNL     1      -4.635   5.377  -2.047  0.00  0.00    +0.190 C 
BRANCH  38  39
ATOM     39  O   UNL     1      -4.103   4.097  -2.395  0.00  0.00    -0.392 OA
ATOM     40  H   UNL     1      -4.024   3.949  -3.347  0.00  0.00    +0.210 HD
ENDBRANCH  38  39
ENDBRANCH  30  38
ENDBRANCH  25  26
ENDBRANCH   4  25
TORSDOF 10
