REMARK  Name = ZINC39875337
REMARK  6 active torsions:
REMARK  status: ('A' for Active; 'I' for Inactive)
REMARK    1  A    between atoms: C_1  and  C_2
REMARK    2  A    between atoms: C_2  and  O_3
REMARK    3  A    between atoms: O_3  and  C_4
REMARK    4  A    between atoms: C_6  and  C_11
REMARK    5  A    between atoms: C_9  and  O_10
REMARK    6  A    between atoms: N_26  and  C_27
REMARK                            x       y       z     vdW  Elec       q    Type
REMARK                         _______ _______ _______ _____ _____    ______ ____
ROOT
ATOM      1  C   UNL     1      -0.229  -4.969   0.477  0.00  0.00    +0.150 C 
ATOM      2  C   UNL     1       0.856  -5.514   1.347  0.00  0.00    +0.072 A 
ATOM      3  C   UNL     1       1.813  -4.843   2.232  0.00  0.00    +0.199 A 
ATOM      4  O   UNL     1       1.740  -3.662   2.522  0.00  0.00    -0.287 OA
ATOM      5  C   UNL     1       2.881  -5.741   2.742  0.00  0.00    +0.065 A 
ATOM      6  C   UNL     1       3.975  -5.217   3.429  0.00  0.00    +0.030 A 
ATOM      7  C   UNL     1       4.959  -6.064   3.891  0.00  0.00    +0.019 A 
ATOM      8  C   UNL     1       4.859  -7.431   3.670  0.00  0.00    +0.019 A 
ATOM      9  C   UNL     1       3.783  -7.960   2.994  0.00  0.00    +0.048 A 
ATOM     10  C   UNL     1       2.773  -7.123   2.519  0.00  0.00    +0.140 A 
ATOM     11  O   UNL     1       1.721  -7.670   1.867  0.00  0.00    -0.450 OA
ATOM     12  C   UNL     1       0.859  -6.873   1.206  0.00  0.00    +0.199 A 
ATOM     13  C   UNL     1      -0.200  -7.241   0.252  0.00  0.00    +0.287 C 
ATOM     14  O   UNL     1      -0.459  -8.376  -0.097  0.00  0.00    -0.266 OA
ATOM     15  N   UNL     1      -0.844  -6.134  -0.179  0.00  0.00    -0.253 N 
ATOM     16 BR   UNL     1       6.447  -5.364   4.825  0.00  0.00    -0.050 Br
ENDROOT
BRANCH  15  17
ATOM     17  C   UNL     1      -1.906  -6.101  -1.088  0.00  0.00    +0.038 A 
ATOM     18  C   UNL     1      -2.473  -4.885  -1.449  0.00  0.00    +0.026 A 
ATOM     19  C   UNL     1      -3.522  -4.854  -2.347  0.00  0.00    +0.040 A 
ATOM     20  C   UNL     1      -4.008  -6.033  -2.887  0.00  0.00    +0.124 A 
ATOM     21  C   UNL     1      -3.444  -7.246  -2.528  0.00  0.00    +0.040 A 
ATOM     22  C   UNL     1      -2.391  -7.281  -1.635  0.00  0.00    +0.026 A 
ATOM     23  F   UNL     1      -5.034  -6.001  -3.765  0.00  0.00    -0.205 F 
ENDBRANCH  15  17
BRANCH   1  26
ATOM     24  C   UNL     1       0.777  -1.811  -1.336  0.00  0.00    +0.162 A 
ATOM     25  C   UNL     1       0.243  -2.669  -0.388  0.00  0.00    +0.055 A 
ATOM     26  C   UNL     1       0.352  -4.037  -0.555  0.00  0.00    -0.018 A 
ATOM     27  C   UNL     1       0.992  -4.552  -1.667  0.00  0.00    +0.009 A 
ATOM     28  C   UNL     1       1.526  -3.702  -2.616  0.00  0.00    +0.049 A 
ATOM     29  C   UNL     1       1.416  -2.330  -2.458  0.00  0.00    +0.158 A 
BRANCH  29  30
ATOM     30  O   UNL     1       1.936  -1.492  -3.394  0.00  0.00    -0.503 OA
ATOM     31  H   UNL     1       2.856  -1.241  -3.231  0.00  0.00    +0.292 HD
ENDBRANCH  29  30
BRANCH  24  32
ATOM     32  O   UNL     1       0.671  -0.465  -1.174  0.00  0.00    -0.489 OA
BRANCH  32  34
ATOM     33  C   UNL     1      -0.019   1.526   0.010  0.00  0.00    +0.048 C 
ATOM     34  C   UNL     1       0.002  -0.004   0.002  0.00  0.00    +0.226 C 
ENDBRANCH  32  34
ENDBRANCH  24  32
ENDBRANCH   1  26
TORSDOF 5
