REMARK  Name = ZINC41691573
REMARK  7 active torsions:
REMARK  status: ('A' for Active; 'I' for Inactive)
REMARK    1  A    between atoms: C_1  and  N_2
REMARK    2  A    between atoms: C_8  and  N_11
REMARK    3  A    between atoms: C_12  and  C_14
REMARK    4  A    between atoms: C_14  and  C_24
REMARK    5  A    between atoms: C_15  and  C_16
REMARK    6  A    between atoms: C_19  and  O_23
REMARK    7  A    between atoms: C_20  and  O_22
REMARK                            x       y       z     vdW  Elec       q    Type
REMARK                         _______ _______ _______ _____ _____    ______ ____
ROOT
ATOM      1  N   UNL     1       1.664  -2.866   2.975  0.00  0.00    -0.281 N 
ATOM      2  C   UNL     1       1.975  -3.835   3.858  0.00  0.00    +0.259 C 
ATOM      3  O   UNL     1       1.185  -4.734   4.078  0.00  0.00    -0.269 OA
ATOM      4  H   UNL     1       2.323  -2.194   2.740  0.00  0.00    +0.155 HD
ENDROOT
BRANCH   1  12
ATOM      5  C   UNL     1       0.834  -0.197  -1.777  0.00  0.00    -0.095 C 
ATOM      6  N   UNL     1       0.480  -1.435  -1.071  0.00  0.00    +0.383 N 
ATOM      7  C   UNL     1      -0.959  -1.441  -0.721  0.00  0.00    -0.043 C 
ATOM      8  C   UNL     1      -1.056  -2.174   0.598  0.00  0.00    -0.061 A 
ATOM      9  C   UNL     1      -2.126  -2.758   1.250  0.00  0.00    +0.002 A 
ATOM     10  C   UNL     1      -1.942  -3.378   2.472  0.00  0.00    +0.002 A 
ATOM     11  C   UNL     1      -0.686  -3.415   3.047  0.00  0.00    +0.023 A 
ATOM     12  C   UNL     1       0.392  -2.830   2.395  0.00  0.00    +0.035 A 
ATOM     13  C   UNL     1       0.204  -2.208   1.169  0.00  0.00    -0.041 A 
ATOM     14  C   UNL     1       1.164  -1.499   0.241  0.00  0.00    -0.041 C 
ATOM     15  H   UNL     1       0.713  -2.242  -1.631  0.00  0.00    -0.081 HD
ENDBRANCH   1  12
BRANCH   2  16
ATOM     16  C   UNL     1       3.269  -3.805   4.558  0.00  0.00    +0.114 C 
ATOM     17  C   UNL     1       3.587  -4.796   5.461  0.00  0.00    +0.032 C 
BRANCH  17  18
ATOM     18  C   UNL     1       4.792  -4.677   6.284  0.00  0.00    -0.020 A 
ATOM     19  C   UNL     1       5.440  -5.829   6.753  0.00  0.00    +0.012 A 
ATOM     20  C   UNL     1       6.573  -5.713   7.526  0.00  0.00    +0.050 A 
ATOM     21  C   UNL     1       7.078  -4.458   7.843  0.00  0.00    +0.158 A 
ATOM     22  C   UNL     1       6.439  -3.307   7.380  0.00  0.00    +0.159 A 
ATOM     23  C   UNL     1       5.306  -3.411   6.600  0.00  0.00    +0.057 A 
BRANCH  22  24
ATOM     24  O   UNL     1       6.938  -2.081   7.694  0.00  0.00    -0.503 OA
ATOM     25  H   UNL     1       7.581  -1.743   7.057  0.00  0.00    +0.292 HD
ENDBRANCH  22  24
BRANCH  21  26
ATOM     26  O   UNL     1       8.195  -4.352   8.606  0.00  0.00    -0.503 OA
ATOM     27  H   UNL     1       9.018  -4.337   8.099  0.00  0.00    +0.292 HD
ENDBRANCH  21  26
ENDBRANCH  17  18
BRANCH  16  28
ATOM     28  C   UNL     1       4.198  -2.747   4.299  0.00  0.00    +0.104 C 
ATOM     29  N   UNL     1       4.935  -1.907   4.094  0.00  0.00    -0.191 NA
ENDBRANCH  16  28
ENDBRANCH   2  16
TORSDOF 6
