REMARK  Name = ZINC20466018
REMARK  12 active torsions:
REMARK  status: ('A' for Active; 'I' for Inactive)
REMARK    1  A    between atoms: C_1  and  C_2
REMARK    2  A    between atoms: N_5  and  C_8
REMARK    3  A    between atoms: C_10  and  C_20
REMARK    4  A    between atoms: C_13  and  C_18
REMARK    5  A    between atoms: C_15  and  O_17
REMARK    6  A    between atoms: C_18  and  O_19
REMARK    7  A    between atoms: C_20  and  N_21
REMARK    8  A    between atoms: N_24  and  C_25
REMARK    9  A    between atoms: C_27  and  O_33
REMARK   10  A    between atoms: C_29  and  O_31
REMARK   11  A    between atoms: O_31  and  C_32
REMARK   12  A    between atoms: O_33  and  C_34
REMARK                            x       y       z     vdW  Elec       q    Type
REMARK                         _______ _______ _______ _____ _____    ______ ____
ROOT
ATOM      1  C   UNL     1       2.050   0.771  -0.737  0.00  0.00    -0.006 C 
ATOM      2  C   UNL     1       1.569   1.939   0.146  0.00  0.00    +0.125 C 
ATOM      3  O   UNL     1       0.156   1.766   0.350  0.00  0.00    -0.369 OA
ATOM      4  C   UNL     1      -0.117   0.354   0.228  0.00  0.00    +0.171 C 
ATOM      5  C   UNL     1       0.781  -0.088  -0.956  0.00  0.00    +0.134 C 
ENDROOT
BRANCH   1  10
ATOM      6  C   UNL     1       3.861   1.832  -6.053  0.00  0.00    +0.007 C 
ATOM      7  C   UNL     1       3.304   1.140  -4.808  0.00  0.00    -0.018 C 
ATOM      8  C   UNL     1       4.350   1.176  -3.691  0.00  0.00    -0.016 C 
ATOM      9  C   UNL     1       3.765   0.536  -2.430  0.00  0.00    -0.078 C 
ATOM     10  N   UNL     1       2.561   1.271  -2.021  0.00  0.00    +0.385 N 
ATOM     11  C   UNL     1       1.524   1.210  -3.059  0.00  0.00    -0.078 C 
ATOM     12  C   UNL     1       2.042   1.870  -4.339  0.00  0.00    -0.016 C 
ATOM     13  H   UNL     1       2.841   2.326  -1.888  0.00  0.00    -0.081 HD
ENDBRANCH   1  10
BRANCH   5  14
ATOM     14  O   UNL     1       0.165   0.222  -2.207  0.00  0.00    -0.391 OA
ATOM     15  H   UNL     1      -0.751  -0.304  -2.514  0.00  0.00    +0.210 HD
ENDBRANCH   5  14
BRANCH   4  16
ATOM     16  C   UNL     1      -1.593   0.117  -0.100  0.00  0.00    +0.190 C 
BRANCH  16  17
ATOM     17  O   UNL     1      -2.398   0.520   1.010  0.00  0.00    -0.392 OA
ATOM     18  H   UNL     1      -3.492   0.424   0.960  0.00  0.00    +0.210 HD
ENDBRANCH  16  17
ENDBRANCH   4  16
BRANCH   2  19
ATOM     19  C   UNL     1       1.833   3.270  -0.561  0.00  0.00    +0.135 C 
BRANCH  19  20
ATOM     20  N   UNL     1       1.443   4.375   0.317  0.00  0.00    -0.297 N 
ATOM     21  C   UNL     1       1.587   5.649  -0.099  0.00  0.00    +0.304 C 
ATOM     22  O   UNL     1       2.041   5.881  -1.203  0.00  0.00    -0.253 OA
ATOM     23  N   UNL     1       1.228   6.667   0.709  0.00  0.00    -0.269 N 
ATOM     24  H   UNL     1       1.032   4.166   1.315  0.00  0.00    +0.150 HD
ATOM     25  H   UNL     1       0.890   6.461   1.735  0.00  0.00    +0.156 HD
BRANCH  23  26
ATOM     26  C   UNL     1       1.286   7.985   0.242  0.00  0.00    +0.042 A 
ATOM     27  C   UNL     1       2.297   8.369  -0.629  0.00  0.00    +0.069 A 
ATOM     28  C   UNL     1       2.350   9.674  -1.095  0.00  0.00    +0.125 A 
ATOM     29  C   UNL     1       1.402  10.597  -0.683  0.00  0.00    +0.091 A 
ATOM     30  C   UNL     1       0.395  10.215   0.192  0.00  0.00    +0.125 A 
ATOM     31  C   UNL     1       0.337   8.909   0.654  0.00  0.00    +0.069 A 
BRANCH  30  32
ATOM     32  O   UNL     1      -0.534  11.121   0.595  0.00  0.00    -0.495 OA
ATOM     33  C   UNL     1      -0.414  12.448   0.079  0.00  0.00    +0.277 C 
ENDBRANCH  30  32
BRANCH  28  34
ATOM     34  O   UNL     1       3.336  10.049  -1.952  0.00  0.00    -0.495 OA
ATOM     35  C   UNL     1       3.334  11.410  -2.387  0.00  0.00    +0.277 C 
ENDBRANCH  28  34
ENDBRANCH  23  26
ENDBRANCH  19  20
ENDBRANCH   2  19
TORSDOF 9
