REMARK  Name = ZINC02245078
REMARK  6 active torsions:
REMARK  status: ('A' for Active; 'I' for Inactive)
REMARK    1  A    between atoms: C_1  and  O_2
REMARK    2  A    between atoms: O_2  and  C_3
REMARK    3  A    between atoms: C_6  and  C_9
REMARK    4  A    between atoms: C_20  and  C_22
REMARK    5  A    between atoms: C_33  and  S_35
REMARK    6  A    between atoms: S_35  and  C_36
REMARK                            x       y       z     vdW  Elec       q    Type
REMARK                         _______ _______ _______ _____ _____    ______ ____
ROOT
ATOM      1  C   UNL     1      -4.984  -2.384   0.109  0.00  0.00    +0.159 C 
ATOM      2  C   UNL     1      -5.353  -2.789  -1.300  0.00  0.00    +0.025 C 
ATOM      3  C   UNL     1      -5.517  -4.103  -1.561  0.00  0.00    +0.058 C 
ATOM      4  C   UNL     1      -5.888  -4.484  -2.948  0.00  0.00    +0.040 A 
ATOM      5  C   UNL     1      -5.768  -5.792  -3.396  0.00  0.00    +0.013 A 
ATOM      6  C   UNL     1      -6.123  -6.103  -4.695  0.00  0.00    +0.001 A 
ATOM      7  C   UNL     1      -6.595  -5.117  -5.544  0.00  0.00    +0.004 A 
ATOM      8  C   UNL     1      -6.718  -3.812  -5.104  0.00  0.00    +0.046 A 
ATOM      9  C   UNL     1      -6.367  -3.486  -3.805  0.00  0.00    +0.131 A 
ATOM     10  O   UNL     1      -6.484  -2.215  -3.345  0.00  0.00    -0.479 OA
ATOM     11  C   UNL     1      -5.524  -1.767  -2.386  0.00  0.00    +0.234 C 
ATOM     12  N   UNL     1      -5.351  -5.043  -0.599  0.00  0.00    -0.326 N 
ATOM     13  C   UNL     1      -5.031  -4.778   0.650  0.00  0.00    +0.216 C 
ATOM     14  N   UNL     1      -4.832  -3.482   1.073  0.00  0.00    -0.209 N 
ATOM     15  N   UNL     1      -4.510  -3.546   2.430  0.00  0.00    -0.239 N 
ATOM     16  C   UNL     1      -4.523  -4.874   2.767  0.00  0.00    +0.174 C 
ATOM     17  N   UNL     1      -4.833  -5.581   1.711  0.00  0.00    -0.192 NA
ATOM     18  H   UNL     1      -5.478  -5.972  -0.847  0.00  0.00    +0.169 HD
ATOM     19  H   UNL     1      -4.316  -2.798   3.018  0.00  0.00    +0.172 HD
ENDROOT
BRANCH  11  20
ATOM     20  C   UNL     1      -4.201  -1.542  -3.072  0.00  0.00    -0.003 A 
ATOM     21  C   UNL     1      -3.671  -2.523  -3.889  0.00  0.00    +0.009 A 
ATOM     22  C   UNL     1      -2.458  -2.317  -4.518  0.00  0.00    +0.020 A 
ATOM     23  C   UNL     1      -1.774  -1.129  -4.330  0.00  0.00    +0.041 A 
ATOM     24  C   UNL     1      -2.305  -0.148  -3.512  0.00  0.00    +0.020 A 
ATOM     25  C   UNL     1      -3.521  -0.353  -2.888  0.00  0.00    +0.009 A 
ATOM     26 CL   UNL     1      -0.250  -0.870  -5.120  0.00  0.00    -0.084 Cl
ENDBRANCH  11  20
BRANCH   1  30
ATOM     27  C   UNL     1      -1.298  -0.227  -0.044  0.00  0.00    +0.120 A 
ATOM     28  C   UNL     1      -2.498   0.456   0.091  0.00  0.00    +0.046 A 
ATOM     29  C   UNL     1      -3.688  -0.243   0.141  0.00  0.00    +0.009 A 
ATOM     30  C   UNL     1      -3.684  -1.623   0.055  0.00  0.00    -0.021 A 
ATOM     31  C   UNL     1      -2.490  -2.307  -0.080  0.00  0.00    +0.009 A 
ATOM     32  C   UNL     1      -1.298  -1.611  -0.136  0.00  0.00    +0.046 A 
BRANCH  27  34
ATOM     33  C   UNL     1      -0.203   1.882   0.007  0.00  0.00    +0.277 C 
ATOM     34  O   UNL     1      -0.126   0.459  -0.093  0.00  0.00    -0.495 OA
ENDBRANCH  27  34
ENDBRANCH   1  30
BRANCH  16  35
ATOM     35  S   UNL     1      -4.182  -5.525   4.369  0.00  0.00    -0.092 S 
ATOM     36  C   UNL     1      -4.360  -7.318   4.160  0.00  0.00    +0.093 C 
ENDBRANCH  16  35
TORSDOF 4
