REMARK  Name = ZINC53113551
REMARK  7 active torsions:
REMARK  status: ('A' for Active; 'I' for Inactive)
REMARK    1  A    between atoms: C_1  and  C_2
REMARK    2  A    between atoms: C_7  and  C_9
REMARK    3  A    between atoms: C_7  and  N_11
REMARK    4  A    between atoms: C_9  and  O_10
REMARK    5  A    between atoms: N_11  and  S_12
REMARK    6  A    between atoms: S_12  and  C_15
REMARK    7  A    between atoms: C_16  and  N_22
REMARK                            x       y       z     vdW  Elec       q    Type
REMARK                         _______ _______ _______ _____ _____    ______ ____
ROOT
ATOM      1  S   UNL     1      -1.144  -3.866   1.769  0.00  0.00    +0.063 S 
ATOM      2  O   UNL     1      -2.537  -3.987   1.515  0.00  0.00    -0.153 OA
ATOM      3  O   UNL     1      -0.182  -4.717   1.161  0.00  0.00    -0.153 OA
ENDROOT
BRANCH   1   4
ATOM      4  C   UNL     1      -0.933  -4.032   3.510  0.00  0.00    +0.161 A 
ATOM      5  C   UNL     1      -1.724  -3.292   4.380  0.00  0.00    +0.054 A 
ATOM      6  C   UNL     1      -1.556  -3.426   5.752  0.00  0.00    +0.025 A 
ATOM      7  C   UNL     1      -0.602  -4.293   6.249  0.00  0.00    +0.005 A 
ATOM      8  C   UNL     1       0.185  -5.028   5.383  0.00  0.00    +0.040 A 
ATOM      9  C   UNL     1       0.016  -4.902   4.013  0.00  0.00    +0.151 A 
ATOM     10  F   UNL     1       0.783  -5.626   3.169  0.00  0.00    -0.203 F 
BRANCH   5  11
ATOM     11  N   UNL     1      -2.688  -2.415   3.876  0.00  0.00    -0.356 N 
ATOM     12  H   UNL     1      -2.853  -2.373   2.921  0.00  0.00    +0.142 HD
ATOM     13  H   UNL     1      -3.192  -1.849   4.480  0.00  0.00    +0.142 HD
ENDBRANCH   5  11
ENDBRANCH   1   4
BRANCH   1  14
ATOM     14  N   UNL     1      -0.723  -2.315   1.370  0.00  0.00    -0.182 NA
ATOM     15  H   UNL     1      -1.403  -1.625   1.325  0.00  0.00    +0.149 HD
BRANCH  14  21
ATOM     16  C   UNL     1       0.042   1.245  -0.912  0.00  0.00    +0.007 C 
ATOM     17  C   UNL     1      -0.067  -0.234  -0.534  0.00  0.00    -0.012 C 
ATOM     18  C   UNL     1       0.432  -1.095  -1.696  0.00  0.00    +0.003 C 
ATOM     19  C   UNL     1       0.323  -2.574  -1.319  0.00  0.00    +0.002 C 
ATOM     20  C   UNL     1       1.175  -2.847  -0.078  0.00  0.00    +0.026 C 
ATOM     21  C   UNL     1       0.675  -1.986   1.084  0.00  0.00    +0.063 C 
ATOM     22  C   UNL     1       0.785  -0.508   0.707  0.00  0.00    +0.029 C 
BRANCH  21  23
ATOM     23  C   UNL     1       1.527  -2.260   2.325  0.00  0.00    +0.179 C 
BRANCH  23  24
ATOM     24  O   UNL     1       1.560  -3.666   2.579  0.00  0.00    -0.393 OA
ATOM     25  H   UNL     1       2.048  -3.910   3.378  0.00  0.00    +0.209 HD
ENDBRANCH  23  24
ENDBRANCH  21  23
ENDBRANCH  14  21
ENDBRANCH   1  14
TORSDOF 6
