REMARK  Name = ZINC20575647
REMARK  4 active torsions:
REMARK  status: ('A' for Active; 'I' for Inactive)
REMARK    1  A    between atoms: C_4  and  C_7
REMARK    2  A    between atoms: C_7  and  N_8
REMARK    3  A    between atoms: C_17  and  N_18
REMARK    4  A    between atoms: N_18  and  C_19
REMARK                            x       y       z     vdW  Elec       q    Type
REMARK                         _______ _______ _______ _____ _____    ______ ____
ROOT
ATOM      1  N   UNL     1      -1.004   2.107   0.084  0.00  0.00    -0.197 N 
ATOM      2  C   UNL     1       0.298   1.579   0.243  0.00  0.00    +0.070 A 
ATOM      3  C   UNL     1       1.449   2.344   0.361  0.00  0.00    +0.033 A 
ATOM      4  C   UNL     1       2.651   1.734   0.501  0.00  0.00    +0.048 A 
ATOM      5  S   UNL     1       2.252   0.046   0.479  0.00  0.00    -0.091 S 
ATOM      6  C   UNL     1       0.497   0.196   0.285  0.00  0.00    +0.083 A 
ATOM      7  C   UNL     1      -0.502  -0.848   0.194  0.00  0.00    +0.222 C 
ATOM      8  O   UNL     1      -0.233  -2.000   0.493  0.00  0.00    -0.285 OA
ATOM      9  C   UNL     1      -1.813  -0.495  -0.255  0.00  0.00    +0.170 C 
ATOM     10  C   UNL     1      -2.801  -1.412  -0.298  0.00  0.00    +0.105 C 
ATOM     11  S   UNL     1      -2.102   1.177  -0.749  0.00  0.00    +0.080 S 
ATOM     12  O   UNL     1      -1.751   1.264  -2.124  0.00  0.00    -0.150 OA
ATOM     13  O   UNL     1      -3.392   1.530  -0.267  0.00  0.00    -0.150 OA
ENDROOT
BRANCH  10  14
ATOM     14  N   UNL     1      -4.050  -1.053  -0.732  0.00  0.00    -0.319 N 
ATOM     15  H   UNL     1      -4.247  -0.017  -1.044  0.00  0.00    +0.152 HD
BRANCH  14  16
ATOM     16  C   UNL     1      -5.075  -2.004  -0.777  0.00  0.00    +0.033 A 
ATOM     17  C   UNL     1      -4.814  -3.311  -0.380  0.00  0.00    +0.024 A 
ATOM     18  C   UNL     1      -5.833  -4.245  -0.428  0.00  0.00    +0.019 A 
ATOM     19  C   UNL     1      -7.081  -3.867  -0.866  0.00  0.00    +0.037 A 
ATOM     20  C   UNL     1      -7.377  -2.564  -1.272  0.00  0.00    +0.051 A 
ATOM     21  C   UNL     1      -6.332  -1.629  -1.210  0.00  0.00    +0.047 A 
ATOM     22  N   UNL     1      -8.692  -2.314  -1.695  0.00  0.00    -0.279 N 
ATOM     23  C   UNL     1      -9.424  -1.117  -2.194  0.00  0.00    +0.134 C 
ATOM     24  C   UNL     1     -10.847  -1.635  -2.456  0.00  0.00    +0.134 C 
ATOM     25  N   UNL     1     -10.783  -3.054  -2.086  0.00  0.00    -0.366 N 
ATOM     26  C   UNL     1      -9.587  -3.352  -1.683  0.00  0.00    +0.140 C 
ATOM     27  S   UNL     1      -8.621  -4.725  -1.076  0.00  0.00    -0.054 S 
ATOM     28  H   UNL     1     -11.565  -3.827  -2.108  0.00  0.00    +0.161 HD
ENDBRANCH  14  16
ENDBRANCH  10  14
BRANCH   1  29
ATOM     29  C   UNL     1      -1.371   3.415   0.631  0.00  0.00    +0.166 C 
BRANCH  29  33
ATOM     30  C   UNL     1      -2.431   2.991   4.747  0.00  0.00    +0.000 A 
ATOM     31  C   UNL     1      -1.104   3.135   4.387  0.00  0.00    +0.000 A 
ATOM     32  C   UNL     1      -0.761   3.272   3.055  0.00  0.00    +0.005 A 
ATOM     33  C   UNL     1      -1.745   3.266   2.083  0.00  0.00    -0.028 A 
ATOM     34  C   UNL     1      -3.072   3.127   2.444  0.00  0.00    +0.005 A 
ATOM     35  C   UNL     1      -3.415   2.986   3.776  0.00  0.00    +0.000 A 
ENDBRANCH  29  33
ENDBRANCH   1  29
TORSDOF 4
