REMARK  Name = ZINC63667427
REMARK  9 active torsions:
REMARK  status: ('A' for Active; 'I' for Inactive)
REMARK    1  A    between atoms: C_7  and  C_10
REMARK    2  A    between atoms: C_10  and  C_11
REMARK    3  A    between atoms: C_11  and  N_12
REMARK    4  A    between atoms: C_13  and  C_15
REMARK    5  A    between atoms: C_15  and  C_16
REMARK    6  A    between atoms: C_16  and  C_17
REMARK    7  A    between atoms: C_17  and  C_18
REMARK    8  A    between atoms: C_18  and  C_19
REMARK    9  A    between atoms: C_19  and  N_20
REMARK                            x       y       z     vdW  Elec       q    Type
REMARK                         _______ _______ _______ _____ _____    ______ ____
ROOT
ATOM      1  C   UNL     1      -2.941  -8.220  -4.058  0.00  0.00    +0.002 C 
ENDROOT
BRANCH   1   2
ATOM      2  C   UNL     1      -1.986  -7.025  -4.059  0.00  0.00    +0.009 C 
BRANCH   2   3
ATOM      3  C   UNL     1      -1.752  -6.557  -2.622  0.00  0.00    +0.096 C 
BRANCH   3   5
ATOM      4  N   UNL     1      -0.458  -4.798  -1.460  0.00  0.00    -0.315 N 
ATOM      5  C   UNL     1      -0.811  -5.380  -2.623  0.00  0.00    +0.213 C 
ATOM      6  O   UNL     1      -0.371  -4.957  -3.671  0.00  0.00    -0.276 OA
ATOM      7  H   UNL     1      -0.810  -5.136  -0.622  0.00  0.00    +0.149 HD
BRANCH   4   8
ATOM      8  C   UNL     1       0.457  -3.653  -1.462  0.00  0.00    +0.108 C 
BRANCH   8   9
ATOM      9  C   UNL     1       0.691  -3.186  -0.024  0.00  0.00    +0.052 C 
BRANCH   9  16
ATOM     10  C   UNL     1      -0.016   1.348   0.009  0.00  0.00    +0.001 A 
ATOM     11  C   UNL     1       1.166   2.101   0.002  0.00  0.00    +0.002 A 
ATOM     12  C   UNL     1       2.391   1.535  -0.013  0.00  0.00    +0.026 A 
ATOM     13  C   UNL     1       2.529   0.120  -0.022  0.00  0.00    +0.043 A 
ATOM     14  N   UNL     1       3.587  -0.654  -0.037  0.00  0.00    -0.380 N 
ATOM     15  C   UNL     1       3.143  -2.053  -0.041  0.00  0.00    +0.144 C 
ATOM     16  C   UNL     1       1.631  -2.008  -0.025  0.00  0.00    -0.040 C 
ATOM     17  C   UNL     1       1.295  -0.698  -0.014  0.00  0.00    -0.001 A 
ATOM     18  C   UNL     1       0.002  -0.004   0.002  0.00  0.00    +0.010 A 
ATOM     19  H   UNL     1       4.509  -0.353  -0.045  0.00  0.00    +0.160 HD
ENDBRANCH   9  16
ENDBRANCH   8   9
ENDBRANCH   4   8
ENDBRANCH   3   5
ENDBRANCH   2   3
ENDBRANCH   1   2
BRANCH   1  20
ATOM     20  C   UNL     1      -3.175  -8.688  -5.496  0.00  0.00    +0.022 C 
BRANCH  20  21
ATOM     21  C   UNL     1      -4.130  -9.883  -5.494  0.00  0.00    +0.127 C 
BRANCH  21  22
ATOM     22  N   UNL     1      -4.355 -10.331  -6.871  0.00  0.00    -0.288 N 
ATOM     23  C   UNL     1      -5.369  -9.797  -7.584  0.00  0.00    +0.262 A 
ATOM     24  O   UNL     1      -6.095  -8.951  -7.097  0.00  0.00    -0.267 OA
ATOM     25  C   UNL     1      -5.574 -10.263  -8.964  0.00  0.00    +0.067 A 
ATOM     26  C   UNL     1      -6.602  -9.759  -9.762  0.00  0.00    +0.065 A 
ATOM     27  C   UNL     1      -6.756 -10.226 -11.052  0.00  0.00    +0.167 A 
ATOM     28  C   UNL     1      -5.888 -11.200 -11.556  0.00  0.00    +0.168 A 
ATOM     29  C   UNL     1      -4.866 -11.704 -10.768  0.00  0.00    +0.076 A 
ATOM     30  C   UNL     1      -4.702 -11.243  -9.473  0.00  0.00    +0.057 A 
ATOM     31  N   UNL     1      -3.690 -11.725  -8.653  0.00  0.00    -0.334 N 
ATOM     32  H   UNL     1      -3.080 -12.401  -8.989  0.00  0.00    +0.168 HD
ATOM     33  C   UNL     1      -3.544 -11.261  -7.400  0.00  0.00    +0.161 A 
ATOM     34  S   UNL     1      -2.274 -11.886  -6.437  0.00  0.00    -0.013 S 
ATOM     35  O   UNL     1      -6.255 -11.484 -12.839  0.00  0.00    -0.453 OA
ATOM     36  C   UNL     1      -7.597 -10.983 -12.977  0.00  0.00    +0.466 C 
ATOM     37  O   UNL     1      -7.662  -9.907 -12.023  0.00  0.00    -0.453 OA
ENDBRANCH  21  22
ENDBRANCH  20  21
ENDBRANCH   1  20
TORSDOF 9
