REMARK  Name = ZINC52860092
REMARK  6 active torsions:
REMARK  status: ('A' for Active; 'I' for Inactive)
REMARK    1  A    between atoms: C_1  and  C_2
REMARK    2  A    between atoms: C_7  and  C_8
REMARK    3  A    between atoms: C_8  and  N_9
REMARK    4  A    between atoms: N_9  and  C_10
REMARK    5  A    between atoms: N_9  and  C_11
REMARK    6  A    between atoms: C_16  and  C_17
REMARK                            x       y       z     vdW  Elec       q    Type
REMARK                         _______ _______ _______ _____ _____    ______ ____
ROOT
ATOM      1  C   UNL     1      -1.992   1.246   2.595  0.00  0.00    +0.040 A 
ATOM      2  C   UNL     1      -2.636   1.272   1.364  0.00  0.00    +0.025 A 
ATOM      3  C   UNL     1      -3.349   2.389   0.981  0.00  0.00    +0.022 A 
ATOM      4  C   UNL     1      -3.430   3.492   1.817  0.00  0.00    +0.042 A 
ATOM      5  C   UNL     1      -2.797   3.484   3.042  0.00  0.00    +0.033 A 
ATOM      6  C   UNL     1      -2.076   2.358   3.446  0.00  0.00    +0.034 A 
ATOM      7 CL   UNL     1      -4.331   4.890   1.319  0.00  0.00    -0.084 Cl
ENDROOT
BRANCH   6   8
ATOM      8  C   UNL     1      -1.402   2.341   4.759  0.00  0.00    +0.096 C 
ATOM      9  N   UNL     1      -0.091   2.109   4.832  0.00  0.00    -0.387 N 
ATOM     10  N   UNL     1      -2.103   2.557   5.872  0.00  0.00    -0.345 N 
ATOM     11  H   UNL     1       0.434   2.033   4.020  0.00  0.00    +0.157 HD
ATOM     12  H   UNL     1      -3.057   2.725   5.819  0.00  0.00    +0.144 HD
ATOM     13  H   UNL     1      -1.660   2.545   6.735  0.00  0.00    +0.144 HD
ATOM     14  H   UNL     1       0.338   2.015   5.697  0.00  0.00    +0.157 HD
ENDBRANCH   6   8
BRANCH   1  15
ATOM     15  N   UNL     1      -1.273   0.122   2.984  0.00  0.00    -0.328 N 
ATOM     16  C   UNL     1      -1.902  -0.892   3.834  0.00  0.00    +0.129 C 
BRANCH  15  17
ATOM     17  C   UNL     1       0.114  -0.049   2.544  0.00  0.00    +0.140 C 
BRANCH  17  24
ATOM     18  C   UNL     1       2.606  -0.475   1.146  0.00  0.00    +0.044 C 
ATOM     19  C   UNL     1       1.338  -1.112   0.637  0.00  0.00    -0.046 A 
ATOM     20  C   UNL     1       1.369  -1.905  -0.495  0.00  0.00    +0.003 A 
ATOM     21  C   UNL     1       0.206  -2.489  -0.961  0.00  0.00    +0.000 A 
ATOM     22  C   UNL     1      -0.988  -2.280  -0.295  0.00  0.00    +0.000 A 
ATOM     23  C   UNL     1      -1.018  -1.488   0.837  0.00  0.00    +0.005 A 
ATOM     24  C   UNL     1       0.146  -0.908   1.306  0.00  0.00    -0.027 A 
ENDBRANCH  17  24
ENDBRANCH  15  17
ENDBRANCH   1  15
TORSDOF 4
