REMARK  Name = ZINC46289881
REMARK  10 active torsions:
REMARK  status: ('A' for Active; 'I' for Inactive)
REMARK    1  A    between atoms: C_1  and  C_2
REMARK    2  A    between atoms: C_2  and  C_4
REMARK    3  A    between atoms: C_2  and  O_21
REMARK    4  A    between atoms: N_6  and  N_7
REMARK    5  A    between atoms: N_10  and  C_11
REMARK    6  A    between atoms: C_11  and  C_12
REMARK    7  A    between atoms: C_17  and  N_18
REMARK    8  A    between atoms: N_18  and  C_19
REMARK    9  A    between atoms: N_18  and  C_20
REMARK   10  A    between atoms: O_21  and  C_22
REMARK                            x       y       z     vdW  Elec       q    Type
REMARK                         _______ _______ _______ _____ _____    ______ ____
ROOT
ATOM      1  N   UNL     1       3.712  -0.892   3.334  0.00  0.00    -0.218 N 
ATOM      2  C   UNL     1       5.009  -0.552   3.465  0.00  0.00    +0.316 C 
ATOM      3  O   UNL     1       5.564  -0.674   4.540  0.00  0.00    -0.251 OA
ATOM      4  N   UNL     1       5.692  -0.078   2.405  0.00  0.00    -0.294 N 
ATOM      5  H   UNL     1       3.220  -1.234   4.097  0.00  0.00    +0.174 HD
ATOM      6  H   UNL     1       5.250   0.020   1.547  0.00  0.00    +0.151 HD
ENDROOT
BRANCH   1   9
ATOM      7  C   UNL     1       1.775  -1.091   1.963  0.00  0.00    +0.270 C 
ATOM      8  O   UNL     1       1.161  -1.518   2.917  0.00  0.00    -0.270 OA
ATOM      9  N   UNL     1       3.073  -0.751   2.095  0.00  0.00    -0.230 N 
ATOM     10  H   UNL     1       3.564  -0.410   1.331  0.00  0.00    +0.173 HD
BRANCH   7  12
ATOM     11  C   UNL     1       1.022   0.542   0.256  0.00  0.00    +0.062 C 
ATOM     12  C   UNL     1       1.088  -0.940   0.630  0.00  0.00    +0.257 C 
BRANCH  12  13
ATOM     13  O   UNL     1      -0.236  -1.470   0.715  0.00  0.00    -0.480 OA
BRANCH  13  14
ATOM     14  C   UNL     1      -0.820  -1.861  -0.450  0.00  0.00    +0.122 A 
ATOM     15  C   UNL     1      -0.153  -1.685  -1.653  0.00  0.00    +0.048 A 
ATOM     16  C   UNL     1      -0.747  -2.083  -2.835  0.00  0.00    +0.042 A 
ATOM     17  C   UNL     1      -2.008  -2.656  -2.819  0.00  0.00    +0.124 A 
ATOM     18  C   UNL     1      -2.674  -2.831  -1.618  0.00  0.00    +0.042 A 
ATOM     19  C   UNL     1      -2.080  -2.441  -0.434  0.00  0.00    +0.048 A 
ATOM     20  F   UNL     1      -2.588  -3.044  -3.976  0.00  0.00    -0.205 F 
ENDBRANCH  13  14
ENDBRANCH  12  13
ENDBRANCH   7  12
ENDBRANCH   1   9
BRANCH   4  21
ATOM     21  C   UNL     1       7.103   0.292   2.548  0.00  0.00    +0.144 C 
BRANCH  21  22
ATOM     22  C   UNL     1       7.628   0.789   1.226  0.00  0.00    +0.008 A 
ATOM     23  C   UNL     1       8.383  -0.039   0.415  0.00  0.00    +0.010 A 
ATOM     24  C   UNL     1       8.847   0.462  -0.795  0.00  0.00    +0.018 A 
ATOM     25  C   UNL     1       8.543   1.761  -1.150  0.00  0.00    +0.084 A 
ATOM     26  N   UNL     1       7.822   2.529  -0.356  0.00  0.00    -0.349 N 
ATOM     27  C   UNL     1       7.356   2.086   0.802  0.00  0.00    +0.103 A 
ATOM     28  H   UNL     1       7.623   3.438  -0.629  0.00  0.00    +0.167 HD
BRANCH  27  29
ATOM     29  N   UNL     1       6.594   2.927   1.605  0.00  0.00    -0.323 N 
ATOM     30  C   UNL     1       7.230   3.677   2.692  0.00  0.00    +0.130 C 
ATOM     31  C   UNL     1       5.155   3.064   1.364  0.00  0.00    +0.130 C 
ENDBRANCH  27  29
ENDBRANCH  21  22
ENDBRANCH   4  21
TORSDOF 7
