REMARK  Name = ZINC63490881
REMARK  8 active torsions:
REMARK  status: ('A' for Active; 'I' for Inactive)
REMARK    1  A    between atoms: C_1  and  O_2
REMARK    2  A    between atoms: O_2  and  C_3
REMARK    3  A    between atoms: N_13  and  C_18
REMARK    4  A    between atoms: C_18  and  C_19
REMARK    5  A    between atoms: C_19  and  C_20
REMARK    6  A    between atoms: C_20  and  C_21
REMARK    7  A    between atoms: C_21  and  C_22
REMARK    8  A    between atoms: C_27  and  N_30
REMARK                            x       y       z     vdW  Elec       q    Type
REMARK                         _______ _______ _______ _____ _____    ______ ____
ROOT
ATOM      1  C   UNL     1       2.742  -7.655   4.383  0.00  0.00    +0.116 C 
ENDROOT
BRANCH   1  12
ATOM      2  C   UNL     1       0.625  -0.617   1.040  0.00  0.00    +0.121 A 
ATOM      3  C   UNL     1       1.201   0.142   2.049  0.00  0.00    +0.048 A 
ATOM      4  C   UNL     1       1.837  -0.468   3.111  0.00  0.00    +0.032 A 
ATOM      5  C   UNL     1       1.909  -1.866   3.182  0.00  0.00    +0.074 A 
ATOM      6  C   UNL     1       1.319  -2.634   2.148  0.00  0.00    +0.029 A 
ATOM      7  C   UNL     1       0.680  -2.013   1.094  0.00  0.00    +0.057 A 
ATOM      8  C   UNL     1       1.568  -4.041   2.521  0.00  0.00    +0.095 C 
ATOM      9  N   UNL     1       1.302  -5.217   2.025  0.00  0.00    -0.190 NA
ATOM     10  C   UNL     1       1.689  -6.344   2.640  0.00  0.00    +0.164 C 
ATOM     11  S   UNL     1       1.292  -7.840   1.909  0.00  0.00    -0.016 S 
ATOM     12  N   UNL     1       2.369  -6.366   3.796  0.00  0.00    -0.247 N 
ATOM     13  C   UNL     1       2.716  -5.223   4.431  0.00  0.00    +0.272 C 
ATOM     14  O   UNL     1       3.332  -5.244   5.479  0.00  0.00    -0.268 OA
ATOM     15  C   UNL     1       2.317  -3.950   3.801  0.00  0.00    +0.150 C 
ATOM     16  N   UNL     1       2.463  -2.688   4.095  0.00  0.00    -0.240 NA
BRANCH   2  18
ATOM     17  C   UNL     1      -0.017   1.425   0.010  0.00  0.00    +0.277 C 
ATOM     18  O   UNL     1       0.002  -0.004   0.002  0.00  0.00    -0.495 OA
ENDBRANCH   2  18
ENDBRANCH   1  12
BRANCH   1  19
ATOM     19  C   UNL     1       4.116  -8.076   3.857  0.00  0.00    +0.020 C 
BRANCH  19  20
ATOM     20  C   UNL     1       4.506  -9.422   4.470  0.00  0.00    +0.011 C 
BRANCH  20  21
ATOM     21  C   UNL     1       5.880  -9.843   3.944  0.00  0.00    +0.096 C 
BRANCH  21  22
ATOM     22  C   UNL     1       6.265 -11.169   4.548  0.00  0.00    +0.216 C 
ATOM     23  O   UNL     1       5.514 -11.722   5.324  0.00  0.00    -0.276 OA
ATOM     24  N   UNL     1       7.443 -11.739   4.227  0.00  0.00    -0.302 N 
ATOM     25  C   UNL     1       8.365 -11.078   3.295  0.00  0.00    +0.106 C 
ATOM     26  C   UNL     1       9.739 -10.958   3.961  0.00  0.00    +0.004 C 
ATOM     27  C   UNL     1      10.199 -12.343   4.424  0.00  0.00    -0.066 C 
ATOM     28  C   UNL     1       9.209 -12.893   5.453  0.00  0.00    +0.004 C 
ATOM     29  C   UNL     1       7.832 -13.031   4.808  0.00  0.00    +0.106 C 
BRANCH  27  30
ATOM     30  N   UNL     1      11.531 -12.237   5.035  0.00  0.00    +0.382 N 
ATOM     31  C   UNL     1      12.478 -11.702   4.049  0.00  0.00    -0.078 C 
ATOM     32  C   UNL     1      13.849 -11.514   4.703  0.00  0.00    -0.019 C 
ATOM     33  C   UNL     1      14.353 -12.866   5.217  0.00  0.00    -0.004 C 
ATOM     34  C   UNL     1      13.322 -13.449   6.187  0.00  0.00    -0.019 C 
ATOM     35  C   UNL     1      11.971 -13.565   5.478  0.00  0.00    -0.078 C 
ATOM     36  H   UNL     1      11.488 -11.616   5.828  0.00  0.00    -0.081 HD
ENDBRANCH  27  30
ENDBRANCH  21  22
ENDBRANCH  20  21
ENDBRANCH  19  20
ENDBRANCH   1  19
TORSDOF 7
