REMARK  Name = ZINC44714276
REMARK  9 active torsions:
REMARK  status: ('A' for Active; 'I' for Inactive)
REMARK    1  A    between atoms: C_1  and  C_2
REMARK    2  A    between atoms: C_3  and  C_9
REMARK    3  A    between atoms: C_4  and  C_8
REMARK    4  A    between atoms: C_9  and  C_11
REMARK    5  A    between atoms: C_9  and  N_12
REMARK    6  A    between atoms: C_13  and  C_15
REMARK    7  A    between atoms: C_26  and  C_28
REMARK    8  A    between atoms: C_29  and  C_34
REMARK    9  A    between atoms: C_32  and  C_33
REMARK                            x       y       z     vdW  Elec       q    Type
REMARK                         _______ _______ _______ _____ _____    ______ ____
ROOT
ATOM      1  C   UNL     1      -2.503  -1.277  -5.506  0.00  0.00    +0.100 C 
ATOM      2  C   UNL     1      -3.783  -1.644  -4.723  0.00  0.00    +0.121 C 
ATOM      3  N   UNL     1      -4.739  -0.555  -5.037  0.00  0.00    -0.296 N 
ATOM      4  C   UNL     1      -4.514  -0.271  -6.474  0.00  0.00    +0.115 C 
ATOM      5  C   UNL     1      -2.987  -0.379  -6.657  0.00  0.00    -0.004 C 
ATOM      6  C   UNL     1      -2.660  -1.021  -8.002  0.00  0.00    -0.010 C 
ATOM      7  C   UNL     1      -3.099  -0.083  -9.130  0.00  0.00    -0.082 C 
ATOM      8  N   UNL     1      -2.404   1.204  -8.997  0.00  0.00    +0.379 N 
ATOM      9  C   UNL     1      -2.796   1.857  -7.743  0.00  0.00    -0.082 C 
ATOM     10  C   UNL     1      -2.345   1.001  -6.556  0.00  0.00    -0.010 C 
ATOM     11  C   UNL     1      -5.614   0.041  -4.204  0.00  0.00    +0.252 C 
ATOM     12  O   UNL     1      -6.338   0.927  -4.615  0.00  0.00    -0.270 OA
ATOM     13  H   UNL     1      -1.407   1.048  -8.996  0.00  0.00    -0.086 HD
ATOM     14  H   UNL     1      -2.648   1.798  -9.775  0.00  0.00    -0.086 HD
ENDROOT
BRANCH  11  15
ATOM     15  C   UNL     1      -5.694  -0.381  -2.794  0.00  0.00    +0.101 A 
ATOM     16  C   UNL     1      -4.932   0.171  -1.673  0.00  0.00    +0.093 A 
ATOM     17  N   UNL     1      -5.297  -0.476  -0.606  0.00  0.00    -0.083 NA
ATOM     18  O   UNL     1      -6.271  -1.435  -0.968  0.00  0.00    -0.359 OA
ATOM     19  C   UNL     1      -6.499  -1.359  -2.281  0.00  0.00    +0.147 A 
ATOM     20  C   UNL     1      -7.471  -2.205  -3.062  0.00  0.00    +0.090 C 
ATOM     21  C   UNL     1      -3.914   1.280  -1.743  0.00  0.00    +0.070 C 
ENDBRANCH  11  15
BRANCH   1  23
ATOM     22  N   UNL     1      -0.219  -0.576  -4.864  0.00  0.00    -0.308 N 
ATOM     23  C   UNL     1      -1.544  -0.524  -4.621  0.00  0.00    +0.219 C 
ATOM     24  O   UNL     1      -1.964   0.129  -3.689  0.00  0.00    -0.275 OA
ATOM     25  H   UNL     1       0.117  -1.098  -5.610  0.00  0.00    +0.149 HD
BRANCH  22  26
ATOM     26  C   UNL     1       0.713   0.156  -4.004  0.00  0.00    +0.104 C 
ATOM     27  C   UNL     1       0.809   1.608  -4.475  0.00  0.00    +0.033 C 
BRANCH  26  30
ATOM     28  C   UNL     1       2.191  -0.737  -6.612  0.00  0.00    +0.065 C 
ATOM     29  C   UNL     1       2.713  -0.872  -5.205  0.00  0.00    +0.038 A 
ATOM     30  C   UNL     1       2.074  -0.487  -4.077  0.00  0.00    +0.015 A 
ATOM     31  C   UNL     1       2.901  -0.789  -2.989  0.00  0.00    +0.065 A 
ATOM     32  N   UNL     1       3.996  -1.337  -3.449  0.00  0.00    -0.179 NA
ATOM     33  N   UNL     1       3.899  -1.405  -4.845  0.00  0.00    -0.281 N 
ATOM     34  H   UNL     1       4.568  -1.769  -5.446  0.00  0.00    +0.189 HD
ATOM     35  C   UNL     1       2.584  -0.529  -1.539  0.00  0.00    +0.068 C 
ENDBRANCH  26  30
ENDBRANCH  22  26
ENDBRANCH   1  23
TORSDOF 4
