REMARK  Name = ZINC03874671
REMARK  14 active torsions:
REMARK  status: ('A' for Active; 'I' for Inactive)
REMARK    1  A    between atoms: C_3  and  O_36
REMARK    2  A    between atoms: C_6  and  C_7
REMARK    3  A    between atoms: C_7  and  C_8
REMARK    4  A    between atoms: C_8  and  C_9
REMARK    5  A    between atoms: C_9  and  C_11
REMARK    6  A    between atoms: C_12  and  O_35
REMARK    7  A    between atoms: C_14  and  O_34
REMARK    8  A    between atoms: C_16  and  O_17
REMARK    9  A    between atoms: O_17  and  C_18
REMARK   10  A    between atoms: C_20  and  O_33
REMARK   11  A    between atoms: C_22  and  O_32
REMARK   12  A    between atoms: C_24  and  O_31
REMARK   13  A    between atoms: C_26  and  C_29
REMARK   14  A    between atoms: C_29  and  O_30
REMARK                            x       y       z     vdW  Elec       q    Type
REMARK                         _______ _______ _______ _____ _____    ______ ____
ROOT
ATOM      1  C   UNL     1       2.396   1.410  -0.013  0.00  0.00    +0.101 A 
ATOM      2  C   UNL     1       1.168   2.097   0.002  0.00  0.00    +0.134 A 
ATOM      3  C   UNL     1      -0.017   1.385   0.010  0.00  0.00    +0.091 A 
ATOM      4  C   UNL     1       0.002  -0.004   0.002  0.00  0.00    +0.124 A 
ATOM      5  C   UNL     1       1.209  -0.691  -0.013  0.00  0.00    +0.092 A 
ATOM      6  C   UNL     1       2.405   0.002  -0.020  0.00  0.00    +0.141 A 
ENDROOT
BRANCH   1   7
ATOM      7  C   UNL     1       3.655   2.153  -0.021  0.00  0.00    +0.170 C 
ATOM      8  O   UNL     1       4.712   1.556  -0.033  0.00  0.00    -0.292 OA
BRANCH   7   9
ATOM      9  C   UNL     1       3.640   3.660  -0.013  0.00  0.00    +0.084 C 
BRANCH   9  10
ATOM     10  C   UNL     1       5.077   4.184  -0.023  0.00  0.00    +0.043 C 
BRANCH  10  16
ATOM     11  C   UNL     1       5.051   6.387  -1.210  0.00  0.00    +0.007 A 
ATOM     12  C   UNL     1       5.032   7.768  -1.206  0.00  0.00    +0.045 A 
ATOM     13  C   UNL     1       5.036   8.457  -0.001  0.00  0.00    +0.117 A 
ATOM     14  C   UNL     1       5.053   7.756   1.196  0.00  0.00    +0.045 A 
ATOM     15  C   UNL     1       5.066   6.375   1.186  0.00  0.00    +0.007 A 
ATOM     16  C   UNL     1       5.062   5.691  -0.015  0.00  0.00    -0.047 A 
BRANCH  13  17
ATOM     17  O   UNL     1       5.024   9.816   0.006  0.00  0.00    -0.507 OA
ATOM     18  H   UNL     1       5.903  10.217  -0.001  0.00  0.00    +0.292 HD
ENDBRANCH  13  17
ENDBRANCH  10  16
ENDBRANCH   9  10
ENDBRANCH   7   9
ENDBRANCH   1   7
BRANCH   4  19
ATOM     19  O   UNL     1      -1.166  -0.694   0.009  0.00  0.00    -0.507 OA
ATOM     20  H   UNL     1      -1.513  -0.889  -0.872  0.00  0.00    +0.292 HD
ENDBRANCH   4  19
BRANCH   2  21
ATOM     21  O   UNL     1       1.147   3.453   0.009  0.00  0.00    -0.506 OA
ATOM     22  H   UNL     1       1.149   3.842   0.895  0.00  0.00    +0.292 HD
ENDBRANCH   2  21
BRANCH   6  23
ATOM     23  O   UNL     1       3.582  -0.671  -0.034  0.00  0.00    -0.460 OA
BRANCH  23  24
ATOM     24  C   UNL     1       3.513  -2.098  -0.040  0.00  0.00    +0.339 C 
ATOM     25  C   UNL     1       4.923  -2.677  -0.182  0.00  0.00    +0.214 C 
ATOM     26  C   UNL     1       5.763  -2.257   1.029  0.00  0.00    +0.180 C 
ATOM     27  C   UNL     1       5.066  -2.730   2.308  0.00  0.00    +0.177 C 
ATOM     28  C   UNL     1       3.650  -2.150   2.353  0.00  0.00    +0.179 C 
ATOM     29  O   UNL     1       2.934  -2.553   1.184  0.00  0.00    -0.331 OA
BRANCH  27  30
ATOM     30  O   UNL     1       4.998  -4.158   2.315  0.00  0.00    -0.386 OA
ATOM     31  H   UNL     1       5.861  -4.593   2.284  0.00  0.00    +0.210 HD
ENDBRANCH  27  30
BRANCH  26  32
ATOM     32  O   UNL     1       7.058  -2.853   0.942  0.00  0.00    -0.386 OA
ATOM     33  H   UNL     1       7.554  -2.602   0.151  0.00  0.00    +0.210 HD
ENDBRANCH  26  32
BRANCH  25  34
ATOM     34  O   UNL     1       5.526  -2.178  -1.377  0.00  0.00    -0.383 OA
ATOM     35  H   UNL     1       5.044  -2.403  -2.185  0.00  0.00    +0.210 HD
ENDBRANCH  25  34
BRANCH  28  36
ATOM     36  C   UNL     1       2.926  -2.666   3.599  0.00  0.00    +0.190 C 
BRANCH  36  37
ATOM     37  O   UNL     1       1.649  -2.034   3.703  0.00  0.00    -0.392 OA
ATOM     38  H   UNL     1       1.133  -2.315   4.472  0.00  0.00    +0.210 HD
ENDBRANCH  36  37
ENDBRANCH  28  36
ENDBRANCH  23  24
ENDBRANCH   6  23
TORSDOF 14
