REMARK  Name = ZINC65771776
REMARK  5 active torsions:
REMARK  status: ('A' for Active; 'I' for Inactive)
REMARK    1  A    between atoms: C_1  and  N_2
REMARK    2  A    between atoms: C_10  and  C_11
REMARK    3  A    between atoms: C_11  and  C_12
REMARK    4  A    between atoms: N_14  and  N_15
REMARK    5  A    between atoms: N_18  and  C_19
REMARK                            x       y       z     vdW  Elec       q    Type
REMARK                         _______ _______ _______ _____ _____    ______ ____
ROOT
ATOM      1  N   UNL     1      -2.942   0.337   4.734  0.00  0.00    -0.218 N 
ATOM      2  C   UNL     1      -3.181   0.758   5.992  0.00  0.00    +0.320 C 
ATOM      3  O   UNL     1      -4.325   0.875   6.387  0.00  0.00    -0.251 OA
ATOM      4  N   UNL     1      -2.152   1.049   6.811  0.00  0.00    -0.267 N 
ATOM      5  H   UNL     1      -3.683   0.128   4.143  0.00  0.00    +0.174 HD
ATOM      6  H   UNL     1      -1.240   0.891   6.520  0.00  0.00    +0.156 HD
ENDROOT
BRANCH   4   7
ATOM      7  C   UNL     1      -2.399   1.580   8.086  0.00  0.00    +0.051 A 
ATOM      8  C   UNL     1      -3.517   1.176   8.814  0.00  0.00    +0.028 A 
ATOM      9  C   UNL     1      -3.721   1.725  10.066  0.00  0.00    +0.043 A 
ATOM     10  C   UNL     1      -2.811   2.657  10.554  0.00  0.00    +0.099 A 
ATOM     11  N   UNL     1      -1.761   3.018   9.835  0.00  0.00    -0.348 N 
ATOM     12  C   UNL     1      -1.532   2.509   8.639  0.00  0.00    +0.107 A 
ATOM     13  N   UNL     1      -3.008   3.217  11.814  0.00  0.00    -0.317 N 
ATOM     14  C   UNL     1      -4.120   2.909  12.724  0.00  0.00    +0.106 C 
ATOM     15  C   UNL     1      -3.938   3.782  13.983  0.00  0.00    +0.020 C 
ATOM     16  C   UNL     1      -3.047   4.946  13.473  0.00  0.00    +0.020 C 
ATOM     17  C   UNL     1      -2.131   4.211  12.459  0.00  0.00    +0.106 C 
ATOM     18  H   UNL     1      -1.141   3.670  10.197  0.00  0.00    +0.167 HD
ENDBRANCH   4   7
BRANCH   1  21
ATOM     19  C   UNL     1      -1.385  -0.218   3.020  0.00  0.00    +0.236 C 
ATOM     20  O   UNL     1      -2.312  -0.480   2.282  0.00  0.00    -0.274 OA
ATOM     21  N   UNL     1      -1.624   0.202   4.278  0.00  0.00    -0.233 N 
ATOM     22  H   UNL     1      -0.883   0.412   4.869  0.00  0.00    +0.173 HD
BRANCH  19  23
ATOM     23  C   UNL     1       0.032  -0.363   2.531  0.00  0.00    +0.171 C 
BRANCH  23  33
ATOM     24  C   UNL     1      -0.012   1.428   0.010  0.00  0.00    +0.150 C 
ATOM     25  N   UNL     1       0.005  -0.037   0.008  0.00  0.00    -0.330 N 
ATOM     26  C   UNL     1       0.010  -0.854  -1.105  0.00  0.00    +0.069 A 
ATOM     27  C   UNL     1       0.002  -0.623  -2.474  0.00  0.00    +0.028 A 
ATOM     28  C   UNL     1       0.011  -1.690  -3.347  0.00  0.00    +0.002 A 
ATOM     29  C   UNL     1       0.027  -2.992  -2.866  0.00  0.00    +0.002 A 
ATOM     30  C   UNL     1       0.034  -3.238  -1.522  0.00  0.00    +0.030 A 
ATOM     31  C   UNL     1       0.026  -2.172  -0.619  0.00  0.00    +0.089 A 
ATOM     32  N   UNL     1       0.031  -2.093   0.737  0.00  0.00    -0.232 NA
ATOM     33  C   UNL     1       0.024  -0.845   1.103  0.00  0.00    +0.119 A 
ENDBRANCH  23  33
ENDBRANCH  19  23
ENDBRANCH   1  21
TORSDOF 4
