REMARK  Name = ZINC35487040
REMARK  13 active torsions:
REMARK  status: ('A' for Active; 'I' for Inactive)
REMARK    1  A    between atoms: C_1  and  C_2
REMARK    2  A    between atoms: C_2  and  O_3
REMARK    3  A    between atoms: O_3  and  C_4
REMARK    4  A    between atoms: C_6  and  C_18
REMARK    5  A    between atoms: C_9  and  O_10
REMARK    6  A    between atoms: O_10  and  C_11
REMARK    7  A    between atoms: C_11  and  C_12
REMARK    8  A    between atoms: N_33  and  C_34
REMARK    9  A    between atoms: C_34  and  C_35
REMARK   10  A    between atoms: C_35  and  C_36
REMARK   11  A    between atoms: C_36  and  N_37
REMARK   12  A    between atoms: N_37  and  C_38
REMARK   13  A    between atoms: N_37  and  C_39
REMARK                            x       y       z     vdW  Elec       q    Type
REMARK                         _______ _______ _______ _____ _____    ______ ____
ROOT
ATOM      1  C   UNL     1      -0.217  -4.963  -0.535  0.00  0.00    +0.145 C 
ATOM      2  C   UNL     1      -1.504  -5.538  -0.042  0.00  0.00    +0.072 A 
ATOM      3  C   UNL     1      -2.759  -4.895   0.359  0.00  0.00    +0.199 A 
ATOM      4  O   UNL     1      -2.992  -3.713   0.174  0.00  0.00    -0.287 OA
ATOM      5  C   UNL     1      -3.720  -5.820   1.010  0.00  0.00    +0.067 A 
ATOM      6  C   UNL     1      -4.870  -5.325   1.625  0.00  0.00    +0.053 A 
ATOM      7  C   UNL     1      -5.749  -6.199   2.229  0.00  0.00    +0.124 A 
ATOM      8  C   UNL     1      -5.486  -7.564   2.226  0.00  0.00    +0.042 A 
ATOM      9  C   UNL     1      -4.355  -8.062   1.621  0.00  0.00    +0.050 A 
ATOM     10  C   UNL     1      -3.452  -7.199   1.000  0.00  0.00    +0.140 A 
ATOM     11  O   UNL     1      -2.353  -7.717   0.405  0.00  0.00    -0.450 OA
ATOM     12  C   UNL     1      -1.362  -6.896   0.005  0.00  0.00    +0.199 A 
ATOM     13  C   UNL     1       0.000  -7.234  -0.443  0.00  0.00    +0.283 C 
ATOM     14  O   UNL     1       0.449  -8.361  -0.515  0.00  0.00    -0.267 OA
ATOM     15  N   UNL     1       0.677  -6.111  -0.762  0.00  0.00    -0.284 N 
ATOM     16  F   UNL     1      -6.866  -5.728   2.827  0.00  0.00    -0.205 F 
ENDROOT
BRANCH   1  19
ATOM     17  C   UNL     1       0.802  -1.825   1.306  0.00  0.00    +0.162 A 
ATOM     18  C   UNL     1       0.261  -2.673   0.353  0.00  0.00    +0.055 A 
ATOM     19  C   UNL     1       0.372  -4.043   0.502  0.00  0.00    -0.019 A 
ATOM     20  C   UNL     1       1.024  -4.570   1.602  0.00  0.00    +0.009 A 
ATOM     21  C   UNL     1       1.566  -3.730   2.557  0.00  0.00    +0.050 A 
ATOM     22  C   UNL     1       1.462  -2.356   2.410  0.00  0.00    +0.162 A 
BRANCH  17  23
ATOM     23  O   UNL     1       0.693  -0.477   1.160  0.00  0.00    -0.489 OA
BRANCH  23  25
ATOM     24  C   UNL     1      -0.019   1.526   0.010  0.00  0.00    +0.048 C 
ATOM     25  C   UNL     1       0.002  -0.004   0.002  0.00  0.00    +0.226 C 
ENDBRANCH  23  25
ENDBRANCH  17  23
BRANCH  22  26
ATOM     26  O   UNL     1       2.000  -1.528   3.345  0.00  0.00    -0.484 OA
BRANCH  26  27
ATOM     27  C   UNL     1       2.664  -2.143   4.451  0.00  0.00    +0.264 C 
BRANCH  27  28
ATOM     28  C   UNL     1       3.191  -1.077   5.376  0.00  0.00    -0.010 A 
ATOM     29  C   UNL     1       4.462  -0.566   5.189  0.00  0.00    +0.007 A 
ATOM     30  C   UNL     1       4.947   0.412   6.037  0.00  0.00    +0.000 A 
ATOM     31  C   UNL     1       4.160   0.879   7.073  0.00  0.00    +0.000 A 
ATOM     32  C   UNL     1       2.888   0.370   7.260  0.00  0.00    +0.000 A 
ATOM     33  C   UNL     1       2.403  -0.605   6.409  0.00  0.00    +0.007 A 
ENDBRANCH  27  28
ENDBRANCH  26  27
ENDBRANCH  22  26
ENDBRANCH   1  19
BRANCH  15  34
ATOM     34  C   UNL     1       2.057  -6.044  -1.250  0.00  0.00    +0.107 C 
BRANCH  34  35
ATOM     35  C   UNL     1       3.012  -5.919  -0.061  0.00  0.00    +0.000 C 
BRANCH  35  36
ATOM     36  C   UNL     1       4.453  -5.850  -0.571  0.00  0.00    -0.078 C 
BRANCH  36  37
ATOM     37  N   UNL     1       5.370  -5.730   0.571  0.00  0.00    +0.376 N 
ATOM     38  C   UNL     1       6.758  -5.784   0.091  0.00  0.00    -0.097 C 
ATOM     39  C   UNL     1       5.138  -4.451   1.254  0.00  0.00    -0.097 C 
ATOM     40  H   UNL     1       5.207  -6.490   1.214  0.00  0.00    -0.083 HD
ENDBRANCH  36  37
ENDBRANCH  35  36
ENDBRANCH  34  35
ENDBRANCH  15  34
TORSDOF 10
