REMARK  Name = ZINC37821146
REMARK  3 active torsions:
REMARK  status: ('A' for Active; 'I' for Inactive)
REMARK    1  A    between atoms: C_3  and  C_7
REMARK    2  A    between atoms: C_12  and  C_15
REMARK    3  A    between atoms: C_15  and  C_16
REMARK                            x       y       z     vdW  Elec       q    Type
REMARK                         _______ _______ _______ _____ _____    ______ ____
ROOT
ATOM      1  C   UNL     1       3.625   0.673   0.090  0.00  0.00    +0.202 C 
ATOM      2  O   UNL     1       3.947  -0.028  -0.846  0.00  0.00    -0.277 OA
ATOM      3  N   UNL     1       4.551   1.423   0.720  0.00  0.00    -0.303 N 
ATOM      4  C   UNL     1       4.178   2.272   1.859  0.00  0.00    +0.108 C 
ATOM      5  C   UNL     1       5.089   1.936   3.044  0.00  0.00    +0.023 C 
ATOM      6  C   UNL     1       6.551   2.069   2.613  0.00  0.00    +0.001 C 
ATOM      7  C   UNL     1       6.844   1.080   1.482  0.00  0.00    +0.023 C 
ATOM      8  C   UNL     1       5.954   1.402   0.283  0.00  0.00    +0.108 C 
ENDROOT
BRANCH   1  11
ATOM      9  C   UNL     1      -0.019   1.536   0.011  0.00  0.00    -0.020 C 
ATOM     10  C   UNL     1       1.468   1.960  -0.001  0.00  0.00    -0.009 C 
ATOM     11  C   UNL     1       2.191   0.705   0.550  0.00  0.00    +0.016 C 
ATOM     12  N   UNL     1       1.421  -0.418  -0.044  0.00  0.00    +0.387 N 
ATOM     13  C   UNL     1       0.002  -0.004   0.002  0.00  0.00    -0.082 C 
ATOM     14  H   UNL     1       1.708  -0.571  -0.999  0.00  0.00    -0.085 HD
ATOM     15  H   UNL     1       1.556  -1.258   0.499  0.00  0.00    -0.085 HD
ENDBRANCH   1  11
BRANCH   6  16
ATOM     16  C   UNL     1       7.463   1.767   3.803  0.00  0.00    +0.099 C 
BRANCH  16  17
ATOM     17  C   UNL     1       8.898   2.018   3.413  0.00  0.00    +0.211 C 
ATOM     18  O   UNL     1       9.164   2.400   2.294  0.00  0.00    -0.276 OA
ATOM     19  N   UNL     1       9.884   1.817   4.309  0.00  0.00    -0.329 N 
ATOM     20  H   UNL     1       9.671   1.511   5.205  0.00  0.00    +0.145 HD
ATOM     21  H   UNL     1      10.807   1.978   4.058  0.00  0.00    +0.145 HD
ENDBRANCH  16  17
ENDBRANCH   6  16
TORSDOF 3
