REMARK  Name = ZINC10067252
REMARK  12 active torsions:
REMARK  status: ('A' for Active; 'I' for Inactive)
REMARK    1  A    between atoms: C_1  and  C_2
REMARK    2  A    between atoms: C_2  and  N_60
REMARK    3  A    between atoms: C_3  and  C_4
REMARK    4  A    between atoms: C_3  and  N_60
REMARK    5  A    between atoms: C_5  and  C_6
REMARK    6  A    between atoms: C_5  and  N_60
REMARK    7  A    between atoms: C_6  and  N_7
REMARK    8  A    between atoms: C_11  and  O_18
REMARK    9  A    between atoms: C_14  and  C_17
REMARK   10  A    between atoms: O_18  and  C_19
REMARK   11  A    between atoms: C_20  and  C_22
REMARK   12  A    between atoms: C_26  and  N_31
REMARK                            x       y       z     vdW  Elec       q    Type
REMARK                         _______ _______ _______ _____ _____    ______ ____
ROOT
ATOM      1  N   UNL     1       4.510  -3.214  -0.264  0.00  0.00    -0.248 N 
ATOM      2  C   UNL     1       3.465  -2.306  -0.291  0.00  0.00    +0.168 A 
ATOM      3  N   UNL     1       3.512  -0.999  -0.393  0.00  0.00    -0.221 NA
ATOM      4  C   UNL     1       2.400  -0.231  -0.408  0.00  0.00    +0.122 A 
ATOM      5  C   UNL     1       2.312   1.181  -0.512  0.00  0.00    +0.147 A 
ATOM      6  C   UNL     1       1.089   1.809  -0.512  0.00  0.00    +0.048 A 
ATOM      7  C   UNL     1      -0.093   1.090  -0.410  0.00  0.00    +0.008 A 
ATOM      8  C   UNL     1      -0.042  -0.287  -0.306  0.00  0.00    -0.034 A 
ATOM      9  C   UNL     1       1.175  -0.925  -0.306  0.00  0.00    +0.047 A 
ATOM     10  S   UNL     1       1.707  -2.617  -0.198  0.00  0.00    -0.051 S 
ATOM     11  C   UNL     1      -1.315  -1.086  -0.194  0.00  0.00    +0.045 C 
ATOM     12  C   UNL     1       4.255  -4.532  -0.153  0.00  0.00    +0.259 C 
ATOM     13  O   UNL     1       3.111  -4.920  -0.010  0.00  0.00    -0.269 OA
ENDROOT
BRANCH  12  14
ATOM     14  C   UNL     1       5.358  -5.501  -0.206  0.00  0.00    +0.076 A 
ATOM     15  C   UNL     1       5.293  -6.859  -0.240  0.00  0.00    +0.029 A 
ATOM     16  C   UNL     1       6.476  -7.618  -0.292  0.00  0.00    -0.008 A 
ATOM     17  C   UNL     1       6.613  -9.029  -0.338  0.00  0.00    +0.041 A 
ATOM     18  C   UNL     1       7.841  -9.607  -0.381  0.00  0.00    +0.127 A 
ATOM     19  C   UNL     1       9.004  -8.846  -0.382  0.00  0.00    +0.034 A 
ATOM     20  C   UNL     1       8.917  -7.470  -0.339  0.00  0.00    +0.018 A 
ATOM     21  C   UNL     1       7.676  -6.869  -0.295  0.00  0.00    +0.020 A 
ATOM     22  S   UNL     1       7.114  -5.186  -0.232  0.00  0.00    -0.084 S 
BRANCH  18  23
ATOM     23  N   UNL     1       7.943 -11.083  -0.428  0.00  0.00    +0.056 N 
ATOM     24  O   UNL     1       6.933 -11.764  -0.428  0.00  0.00    -0.126 OA
ATOM     25  O   UNL     1       9.037 -11.616  -0.467  0.00  0.00    -0.126 OA
ENDBRANCH  18  23
ENDBRANCH  12  14
BRANCH   5  26
ATOM     26  O   UNL     1       3.449   1.921  -0.614  0.00  0.00    -0.493 OA
ATOM     27  C   UNL     1       3.293   3.337  -0.716  0.00  0.00    +0.277 C 
ENDBRANCH   5  26
BRANCH   1  28
ATOM     28  C   UNL     1       5.894  -2.741  -0.355  0.00  0.00    +0.097 C 
BRANCH  28  29
ATOM     29  C   UNL     1       6.488  -2.629   1.050  0.00  0.00    -0.059 C 
BRANCH  29  30
ATOM     30  N   UNL     1       7.921  -2.285   0.933  0.00  0.00    +0.380 N 
ATOM     31  H   UNL     1       8.340  -2.852   0.186  0.00  0.00    -0.082 HD
BRANCH  30  33
ATOM     32  C   UNL     1       9.538  -0.578   0.257  0.00  0.00    -0.017 C 
ATOM     33  C   UNL     1       8.071  -0.855   0.591  0.00  0.00    -0.082 C 
ENDBRANCH  30  33
BRANCH  30  34
ATOM     34  C   UNL     1       8.616  -2.576   2.204  0.00  0.00    -0.082 C 
ATOM     35  C   UNL     1       8.841  -4.086   2.305  0.00  0.00    -0.017 C 
ENDBRANCH  30  34
ENDBRANCH  29  30
ENDBRANCH  28  29
ENDBRANCH   1  28
TORSDOF 8
