REMARK  Name = ZINC39467032
REMARK  6 active torsions:
REMARK  status: ('A' for Active; 'I' for Inactive)
REMARK    1  A    between atoms: C_4  and  C_7
REMARK    2  A    between atoms: C_7  and  C_8
REMARK    3  A    between atoms: P_17  and  C_33
REMARK    4  A    between atoms: C_25  and  C_26
REMARK    5  A    between atoms: C_26  and  C_27
REMARK    6  A    between atoms: C_38  and  O_39
REMARK                            x       y       z     vdW  Elec       q    Type
REMARK                         _______ _______ _______ _____ _____    ______ ____
ROOT
ATOM      1  C   UNL     1       4.048  -1.071   1.435  0.00  0.00    -0.043 C 
ATOM      2  C   UNL     1       3.809  -2.278   1.938  0.00  0.00    -0.019 C 
ATOM      3  C   UNL     1       4.335  -2.632   3.309  0.00  0.00    +0.016 C 
ATOM      4  C   UNL     1       3.384  -2.061   4.362  0.00  0.00    -0.003 C 
ATOM      5  C   UNL     1       3.946  -2.281   5.771  0.00  0.00    -0.020 C 
ATOM      6  C   UNL     1       2.937  -1.681   6.759  0.00  0.00    +0.157 C 
ATOM      7  O   UNL     1       3.390  -1.906   8.106  0.00  0.00    -0.316 OA
ATOM      8  P   UNL     1       4.921  -1.490   8.466  0.00  0.00    +0.291 P 
ATOM      9  O   UNL     1       5.392  -2.243   9.650  0.00  0.00    -0.269 OA
ATOM     10  N   UNL     1       5.806  -1.902   7.136  0.00  0.00    -0.288 NA
ATOM     11  N   UNL     1       5.258  -1.641   5.897  0.00  0.00    +0.398 N 
ATOM     12  C   UNL     1       6.199  -2.204   4.916  0.00  0.00    -0.046 C 
ATOM     13  C   UNL     1       5.718  -1.998   3.484  0.00  0.00    +0.005 C 
ATOM     14  C   UNL     1       5.636  -0.525   3.185  0.00  0.00    -0.021 C 
ATOM     15  C   UNL     1       4.818  -0.090   2.219  0.00  0.00    -0.044 C 
ATOM     16  H   UNL     1       6.681  -2.311   7.223  0.00  0.00    +0.111 HD
ATOM     17  H   UNL     1       5.165  -0.645   5.766  0.00  0.00    -0.055 HD
ENDROOT
BRANCH   8  18
ATOM     18  C   UNL     1       5.033   0.294   8.773  0.00  0.00    +0.091 A 
ATOM     19  C   UNL     1       5.293   1.160   7.728  0.00  0.00    +0.018 A 
ATOM     20  C   UNL     1       5.379   2.520   7.961  0.00  0.00    +0.001 A 
ATOM     21  C   UNL     1       5.204   3.018   9.239  0.00  0.00    +0.004 A 
ATOM     22  C   UNL     1       4.944   2.156  10.287  0.00  0.00    +0.046 A 
ATOM     23  C   UNL     1       4.852   0.791  10.055  0.00  0.00    +0.131 A 
BRANCH  23  24
ATOM     24  O   UNL     1       4.590  -0.058  11.083  0.00  0.00    -0.506 OA
ATOM     25  H   UNL     1       5.380  -0.385  11.535  0.00  0.00    +0.292 HD
ENDBRANCH  23  24
ENDBRANCH   8  18
BRANCH   1  26
ATOM     26  C   UNL     1       3.539  -0.710   0.063  0.00  0.00    +0.070 C 
BRANCH  26  30
ATOM     27  C   UNL     1       6.588  -1.457  -2.834  0.00  0.00    +0.000 A 
ATOM     28  C   UNL     1       5.758  -2.483  -2.423  0.00  0.00    +0.000 A 
ATOM     29  C   UNL     1       4.771  -2.242  -1.486  0.00  0.00    +0.004 A 
ATOM     30  C   UNL     1       4.615  -0.974  -0.958  0.00  0.00    -0.043 A 
ATOM     31  C   UNL     1       5.445   0.053  -1.368  0.00  0.00    +0.004 A 
ATOM     32  C   UNL     1       6.431  -0.189  -2.307  0.00  0.00    +0.000 A 
ENDBRANCH  26  30
ENDBRANCH   1  26
BRANCH  15  33
ATOM     33  C   UNL     1       4.703   1.382   1.916  0.00  0.00    +0.070 C 
BRANCH  33  34
ATOM     34  C   UNL     1       3.540   1.962   2.678  0.00  0.00    -0.043 A 
ATOM     35  C   UNL     1       2.303   2.077   2.071  0.00  0.00    +0.004 A 
ATOM     36  C   UNL     1       1.236   2.609   2.770  0.00  0.00    +0.000 A 
ATOM     37  C   UNL     1       1.406   3.026   4.077  0.00  0.00    +0.000 A 
ATOM     38  C   UNL     1       2.642   2.911   4.685  0.00  0.00    +0.000 A 
ATOM     39  C   UNL     1       3.708   2.375   3.987  0.00  0.00    +0.004 A 
ENDBRANCH  33  34
ENDBRANCH  15  33
TORSDOF 6
