REMARK  Name = ZINC13783864
REMARK  11 active torsions:
REMARK  status: ('A' for Active; 'I' for Inactive)
REMARK    1  A    between atoms: C_1  and  C_2
REMARK    2  A    between atoms: C_4  and  O_37
REMARK    3  A    between atoms: C_6  and  O_36
REMARK    4  A    between atoms: C_8  and  O_35
REMARK    5  A    between atoms: C_10  and  O_13
REMARK    6  A    between atoms: O_13  and  C_14
REMARK    7  A    between atoms: C_18  and  O_34
REMARK    8  A    between atoms: C_20  and  O_33
REMARK    9  A    between atoms: C_24  and  C_25
REMARK   10  A    between atoms: C_28  and  O_32
REMARK   11  A    between atoms: C_29  and  O_31
REMARK                            x       y       z     vdW  Elec       q    Type
REMARK                         _______ _______ _______ _____ _____    ______ ____
ROOT
ATOM      1  C   UNL     1       0.165  -0.407   4.894  0.00  0.00    +0.214 A 
ATOM      2  C   UNL     1      -0.748  -1.071   5.753  0.00  0.00    +0.238 A 
ATOM      3  O   UNL     1      -1.548  -0.447   6.432  0.00  0.00    -0.283 OA
ATOM      4  C   UNL     1      -0.696  -2.541   5.790  0.00  0.00    +0.109 A 
ATOM      5  C   UNL     1      -1.564  -3.278   6.607  0.00  0.00    +0.135 A 
ATOM      6  C   UNL     1      -1.480  -4.658   6.619  0.00  0.00    +0.091 A 
ATOM      7  C   UNL     1      -0.541  -5.308   5.825  0.00  0.00    +0.124 A 
ATOM      8  C   UNL     1       0.321  -4.586   5.015  0.00  0.00    +0.092 A 
ATOM      9  C   UNL     1       0.252  -3.201   4.989  0.00  0.00    +0.147 A 
ATOM     10  O   UNL     1       1.085  -2.483   4.206  0.00  0.00    -0.451 OA
ATOM     11  C   UNL     1       1.047  -1.141   4.157  0.00  0.00    +0.181 A 
ENDROOT
BRANCH  11  12
ATOM     12  C   UNL     1       1.993  -0.435   3.274  0.00  0.00    +0.025 A 
ATOM     13  C   UNL     1       2.727   0.651   3.758  0.00  0.00    +0.015 A 
ATOM     14  C   UNL     1       3.612   1.309   2.931  0.00  0.00    +0.050 A 
ATOM     15  C   UNL     1       3.776   0.896   1.616  0.00  0.00    +0.158 A 
ATOM     16  C   UNL     1       3.047  -0.187   1.126  0.00  0.00    +0.159 A 
ATOM     17  C   UNL     1       2.163  -0.855   1.951  0.00  0.00    +0.060 A 
BRANCH  16  18
ATOM     18  O   UNL     1       3.211  -0.589  -0.163  0.00  0.00    -0.503 OA
ATOM     19  H   UNL     1       3.903  -1.254  -0.282  0.00  0.00    +0.292 HD
ENDBRANCH  16  18
BRANCH  15  20
ATOM     20  O   UNL     1       4.649   1.548   0.805  0.00  0.00    -0.503 OA
ATOM     21  H   UNL     1       5.547   1.188   0.823  0.00  0.00    +0.292 HD
ENDBRANCH  15  20
ENDBRANCH  11  12
BRANCH   7  22
ATOM     22  O   UNL     1      -0.468  -6.663   5.844  0.00  0.00    -0.507 OA
ATOM     23  H   UNL     1       0.139  -7.015   6.510  0.00  0.00    +0.292 HD
ENDBRANCH   7  22
BRANCH   5  24
ATOM     24  O   UNL     1      -2.480  -2.642   7.381  0.00  0.00    -0.506 OA
ATOM     25  H   UNL     1      -2.159  -2.417   8.265  0.00  0.00    +0.292 HD
ENDBRANCH   5  24
BRANCH   1  26
ATOM     26  O   UNL     1       0.165   0.951   4.810  0.00  0.00    -0.453 OA
BRANCH  26  32
ATOM     27  C   UNL     1      -0.948   1.207   0.205  0.00  0.00    +0.041 C 
ATOM     28  C   UNL     1      -1.365   1.694   1.595  0.00  0.00    +0.150 C 
ATOM     29  C   UNL     1      -1.327   3.224   1.633  0.00  0.00    +0.174 C 
ATOM     30  C   UNL     1      -1.686   3.701   3.044  0.00  0.00    +0.180 C 
ATOM     31  C   UNL     1      -0.716   3.070   4.047  0.00  0.00    +0.214 C 
ATOM     32  C   UNL     1      -0.778   1.546   3.916  0.00  0.00    +0.339 C 
ATOM     33  O   UNL     1      -0.463   1.171   2.573  0.00  0.00    -0.334 OA
BRANCH  31  34
ATOM     34  O   UNL     1      -1.085   3.450   5.374  0.00  0.00    -0.383 OA
ATOM     35  H   UNL     1      -0.514   3.081   6.062  0.00  0.00    +0.210 HD
ENDBRANCH  31  34
BRANCH  30  36
ATOM     36  O   UNL     1      -1.581   5.125   3.108  0.00  0.00    -0.386 OA
ATOM     37  H   UNL     1      -1.789   5.495   3.977  0.00  0.00    +0.210 HD
ENDBRANCH  30  36
BRANCH  29  38
ATOM     38  O   UNL     1      -2.270   3.748   0.696  0.00  0.00    -0.387 OA
ATOM     39  H   UNL     1      -2.105   3.482  -0.218  0.00  0.00    +0.210 HD
ENDBRANCH  29  38
ENDBRANCH  26  32
ENDBRANCH   1  26
TORSDOF 10
