REMARK  Name = ZINC65609210
REMARK  12 active torsions:
REMARK  status: ('A' for Active; 'I' for Inactive)
REMARK    1  A    between atoms: C_1  and  C_2
REMARK    2  A    between atoms: C_2  and  C_4
REMARK    3  A    between atoms: C_2  and  N_24
REMARK    4  A    between atoms: C_4  and  N_5
REMARK    5  A    between atoms: N_8  and  C_9
REMARK    6  A    between atoms: C_9  and  C_10
REMARK    7  A    between atoms: C_10  and  C_11
REMARK    8  A    between atoms: C_11  and  C_12
REMARK    9  A    between atoms: C_14  and  N_23
REMARK   10  A    between atoms: N_15  and  C_17
REMARK   11  A    between atoms: N_24  and  C_25
REMARK   12  A    between atoms: N_24  and  C_26
REMARK                            x       y       z     vdW  Elec       q    Type
REMARK                         _______ _______ _______ _____ _____    ______ ____
ROOT
ATOM      1  C   UNL     1      -2.389  -6.937  -0.570  0.00  0.00    +0.025 C 
ENDROOT
BRANCH   1   2
ATOM      2  C   UNL     1      -2.921  -5.503  -0.522  0.00  0.00    +0.106 C 
BRANCH   2   6
ATOM      3  N   UNL     1      -1.007  -2.393  -0.099  0.00  0.00    -0.301 N 
ATOM      4  C   UNL     1      -2.035  -3.248  -0.267  0.00  0.00    +0.300 C 
ATOM      5  O   UNL     1      -3.171  -2.824  -0.354  0.00  0.00    -0.253 OA
ATOM      6  N   UNL     1      -1.804  -4.574  -0.339  0.00  0.00    -0.299 N 
ATOM      7  H   UNL     1      -0.101  -2.731  -0.030  0.00  0.00    +0.150 HD
ATOM      8  H   UNL     1      -0.897  -4.912  -0.270  0.00  0.00    +0.150 HD
BRANCH   3   9
ATOM      9  C   UNL     1      -1.259  -0.951  -0.021  0.00  0.00    +0.090 C 
BRANCH   9  11
ATOM     10  C   UNL     1      -0.190   1.292   0.234  0.00  0.00    -0.012 C 
ATOM     11  C   UNL     1       0.074  -0.205   0.061  0.00  0.00    -0.055 C 
BRANCH  11  12
ATOM     12  N   UNL     1       0.845  -0.702   1.208  0.00  0.00    +0.379 N 
ATOM     13  C   UNL     1       2.178  -0.087   1.206  0.00  0.00    -0.096 C 
ATOM     14  C   UNL     1       0.147  -0.355   2.454  0.00  0.00    -0.096 C 
ATOM     15  H   UNL     1       0.936  -1.705   1.143  0.00  0.00    -0.082 HD
ENDBRANCH  11  12
ENDBRANCH   9  11
ENDBRANCH   3   9
ENDBRANCH   2   6
ENDBRANCH   1   2
BRANCH   1  16
ATOM     16  C   UNL     1      -3.556  -7.908  -0.761  0.00  0.00    +0.059 C 
BRANCH  16  17
ATOM     17  C   UNL     1      -3.031  -9.320  -0.809  0.00  0.00    +0.065 A 
ATOM     18  C   UNL     1      -3.453 -10.376   0.004  0.00  0.00    +0.068 A 
ATOM     19  C   UNL     1      -2.742 -11.483  -0.347  0.00  0.00    +0.120 A 
ATOM     20  N   UNL     1      -1.900 -11.125  -1.354  0.00  0.00    -0.219 N 
ATOM     21  N   UNL     1      -2.109  -9.766  -1.623  0.00  0.00    -0.170 NA
BRANCH  20  22
ATOM     22  C   UNL     1      -0.989 -11.966  -2.008  0.00  0.00    +0.067 A 
ATOM     23  C   UNL     1      -0.346 -12.975  -1.305  0.00  0.00    +0.028 A 
ATOM     24  C   UNL     1       0.551 -13.803  -1.952  0.00  0.00    +0.002 A 
ATOM     25  C   UNL     1       0.808 -13.627  -3.300  0.00  0.00    +0.000 A 
ATOM     26  C   UNL     1       0.168 -12.622  -4.003  0.00  0.00    +0.002 A 
ATOM     27  C   UNL     1      -0.734 -11.795  -3.362  0.00  0.00    +0.028 A 
ENDBRANCH  20  22
BRANCH  19  28
ATOM     28  N   UNL     1      -2.857 -12.749   0.219  0.00  0.00    -0.343 N 
ATOM     29  H   UNL     1      -3.491 -12.904   0.937  0.00  0.00    +0.144 HD
ATOM     30  H   UNL     1      -2.302 -13.477  -0.103  0.00  0.00    +0.144 HD
ENDBRANCH  19  28
ENDBRANCH  16  17
ENDBRANCH   1  16
TORSDOF 9
