REMARK  Name = ZINC58295805
REMARK  12 active torsions:
REMARK  status: ('A' for Active; 'I' for Inactive)
REMARK    1  A    between atoms: C_1  and  C_2
REMARK    2  A    between atoms: C_2  and  C_3
REMARK    3  A    between atoms: C_3  and  N_4
REMARK    4  A    between atoms: N_7  and  C_8
REMARK    5  A    between atoms: C_8  and  C_9
REMARK    6  A    between atoms: C_8  and  C_10
REMARK    7  A    between atoms: C_8  and  C_11
REMARK    8  A    between atoms: N_13  and  C_14
REMARK    9  A    between atoms: C_14  and  C_15
REMARK   10  A    between atoms: C_20  and  C_21
REMARK   11  A    between atoms: C_21  and  N_22
REMARK   12  A    between atoms: C_27  and  C_28
REMARK                            x       y       z     vdW  Elec       q    Type
REMARK                         _______ _______ _______ _____ _____    ______ ____
ROOT
ATOM      1  C   UNL     1       1.382  -5.345   2.892  0.00  0.00    +0.236 C 
ATOM      2  O   UNL     1       2.260  -5.957   3.461  0.00  0.00    -0.273 OA
ATOM      3  N   UNL     1       0.368  -6.010   2.304  0.00  0.00    -0.309 N 
ATOM      4  H   UNL     1      -0.334  -5.520   1.849  0.00  0.00    +0.149 HD
ENDROOT
BRANCH   1   5
ATOM      5  C   UNL     1       1.424  -3.839   2.842  0.00  0.00    +0.106 C 
ATOM      6  C   UNL     1       2.871  -3.364   2.990  0.00  0.00    +0.041 C 
ATOM      7  C   UNL     1       0.581  -3.267   3.984  0.00  0.00    +0.041 C 
BRANCH   5  11
ATOM      8  N   UNL     1       0.331  -1.633   0.111  0.00  0.00    -0.299 N 
ATOM      9  C   UNL     1       0.826  -2.058   1.291  0.00  0.00    +0.300 C 
ATOM     10  O   UNL     1       1.216  -1.251   2.112  0.00  0.00    -0.253 OA
ATOM     11  N   UNL     1       0.887  -3.377   1.560  0.00  0.00    -0.286 N 
ATOM     12  H   UNL     1       0.020  -2.277  -0.544  0.00  0.00    +0.150 HD
ATOM     13  H   UNL     1       0.575  -4.021   0.905  0.00  0.00    +0.151 HD
BRANCH   8  14
ATOM     14  C   UNL     1       0.265  -0.200  -0.182  0.00  0.00    +0.105 C 
BRANCH  14  16
ATOM     15  C   UNL     1      -0.401   1.507  -1.881  0.00  0.00    +0.005 C 
ATOM     16  C   UNL     1      -0.331   0.009  -1.575  0.00  0.00    +0.015 C 
ENDBRANCH  14  16
ENDBRANCH   8  14
ENDBRANCH   5  11
ENDBRANCH   1   5
BRANCH   3  17
ATOM     17  C   UNL     1       0.327  -7.474   2.352  0.00  0.00    +0.139 C 
BRANCH  17  18
ATOM     18  C   UNL     1      -0.898  -7.966   1.626  0.00  0.00    -0.029 A 
ATOM     19  C   UNL     1      -2.002  -8.390   2.342  0.00  0.00    +0.005 A 
ATOM     20  C   UNL     1      -3.126  -8.842   1.676  0.00  0.00    +0.000 A 
ATOM     21  C   UNL     1      -3.146  -8.869   0.294  0.00  0.00    +0.000 A 
ATOM     22  C   UNL     1      -2.042  -8.444  -0.422  0.00  0.00    +0.002 A 
ATOM     23  C   UNL     1      -0.920  -7.989   0.244  0.00  0.00    -0.059 A 
BRANCH  23  24
ATOM     24  C   UNL     1       0.281  -7.521  -0.536  0.00  0.00    -0.042 C 
BRANCH  24  25
ATOM     25  N   UNL     1       0.097  -7.841  -1.958  0.00  0.00    +0.384 N 
ATOM     26  C   UNL     1       0.110  -9.298  -2.136  0.00  0.00    -0.078 C 
ATOM     27  C   UNL     1      -0.163  -9.639  -3.602  0.00  0.00    -0.019 C 
ATOM     28  C   UNL     1       0.922  -9.006  -4.478  0.00  0.00    -0.003 C 
ATOM     29  C   UNL     1       0.949  -7.496  -4.229  0.00  0.00    -0.016 C 
ATOM     30  C   UNL     1       1.181  -7.234  -2.739  0.00  0.00    -0.071 C 
ATOM     31  C   UNL     1       1.209  -5.725  -2.486  0.00  0.00    -0.013 C 
ATOM     32  H   UNL     1      -0.789  -7.473  -2.272  0.00  0.00    -0.081 HD
ENDBRANCH  24  25
ENDBRANCH  23  24
ENDBRANCH  17  18
ENDBRANCH   3  17
TORSDOF 8
