REMARK  Name = ZINC64670739
REMARK  2 active torsions:
REMARK  status: ('A' for Active; 'I' for Inactive)
REMARK    1  A    between atoms: C_7  and  C_17
REMARK    2  A    between atoms: N_18  and  O_19
REMARK                            x       y       z     vdW  Elec       q    Type
REMARK                         _______ _______ _______ _____ _____    ______ ____
ROOT
ATOM      1  C   UNL     1       0.082   1.276  -0.481  0.00  0.00    +0.017 A 
ATOM      2  C   UNL     1       1.202   2.028  -0.444  0.00  0.00    +0.027 A 
ATOM      3  C   UNL     1       2.478   1.416  -0.314  0.00  0.00    +0.043 A 
ATOM      4  N   UNL     1       3.687   1.925  -0.234  0.00  0.00    -0.377 N 
ATOM      5  C   UNL     1       4.650   0.828  -0.194  0.00  0.00    +0.116 C 
ATOM      6  C   UNL     1       5.551   0.892   1.042  0.00  0.00    +0.082 C 
ATOM      7  C   UNL     1       6.320  -0.428   1.153  0.00  0.00    +0.014 C 
ATOM      8  C   UNL     1       5.372  -1.596   1.422  0.00  0.00    +0.005 C 
ATOM      9  C   UNL     1       4.421  -1.786   0.228  0.00  0.00    +0.033 C 
ATOM     10  C   UNL     1       3.815  -0.438  -0.086  0.00  0.00    -0.038 C 
ATOM     11  C   UNL     1       2.534  -0.064  -0.214  0.00  0.00    +0.000 A 
ATOM     12  C   UNL     1       1.269  -0.807  -0.267  0.00  0.00    +0.025 A 
ATOM     13  C   UNL     1       0.109  -0.124  -0.397  0.00  0.00    +0.019 A 
ATOM     14 BR   UNL     1      -1.521  -1.081  -0.465  0.00  0.00    -0.050 Br
ATOM     15  H   UNL     1       3.903   2.870  -0.207  0.00  0.00    +0.160 HD
ENDROOT
BRANCH   6  16
ATOM     16  C   UNL     1       6.522   2.037   0.900  0.00  0.00    +0.137 C 
ATOM     17  N   UNL     1       6.255   3.180   1.438  0.00  0.00    -0.076 NA
ATOM     18  N   UNL     1       7.694   1.863   0.198  0.00  0.00    -0.344 N 
ATOM     19  H   UNL     1       7.895   1.004  -0.205  0.00  0.00    +0.144 HD
ATOM     20  H   UNL     1       8.319   2.599   0.107  0.00  0.00    +0.144 HD
BRANCH  17  21
ATOM     21  O   UNL     1       5.106   3.328   2.253  0.00  0.00    -0.408 OA
ATOM     22  H   UNL     1       4.990   4.219   2.611  0.00  0.00    +0.328 HD
ENDBRANCH  17  21
ENDBRANCH   6  16
TORSDOF 2
