REMARK  Name = ZINC63503298
REMARK  3 active torsions:
REMARK  status: ('A' for Active; 'I' for Inactive)
REMARK    1  A    between atoms: C_8  and  C_28
REMARK    2  A    between atoms: C_16  and  C_18
REMARK    3  A    between atoms: C_31  and  N_34
REMARK                            x       y       z     vdW  Elec       q    Type
REMARK                         _______ _______ _______ _____ _____    ______ ____
ROOT
ATOM      1  C   UNL     1       0.030   1.550   0.675  0.00  0.00    +0.001 A 
ATOM      2  C   UNL     1       1.230   2.262   0.804  0.00  0.00    +0.002 A 
ATOM      3  C   UNL     1       2.440   1.673   0.709  0.00  0.00    +0.026 A 
ATOM      4  C   UNL     1       2.545   0.276   0.470  0.00  0.00    +0.043 A 
ATOM      5  N   UNL     1       3.587  -0.516   0.360  0.00  0.00    -0.375 N 
ATOM      6  C   UNL     1       3.118  -1.861   0.038  0.00  0.00    +0.131 C 
ATOM      7  C   UNL     1       3.596  -2.895   1.063  0.00  0.00    +0.133 C 
ATOM      8  N   UNL     1       2.771  -4.103   0.906  0.00  0.00    -0.285 N 
ATOM      9  C   UNL     1       1.316  -4.042   1.084  0.00  0.00    +0.113 C 
ATOM     10  C   UNL     1       0.725  -3.021   0.095  0.00  0.00    +0.052 C 
ATOM     11  C   UNL     1       1.602  -1.791   0.128  0.00  0.00    -0.035 C 
ATOM     12  C   UNL     1       1.289  -0.504   0.337  0.00  0.00    -0.001 A 
ATOM     13  C   UNL     1       0.015   0.217   0.450  0.00  0.00    +0.010 A 
ATOM     14  C   UNL     1       3.357  -5.276   0.595  0.00  0.00    +0.283 C 
ATOM     15  O   UNL     1       4.570  -5.362   0.570  0.00  0.00    -0.267 OA
ATOM     16  H   UNL     1       4.514  -0.252   0.474  0.00  0.00    +0.160 HD
ENDROOT
BRANCH  14  17
ATOM     17  C   UNL     1       2.530  -6.451   0.287  0.00  0.00    +0.191 A 
ATOM     18  C   UNL     1       2.999  -7.715   0.122  0.00  0.00    +0.063 A 
ATOM     19  C   UNL     1       1.831  -8.546  -0.168  0.00  0.00    +0.022 A 
ATOM     20  C   UNL     1       1.644  -9.905  -0.430  0.00  0.00    +0.027 A 
ATOM     21  C   UNL     1       0.386 -10.382  -0.669  0.00  0.00    +0.019 A 
ATOM     22  C   UNL     1      -0.707  -9.524  -0.653  0.00  0.00    +0.019 A 
ATOM     23  C   UNL     1      -0.543  -8.181  -0.396  0.00  0.00    +0.048 A 
ATOM     24  C   UNL     1       0.728  -7.673  -0.150  0.00  0.00    +0.136 A 
ATOM     25  O   UNL     1       1.190  -6.439   0.130  0.00  0.00    -0.450 OA
ATOM     26 BR   UNL     1       0.130 -12.222  -1.026  0.00  0.00    -0.050 Br
ENDBRANCH  14  17
BRANCH   7  27
ATOM     27  C   UNL     1       3.435  -2.344   2.457  0.00  0.00    -0.025 A 
ATOM     28  C   UNL     1       2.180  -1.995   2.921  0.00  0.00    +0.008 A 
ATOM     29  C   UNL     1       2.032  -1.489   4.199  0.00  0.00    +0.033 A 
ATOM     30  C   UNL     1       3.139  -1.332   5.013  0.00  0.00    +0.126 A 
ATOM     31  C   UNL     1       4.393  -1.682   4.549  0.00  0.00    +0.033 A 
ATOM     32  C   UNL     1       4.541  -2.192   3.272  0.00  0.00    +0.008 A 
BRANCH  30  33
ATOM     33  N   UNL     1       2.981  -0.790   6.381  0.00  0.00    +0.056 N 
ATOM     34  O   UNL     1       1.883  -0.484   6.787  0.00  0.00    -0.126 OA
ATOM     35  O   UNL     1       3.948  -0.653   7.093  0.00  0.00    -0.126 OA
ENDBRANCH  30  33
ENDBRANCH   7  27
TORSDOF 3
