REMARK  Name = ZINC44712506
REMARK  5 active torsions:
REMARK  status: ('A' for Active; 'I' for Inactive)
REMARK    1  A    between atoms: C_1  and  C_2
REMARK    2  A    between atoms: C_1  and  O_12
REMARK    3  A    between atoms: C_2  and  O_3
REMARK    4  A    between atoms: O_3  and  C_4
REMARK    5  A    between atoms: O_12  and  C_13
REMARK                            x       y       z     vdW  Elec       q    Type
REMARK                         _______ _______ _______ _____ _____    ______ ____
ROOT
ATOM      1  C   UNL     1      -0.019   1.526   0.010  0.00  0.00    +0.273 C 
ENDROOT
BRANCH   1   2
ATOM      2  C   UNL     1       0.002  -0.004   0.002  0.00  0.00    +0.273 C 
BRANCH   2   3
ATOM      3  O   UNL     1       0.590  -0.479   1.215  0.00  0.00    -0.459 OA
BRANCH   3   4
ATOM      4  C   UNL     1       0.684  -1.820   1.368  0.00  0.00    +0.324 A 
ATOM      5  N   UNL     1       0.246  -2.629   0.411  0.00  0.00    -0.161 NA
ATOM      6  C   UNL     1       0.339  -3.947   0.559  0.00  0.00    +0.220 A 
ATOM      7  N   UNL     1       0.871  -4.455   1.667  0.00  0.00    -0.181 NA
ATOM      8  C   UNL     1       1.309  -3.644   2.624  0.00  0.00    +0.220 A 
ATOM      9  N   UNL     1       1.220  -2.326   2.472  0.00  0.00    -0.161 NA
ATOM     10  N   UNL     1       1.862  -4.170   3.775  0.00  0.00    -0.327 N 
ATOM     11  N   UNL     1      -0.117  -4.788  -0.435  0.00  0.00    -0.327 N 
ATOM     12  H   UNL     1       1.930  -5.131   3.884  0.00  0.00    +0.145 HD
ATOM     13  H   UNL     1       2.182  -3.578   4.473  0.00  0.00    +0.145 HD
ATOM     14  H   UNL     1      -0.505  -4.418  -1.243  0.00  0.00    +0.145 HD
ATOM     15  H   UNL     1      -0.049  -5.750  -0.327  0.00  0.00    +0.145 HD
ENDBRANCH   3   4
ENDBRANCH   2   3
ENDBRANCH   1   2
BRANCH   1  16
ATOM     16  O   UNL     1       1.322   2.020   0.000  0.00  0.00    -0.459 OA
BRANCH  16  17
ATOM     17  C   UNL     1       1.481   3.364   0.006  0.00  0.00    +0.324 A 
ATOM     18  N   UNL     1       0.417   4.158   0.026  0.00  0.00    -0.161 NA
ATOM     19  C   UNL     1       0.573   5.479   0.032  0.00  0.00    +0.220 A 
ATOM     20  N   UNL     1       1.794   6.004   0.018  0.00  0.00    -0.181 NA
ATOM     21  C   UNL     1       2.858   5.208  -0.002  0.00  0.00    +0.220 A 
ATOM     22  N   UNL     1       2.701   3.888  -0.003  0.00  0.00    -0.161 NA
ATOM     23  N   UNL     1       4.126   5.752  -0.016  0.00  0.00    -0.327 N 
ATOM     24  N   UNL     1      -0.533   6.304   0.052  0.00  0.00    -0.327 N 
ATOM     25  H   UNL     1       4.241   6.715  -0.012  0.00  0.00    +0.145 HD
ATOM     26  H   UNL     1       4.903   5.171  -0.031  0.00  0.00    +0.145 HD
ATOM     27  H   UNL     1      -1.424   5.920   0.062  0.00  0.00    +0.145 HD
ATOM     28  H   UNL     1      -0.420   7.267   0.057  0.00  0.00    +0.145 HD
ENDBRANCH  16  17
ENDBRANCH   1  16
TORSDOF 5
