REMARK  Name = ZINC36586598
REMARK  15 active torsions:
REMARK  status: ('A' for Active; 'I' for Inactive)
REMARK    1  A    between atoms: C_1  and  C_2
REMARK    2  A    between atoms: C_5  and  S_8
REMARK    3  A    between atoms: S_8  and  C_11
REMARK    4  A    between atoms: C_11  and  N_12
REMARK    5  A    between atoms: C_13  and  C_15
REMARK    6  A    between atoms: C_15  and  C_17
REMARK    7  A    between atoms: C_15  and  N_24
REMARK    8  A    between atoms: C_21  and  O_23
REMARK    9  A    between atoms: N_24  and  C_35
REMARK   10  A    between atoms: C_25  and  C_27
REMARK   11  A    between atoms: C_28  and  O_34
REMARK   12  A    between atoms: C_32  and  O_33
REMARK   13  A    between atoms: C_35  and  C_36
REMARK   14  A    between atoms: C_35  and  C_37
REMARK   15  A    between atoms: C_35  and  C_38
REMARK                            x       y       z     vdW  Elec       q    Type
REMARK                         _______ _______ _______ _____ _____    ______ ____
ROOT
ATOM      1  C   UNL     1       2.256  -4.089   4.274  0.00  0.00    +0.193 C 
ENDROOT
BRANCH   1   2
ATOM      2  C   UNL     1       3.607  -3.514   4.609  0.00  0.00    -0.015 A 
ATOM      3  C   UNL     1       4.755  -4.226   4.310  0.00  0.00    +0.006 A 
ATOM      4  C   UNL     1       5.996  -3.701   4.617  0.00  0.00    +0.004 A 
ATOM      5  C   UNL     1       6.094  -2.463   5.223  0.00  0.00    +0.045 A 
ATOM      6  C   UNL     1       4.945  -1.747   5.524  0.00  0.00    +0.117 A 
ATOM      7  C   UNL     1       3.700  -2.274   5.210  0.00  0.00    +0.051 A 
BRANCH   6   8
ATOM      8  O   UNL     1       5.038  -0.530   6.121  0.00  0.00    -0.507 OA
ATOM      9  H   UNL     1       5.098   0.209   5.500  0.00  0.00    +0.292 HD
ENDBRANCH   6   8
ENDBRANCH   1   2
BRANCH   1  11
ATOM     10  N   UNL     1       1.853  -2.268   2.649  0.00  0.00    -0.294 N 
ATOM     11  C   UNL     1       1.817  -3.587   2.922  0.00  0.00    +0.239 C 
ATOM     12  O   UNL     1       1.433  -4.371   2.080  0.00  0.00    -0.273 OA
ATOM     13  H   UNL     1       2.161  -1.641   3.322  0.00  0.00    +0.150 HD
BRANCH  10  14
ATOM     14  C   UNL     1       1.428  -1.780   1.335  0.00  0.00    +0.278 C 
BRANCH  14  15
ATOM     15  S   UNL     1      -0.313  -1.276   1.412  0.00  0.00    +0.013 S 
ATOM     16  O   UNL     1      -1.085  -2.278   2.059  0.00  0.00    -0.168 OA
ATOM     17  O   UNL     1      -0.724  -0.742   0.161  0.00  0.00    -0.168 OA
BRANCH  15  22
ATOM     18  C   UNL     1      -0.404   3.422   5.197  0.00  0.00    +0.044 C 
ATOM     19  C   UNL     1      -0.381   2.248   4.252  0.00  0.00    -0.050 A 
ATOM     20  C   UNL     1      -0.195   2.455   2.898  0.00  0.00    +0.005 A 
ATOM     21  C   UNL     1      -0.174   1.379   2.030  0.00  0.00    +0.027 A 
ATOM     22  C   UNL     1      -0.339   0.096   2.517  0.00  0.00    +0.090 A 
ATOM     23  C   UNL     1      -0.524  -0.111   3.871  0.00  0.00    +0.027 A 
ATOM     24  C   UNL     1      -0.541   0.965   4.739  0.00  0.00    +0.005 A 
ENDBRANCH  15  22
ENDBRANCH  14  15
ENDBRANCH  10  14
ENDBRANCH   1  11
BRANCH   1  25
ATOM     25  N   UNL     1       2.340  -5.551   4.248  0.00  0.00    -0.277 N 
ATOM     26  C   UNL     1       2.981  -6.172   3.238  0.00  0.00    +0.255 C 
ATOM     27  O   UNL     1       3.441  -5.521   2.319  0.00  0.00    -0.270 OA
BRANCH  26  28
ATOM     28  C   UNL     1       3.124  -7.637   3.247  0.00  0.00    +0.119 A 
ATOM     29  C   UNL     1       2.141  -8.447   2.661  0.00  0.00    +0.133 A 
ATOM     30  C   UNL     1       2.286  -9.825   2.675  0.00  0.00    +0.046 A 
ATOM     31  C   UNL     1       3.396 -10.402   3.263  0.00  0.00    +0.007 A 
ATOM     32  C   UNL     1       4.371  -9.613   3.845  0.00  0.00    +0.046 A 
ATOM     33  C   UNL     1       4.249  -8.233   3.837  0.00  0.00    +0.133 A 
BRANCH  33  34
ATOM     34  O   UNL     1       5.210  -7.461   4.403  0.00  0.00    -0.506 OA
ATOM     35  H   UNL     1       5.064  -7.274   5.340  0.00  0.00    +0.292 HD
ENDBRANCH  33  34
BRANCH  29  36
ATOM     36  O   UNL     1       1.051  -7.883   2.083  0.00  0.00    -0.506 OA
ATOM     37  H   UNL     1       1.163  -7.682   1.144  0.00  0.00    +0.292 HD
ENDBRANCH  29  36
ENDBRANCH  26  28
BRANCH  25  38
ATOM     38  C   UNL     1       1.727  -6.339   5.321  0.00  0.00    +0.030 C 
ATOM     39  C   UNL     1       0.970  -5.408   6.270  0.00  0.00    +0.031 C 
ATOM     40  C   UNL     1       0.753  -7.353   4.717  0.00  0.00    +0.031 C 
ATOM     41  C   UNL     1       2.818  -7.080   6.096  0.00  0.00    +0.031 C 
ENDBRANCH  25  38
ENDBRANCH   1  25
TORSDOF 11
