REMARK  Name = ZINC05664819
REMARK  14 active torsions:
REMARK  status: ('A' for Active; 'I' for Inactive)
REMARK    1  A    between atoms: C_1  and  C_2
REMARK    2  A    between atoms: C_3  and  O_35
REMARK    3  A    between atoms: C_9  and  O_13
REMARK    4  A    between atoms: C_11  and  O_12
REMARK    5  A    between atoms: C_16  and  O_34
REMARK    6  A    between atoms: C_18  and  C_21
REMARK    7  A    between atoms: C_21  and  C_23
REMARK    8  A    between atoms: C_21  and  O_32
REMARK    9  A    between atoms: C_23  and  C_25
REMARK   10  A    between atoms: C_25  and  C_27
REMARK   11  A    between atoms: C_25  and  O_31
REMARK   12  A    between atoms: C_27  and  C_29
REMARK   13  A    between atoms: C_27  and  O_30
REMARK   14  A    between atoms: O_32  and  C_33
REMARK                            x       y       z     vdW  Elec       q    Type
REMARK                         _______ _______ _______ _____ _____    ______ ____
ROOT
ATOM      1  C   UNL     1       0.592   1.750   0.352  0.00  0.00    +0.051 C 
ATOM      2  C   UNL     1       0.536   0.248   0.236  0.00  0.00    +0.033 A 
ATOM      3  C   UNL     1       0.634  -0.352  -1.021  0.00  0.00    +0.124 A 
ATOM      4  C   UNL     1       0.585  -1.723  -1.154  0.00  0.00    +0.054 A 
ATOM      5  C   UNL     1       0.435  -2.531  -0.018  0.00  0.00    -0.007 A 
ATOM      6  C   UNL     1       0.378  -3.934  -0.132  0.00  0.00    +0.013 A 
ATOM      7  C   UNL     1       0.233  -4.715   0.971  0.00  0.00    -0.032 A 
ATOM      8  C   UNL     1       0.142  -4.125   2.248  0.00  0.00    +0.065 A 
ATOM      9  C   UNL     1       0.190  -2.735   2.398  0.00  0.00    +0.139 A 
ATOM     10  C   UNL     1       0.337  -1.923   1.259  0.00  0.00    +0.066 A 
ATOM     11  C   UNL     1       0.394  -0.519   1.370  0.00  0.00    +0.134 A 
ATOM     12  C   UNL     1      -0.001  -4.970   3.440  0.00  0.00    +0.195 C 
ATOM     13  O   UNL     1       0.131  -4.509   4.555  0.00  0.00    -0.289 OA
ATOM     14  C   UNL     1      -0.317  -6.436   3.232  0.00  0.00    +0.192 C 
ATOM     15  C   UNL     1       0.561  -6.935   2.077  0.00  0.00    +0.066 C 
ATOM     16  C   UNL     1       0.169  -6.209   0.793  0.00  0.00    +0.045 C 
ENDROOT
BRANCH  11  17
ATOM     17  O   UNL     1       0.305   0.073   2.587  0.00  0.00    -0.506 OA
ATOM     18  H   UNL     1      -0.599   0.284   2.857  0.00  0.00    +0.292 HD
ENDBRANCH  11  17
BRANCH   9  19
ATOM     19  O   UNL     1       0.096  -2.176   3.627  0.00  0.00    -0.505 OA
ATOM     20  H   UNL     1       0.947  -2.054   4.070  0.00  0.00    +0.292 HD
ENDBRANCH   9  19
BRANCH  14  21
ATOM     21  O   UNL     1      -1.698  -6.592   2.897  0.00  0.00    -0.384 OA
ATOM     22  H   UNL     1      -2.306  -6.266   3.575  0.00  0.00    +0.210 HD
ENDBRANCH  14  21
BRANCH   3  23
ATOM     23  O   UNL     1       0.779   0.425  -2.125  0.00  0.00    -0.506 OA
ATOM     24  H   UNL     1       1.700   0.610  -2.358  0.00  0.00    +0.292 HD
ENDBRANCH   3  23
BRANCH  15  25
ATOM     25  C   UNL     1       2.031  -6.655   2.394  0.00  0.00    +0.193 C 
BRANCH  25  26
ATOM     26  C   UNL     1       2.901  -7.275   1.333  0.00  0.00    +0.193 C 
ATOM     27  O   UNL     1       3.432  -6.577   0.502  0.00  0.00    -0.292 OA
BRANCH  26  28
ATOM     28  C   UNL     1       3.110  -8.768   1.306  0.00  0.00    +0.211 C 
BRANCH  28  29
ATOM     29  C   UNL     1       4.062  -9.169   2.435  0.00  0.00    +0.147 C 
ATOM     30  C   UNL     1       4.372 -10.664   2.333  0.00  0.00    +0.041 C 
BRANCH  29  31
ATOM     31  O   UNL     1       5.275  -8.422   2.325  0.00  0.00    -0.389 OA
ATOM     32  H   UNL     1       5.746  -8.559   1.492  0.00  0.00    +0.210 HD
ENDBRANCH  29  31
ENDBRANCH  28  29
BRANCH  28  33
ATOM     33  O   UNL     1       3.675  -9.148   0.050  0.00  0.00    -0.382 OA
ATOM     34  H   UNL     1       4.530  -8.737  -0.138  0.00  0.00    +0.210 HD
ENDBRANCH  28  33
ENDBRANCH  26  28
ENDBRANCH  25  26
BRANCH  25  35
ATOM     35  O   UNL     1       2.250  -5.243   2.426  0.00  0.00    -0.372 OA
ATOM     36  C   UNL     1       3.291  -4.837   3.316  0.00  0.00    +0.194 C 
ENDBRANCH  25  35
ENDBRANCH  15  25
TORSDOF 11
