REMARK  Name = ZINC14156522
REMARK  12 active torsions:
REMARK  status: ('A' for Active; 'I' for Inactive)
REMARK    1  A    between atoms: C_1  and  C_2
REMARK    2  A    between atoms: C_4  and  C_33
REMARK    3  A    between atoms: N_10  and  C_11
REMARK    4  A    between atoms: C_11  and  N_13
REMARK    5  A    between atoms: N_13  and  C_14
REMARK    6  A    between atoms: C_17  and  O_22
REMARK    7  A    between atoms: C_19  and  O_20
REMARK    8  A    between atoms: O_20  and  C_21
REMARK    9  A    between atoms: O_22  and  C_23
REMARK   10  A    between atoms: N_24  and  C_25
REMARK   11  A    between atoms: C_25  and  C_26
REMARK   12  A    between atoms: C_26  and  C_27
REMARK                            x       y       z     vdW  Elec       q    Type
REMARK                         _______ _______ _______ _____ _____    ______ ____
ROOT
ATOM      1  C   UNL     1       6.947   1.751  -0.048  0.00  0.00    +0.066 C 
ATOM      2  C   UNL     1       7.101   0.253  -0.091  0.00  0.00    +0.044 A 
ATOM      3  C   UNL     1       8.361  -0.321  -0.165  0.00  0.00    +0.046 A 
ATOM      4  C   UNL     1       8.458  -1.703  -0.202  0.00  0.00    +0.044 A 
ATOM      5  N   UNL     1       7.352  -2.429  -0.164  0.00  0.00    -0.217 NA
ATOM      6  C   UNL     1       6.164  -1.849  -0.093  0.00  0.00    +0.231 A 
ATOM      7  N   UNL     1       6.036  -0.531  -0.061  0.00  0.00    -0.217 NA
ATOM      8  N   UNL     1       5.024  -2.641  -0.055  0.00  0.00    -0.297 N 
ATOM      9  C   UNL     1       3.788  -2.058   0.018  0.00  0.00    +0.195 C 
ATOM     10  N   UNL     1       3.679  -0.742   0.054  0.00  0.00    -0.159 NA
ATOM     11  N   UNL     1       2.667  -2.837   0.055  0.00  0.00    -0.357 N 
ATOM     12  C   UNL     1       9.806  -2.372  -0.282  0.00  0.00    +0.066 C 
ATOM     13  H   UNL     1       5.115  -3.737  -0.085  0.00  0.00    +0.171 HD
ATOM     14  H   UNL     1       1.672  -2.370   0.031  0.00  0.00    +0.162 HD
ENDROOT
BRANCH  10  15
ATOM     15  C   UNL     1       2.468  -0.171   0.130  0.00  0.00    +0.162 C 
ATOM     16  S   UNL     1       1.486  -0.426   1.509  0.00  0.00    -0.016 S 
BRANCH  15  17
ATOM     17  N   UNL     1       2.023   0.603  -0.880  0.00  0.00    -0.292 N 
ATOM     18  H   UNL     1       2.633   0.728  -1.787  0.00  0.00    +0.154 HD
BRANCH  17  19
ATOM     19  C   UNL     1       0.783   1.250  -0.775  0.00  0.00    +0.075 A 
ATOM     20  C   UNL     1       0.386   1.798   0.436  0.00  0.00    +0.030 A 
ATOM     21  C   UNL     1      -0.839   2.429   0.541  0.00  0.00    +0.047 A 
ATOM     22  C   UNL     1      -1.669   2.526  -0.566  0.00  0.00    +0.124 A 
ATOM     23  C   UNL     1      -1.277   1.980  -1.779  0.00  0.00    +0.093 A 
ATOM     24  C   UNL     1      -0.052   1.341  -1.886  0.00  0.00    +0.145 A 
BRANCH  24  25
ATOM     25  O   UNL     1       0.334   0.805  -3.075  0.00  0.00    -0.493 OA
ATOM     26  C   UNL     1      -0.572   0.936  -4.171  0.00  0.00    +0.277 C 
ENDBRANCH  24  25
BRANCH  22  27
ATOM     27  O   UNL     1      -2.871   3.152  -0.461  0.00  0.00    -0.495 OA
ATOM     28  C   UNL     1      -3.212   3.692   0.818  0.00  0.00    +0.277 C 
ENDBRANCH  22  27
ENDBRANCH  17  19
ENDBRANCH  15  17
ENDBRANCH  10  15
BRANCH  11  29
ATOM     29  C   UNL     1       2.791  -4.295   0.127  0.00  0.00    +0.121 C 
BRANCH  29  30
ATOM     30  C   UNL     1       1.397  -4.925   0.155  0.00  0.00    +0.075 C 
BRANCH  30  31
ATOM     31  C   UNL     1       1.524  -6.424   0.229  0.00  0.00    +0.035 A 
ATOM     32  C   UNL     1       0.966  -7.221   1.161  0.00  0.00    +0.105 A 
ATOM     33  N   UNL     1       1.332  -8.504   0.855  0.00  0.00    -0.352 N 
ATOM     34  H   UNL     1       0.990  -9.338   1.486  0.00  0.00    +0.166 HD
ATOM     35  C   UNL     1       2.101  -8.447  -0.254  0.00  0.00    +0.171 A 
ATOM     36  N   UNL     1       2.207  -7.200  -0.625  0.00  0.00    -0.350 N 
ATOM     37  H   UNL     1       2.739  -6.747  -1.475  0.00  0.00    +0.166 HD
ENDBRANCH  30  31
ENDBRANCH  29  30
ENDBRANCH  11  29
TORSDOF 8
