REMARK  Name = ZINC12329335
REMARK  6 active torsions:
REMARK  status: ('A' for Active; 'I' for Inactive)
REMARK    1  A    between atoms: C_1  and  C_2
REMARK    2  A    between atoms: C_8  and  O_31
REMARK    3  A    between atoms: C_17  and  C_18
REMARK    4  A    between atoms: C_17  and  N_59
REMARK    5  A    between atoms: C_18  and  C_20
REMARK    6  A    between atoms: C_18  and  O_30
REMARK                            x       y       z     vdW  Elec       q    Type
REMARK                         _______ _______ _______ _____ _____    ______ ____
ROOT
ATOM      1  C   UNL     1       6.702  -8.229  -7.136  0.00  0.00    +0.044 C 
ATOM      2  C   UNL     1       6.504  -7.405  -5.889  0.00  0.00    -0.050 A 
ATOM      3  C   UNL     1       5.250  -7.313  -5.313  0.00  0.00    +0.007 A 
ATOM      4  C   UNL     1       5.070  -6.562  -4.170  0.00  0.00    +0.046 A 
ATOM      5  C   UNL     1       6.148  -5.896  -3.593  0.00  0.00    +0.127 A 
ATOM      6  C   UNL     1       7.400  -5.985  -4.175  0.00  0.00    +0.023 A 
ATOM      7  C   UNL     1       7.574  -6.744  -5.321  0.00  0.00    +0.013 A 
ATOM      8  C   UNL     1       8.589  -5.263  -3.595  0.00  0.00    +0.152 C 
ATOM      9  C   UNL     1       8.297  -4.865  -2.147  0.00  0.00    +0.084 C 
ATOM     10  C   UNL     1       6.915  -4.205  -2.096  0.00  0.00    +0.110 C 
ATOM     11  O   UNL     1       5.933  -5.172  -2.464  0.00  0.00    -0.485 OA
ATOM     12  C   UNL     1       6.874  -3.027  -3.072  0.00  0.00    +0.029 C 
ATOM     13  C   UNL     1       5.514  -2.333  -2.970  0.00  0.00    -0.075 C 
ATOM     14  C   UNL     1       5.289  -2.985  -0.647  0.00  0.00    -0.075 C 
ATOM     15  C   UNL     1       6.642  -3.701  -0.678  0.00  0.00    +0.029 C 
ATOM     16  N   UNL     1       5.328  -1.845  -1.587  0.00  0.00    +0.382 N 
ATOM     17  H   UNL     1       6.117  -1.236  -1.340  0.00  0.00    -0.082 HD
ENDROOT
BRANCH   8  18
ATOM     18  O   UNL     1       9.730  -6.123  -3.630  0.00  0.00    -0.387 OA
ATOM     19  H   UNL     1       9.977  -6.413  -4.519  0.00  0.00    +0.210 HD
ENDBRANCH   8  18
BRANCH  16  20
ATOM     20  C   UNL     1       4.074  -1.069  -1.490  0.00  0.00    -0.042 C 
BRANCH  20  21
ATOM     21  C   UNL     1       4.232   0.224  -2.294  0.00  0.00    +0.128 C 
BRANCH  21  22
ATOM     22  C   UNL     1       2.975   1.046  -2.175  0.00  0.00    -0.017 A 
ATOM     23  C   UNL     1       2.805   1.894  -1.096  0.00  0.00    +0.010 A 
ATOM     24  C   UNL     1       1.653   2.650  -0.983  0.00  0.00    +0.050 A 
ATOM     25  C   UNL     1       0.665   2.559  -1.951  0.00  0.00    +0.162 A 
ATOM     26  C   UNL     1       0.837   1.708  -3.037  0.00  0.00    +0.162 A 
ATOM     27  C   UNL     1       1.994   0.952  -3.144  0.00  0.00    +0.055 A 
ATOM     28  O   UNL     1      -0.117   1.610  -4.003  0.00  0.00    -0.485 OA
ATOM     29  C   UNL     1      -1.422   2.099  -3.671  0.00  0.00    +0.270 C 
ATOM     30  C   UNL     1      -1.265   3.470  -3.000  0.00  0.00    +0.270 C 
ATOM     31  O   UNL     1      -0.468   3.303  -1.822  0.00  0.00    -0.485 OA
ENDBRANCH  21  22
BRANCH  21  32
ATOM     32  O   UNL     1       5.340   0.969  -1.785  0.00  0.00    -0.389 OA
ATOM     33  H   UNL     1       5.250   1.220  -0.855  0.00  0.00    +0.210 HD
ENDBRANCH  21  32
ENDBRANCH  20  21
ENDBRANCH  16  20
TORSDOF 5
