REMARK  Name = ZINC63899699
REMARK  9 active torsions:
REMARK  status: ('A' for Active; 'I' for Inactive)
REMARK    1  A    between atoms: C_1  and  O_2
REMARK    2  A    between atoms: O_2  and  C_3
REMARK    3  A    between atoms: C_8  and  C_15
REMARK    4  A    between atoms: C_15  and  C_16
REMARK    5  A    between atoms: N_18  and  C_19
REMARK    6  A    between atoms: C_19  and  C_20
REMARK    7  A    between atoms: C_20  and  C_21
REMARK    8  A    between atoms: C_24  and  S_27
REMARK    9  A    between atoms: S_27  and  N_30
REMARK                            x       y       z     vdW  Elec       q    Type
REMARK                         _______ _______ _______ _____ _____    ______ ____
ROOT
ATOM      1  C   UNL     1       1.943  -5.941   5.602  0.00  0.00    +0.214 C 
ATOM      2  O   UNL     1       2.518  -6.570   4.739  0.00  0.00    -0.276 OA
ATOM      3  N   UNL     1       1.323  -6.589   6.607  0.00  0.00    -0.315 N 
ATOM      4  H   UNL     1       0.863  -6.086   7.298  0.00  0.00    +0.149 HD
ENDROOT
BRANCH   1   5
ATOM      5  C   UNL     1       1.922  -4.435   5.549  0.00  0.00    +0.112 C 
BRANCH   5  11
ATOM      6  C   UNL     1       7.014  -1.222   4.942  0.00  0.00    +0.122 A 
ATOM      7  C   UNL     1       7.428  -2.540   5.189  0.00  0.00    +0.046 A 
ATOM      8  C   UNL     1       6.555  -3.574   5.134  0.00  0.00    +0.013 A 
ATOM      9  C   UNL     1       5.152  -3.304   4.810  0.00  0.00    -0.007 A 
ATOM     10  C   UNL     1       4.246  -4.317   4.746  0.00  0.00    -0.004 C 
ATOM     11  C   UNL     1       2.815  -3.952   4.404  0.00  0.00    +0.107 C 
ATOM     12  C   UNL     1       2.508  -2.491   4.162  0.00  0.00    +0.225 C 
ATOM     13  O   UNL     1       1.376  -2.143   3.886  0.00  0.00    -0.275 OA
ATOM     14  N   UNL     1       3.475  -1.595   4.253  0.00  0.00    -0.284 N 
ATOM     15  C   UNL     1       4.737  -1.912   4.554  0.00  0.00    +0.044 A 
ATOM     16  C   UNL     1       5.708  -0.906   4.638  0.00  0.00    +0.069 A 
ATOM     17  H   UNL     1       3.257  -0.663   4.095  0.00  0.00    +0.155 HD
BRANCH   6  19
ATOM     18  C   UNL     1       9.271  -0.598   5.328  0.00  0.00    +0.277 C 
ATOM     19  O   UNL     1       7.929  -0.226   5.010  0.00  0.00    -0.495 OA
ENDBRANCH   6  19
ENDBRANCH   5  11
ENDBRANCH   1   5
BRANCH   3  20
ATOM     20  C   UNL     1       1.343  -8.053   6.659  0.00  0.00    +0.109 C 
BRANCH  20  21
ATOM     21  C   UNL     1       0.572  -8.531   7.891  0.00  0.00    +0.054 C 
BRANCH  21  22
ATOM     22  C   UNL     1       0.593 -10.037   7.943  0.00  0.00    -0.046 A 
ATOM     23  C   UNL     1      -0.402 -10.764   7.317  0.00  0.00    +0.005 A 
ATOM     24  C   UNL     1      -0.383 -12.146   7.365  0.00  0.00    +0.029 A 
ATOM     25  C   UNL     1       0.632 -12.800   8.039  0.00  0.00    +0.105 A 
ATOM     26  C   UNL     1       1.627 -12.072   8.664  0.00  0.00    +0.029 A 
ATOM     27  C   UNL     1       1.611 -10.691   8.612  0.00  0.00    +0.005 A 
BRANCH  25  28
ATOM     28  S   UNL     1       0.656 -14.560   8.101  0.00  0.00    +0.056 S 
ATOM     29  O   UNL     1       1.408 -14.916   9.253  0.00  0.00    -0.153 OA
ATOM     30  O   UNL     1      -0.683 -14.992   7.903  0.00  0.00    -0.153 OA
BRANCH  28  31
ATOM     31  N   UNL     1       1.521 -15.085   6.790  0.00  0.00    -0.204 NA
ATOM     32  H   UNL     1       1.899 -14.442   6.170  0.00  0.00    +0.144 HD
ATOM     33  H   UNL     1       1.651 -16.035   6.644  0.00  0.00    +0.144 HD
ENDBRANCH  28  31
ENDBRANCH  25  28
ENDBRANCH  21  22
ENDBRANCH  20  21
ENDBRANCH   3  20
TORSDOF 8
