REMARK  Name = ZINC31166055
REMARK  12 active torsions:
REMARK  status: ('A' for Active; 'I' for Inactive)
REMARK    1  A    between atoms: C_1  and  C_2
REMARK    2  A    between atoms: C_2  and  O_4
REMARK    3  A    between atoms: O_4  and  C_5
REMARK    4  A    between atoms: C_5  and  C_6
REMARK    5  A    between atoms: C_8  and  O_36
REMARK    6  A    between atoms: C_14  and  O_19
REMARK    7  A    between atoms: O_19  and  C_20
REMARK    8  A    between atoms: C_22  and  O_35
REMARK    9  A    between atoms: C_24  and  O_34
REMARK   10  A    between atoms: C_26  and  O_33
REMARK   11  A    between atoms: C_28  and  C_31
REMARK   12  A    between atoms: C_31  and  O_32
REMARK                            x       y       z     vdW  Elec       q    Type
REMARK                         _______ _______ _______ _____ _____    ______ ____
ROOT
ATOM      1  C   UNL     1       0.015  -2.665  -2.493  0.00  0.00    -0.024 C 
ATOM      2  C   UNL     1       0.000  -1.948  -3.585  0.00  0.00    +0.007 C 
ATOM      3  C   UNL     1       0.006  -2.832  -4.813  0.00  0.00    +0.145 C 
ATOM      4  C   UNL     1       0.467  -4.208  -4.286  0.00  0.00    +0.060 C 
ATOM      5  C   UNL     1       0.032  -4.146  -2.819  0.00  0.00    +0.096 C 
ATOM      6  C   UNL     1      -1.364  -4.710  -2.615  0.00  0.00    +0.317 C 
ATOM      7  O   UNL     1      -1.573  -5.930  -3.299  0.00  0.00    -0.471 OA
ATOM      8  C   UNL     1      -1.111  -6.079  -4.555  0.00  0.00    +0.186 C 
ATOM      9  C   UNL     1      -0.165  -5.313  -5.059  0.00  0.00    +0.018 C 
ENDROOT
BRANCH   3  10
ATOM     10  O   UNL     1       0.926  -2.332  -5.786  0.00  0.00    -0.387 OA
ATOM     11  H   UNL     1       0.714  -1.445  -6.108  0.00  0.00    +0.210 HD
ENDBRANCH   3  10
BRANCH   1  12
ATOM     12  C   UNL     1       0.020  -2.096  -1.097  0.00  0.00    +0.263 C 
BRANCH  12  13
ATOM     13  O   UNL     1       0.000  -0.669  -1.164  0.00  0.00    -0.460 OA
BRANCH  13  15
ATOM     14  C   UNL     1      -0.018   1.503   0.010  0.00  0.00    +0.136 C 
ATOM     15  C   UNL     1       0.002  -0.004   0.002  0.00  0.00    +0.304 C 
ATOM     16  O   UNL     1       0.020  -0.614   1.045  0.00  0.00    -0.251 OA
ENDBRANCH  13  15
ENDBRANCH  12  13
ENDBRANCH   1  12
BRANCH   6  17
ATOM     17  O   UNL     1      -1.571  -4.928  -1.218  0.00  0.00    -0.309 OA
BRANCH  17  18
ATOM     18  C   UNL     1      -2.895  -5.353  -0.886  0.00  0.00    +0.286 C 
ATOM     19  C   UNL     1      -3.078  -5.315   0.633  0.00  0.00    +0.201 C 
ATOM     20  C   UNL     1      -4.477  -5.830   0.984  0.00  0.00    +0.179 C 
ATOM     21  C   UNL     1      -4.648  -7.241   0.413  0.00  0.00    +0.177 C 
ATOM     22  C   UNL     1      -4.404  -7.205  -1.097  0.00  0.00    +0.178 C 
ATOM     23  O   UNL     1      -3.098  -6.688  -1.356  0.00  0.00    -0.340 OA
BRANCH  21  24
ATOM     24  O   UNL     1      -3.707  -8.123   1.029  0.00  0.00    -0.386 OA
ATOM     25  H   UNL     1      -3.801  -8.190   1.989  0.00  0.00    +0.210 HD
ENDBRANCH  21  24
BRANCH  20  26
ATOM     26  O   UNL     1      -4.631  -5.865   2.404  0.00  0.00    -0.386 OA
ATOM     27  H   UNL     1      -4.529  -5.004   2.833  0.00  0.00    +0.210 HD
ENDBRANCH  20  26
BRANCH  19  28
ATOM     28  O   UNL     1      -2.931  -3.972   1.098  0.00  0.00    -0.384 OA
ATOM     29  H   UNL     1      -2.068  -3.581   0.905  0.00  0.00    +0.210 HD
ENDBRANCH  19  28
BRANCH  22  30
ATOM     30  C   UNL     1      -4.515  -8.621  -1.666  0.00  0.00    +0.190 C 
BRANCH  30  31
ATOM     31  O   UNL     1      -4.403  -8.573  -3.090  0.00  0.00    -0.392 OA
ATOM     32  H   UNL     1      -4.464  -9.437  -3.519  0.00  0.00    +0.210 HD
ENDBRANCH  30  31
ENDBRANCH  22  30
ENDBRANCH  17  18
ENDBRANCH   6  17
TORSDOF 11
