REMARK  Name = ZINC37294475
REMARK  8 active torsions:
REMARK  status: ('A' for Active; 'I' for Inactive)
REMARK    1  A    between atoms: C_1  and  C_2
REMARK    2  A    between atoms: C_2  and  C_3
REMARK    3  A    between atoms: C_9  and  N_11
REMARK    4  A    between atoms: N_11  and  C_12
REMARK    5  A    between atoms: C_12  and  C_14
REMARK    6  A    between atoms: C_12  and  C_15
REMARK    7  A    between atoms: C_18  and  S_21
REMARK    8  A    between atoms: S_21  and  N_24
REMARK                            x       y       z     vdW  Elec       q    Type
REMARK                         _______ _______ _______ _____ _____    ______ ____
ROOT
ATOM      1  C   UNL     1      -0.869  -3.896  -1.324  0.00  0.00    -0.044 C 
ATOM      2  C   UNL     1      -0.350  -4.391   0.027  0.00  0.00    -0.009 C 
ENDROOT
BRANCH   1   3
ATOM      3  C   UNL     1      -2.305  -4.319  -1.496  0.00  0.00    -0.062 A 
ATOM      4  C   UNL     1      -3.315  -3.598  -0.889  0.00  0.00    +0.004 A 
ATOM      5  C   UNL     1      -4.633  -3.986  -1.047  0.00  0.00    +0.029 A 
ATOM      6  C   UNL     1      -4.939  -5.095  -1.813  0.00  0.00    +0.105 A 
ATOM      7  C   UNL     1      -3.929  -5.816  -2.421  0.00  0.00    +0.029 A 
ATOM      8  C   UNL     1      -2.612  -5.426  -2.266  0.00  0.00    +0.004 A 
BRANCH   6   9
ATOM      9  S   UNL     1      -6.618  -5.591  -2.013  0.00  0.00    +0.056 S 
ATOM     10  O   UNL     1      -6.598  -6.976  -2.327  0.00  0.00    -0.153 OA
ATOM     11  O   UNL     1      -7.330  -5.072  -0.898  0.00  0.00    -0.153 OA
BRANCH   9  12
ATOM     12  N   UNL     1      -7.203  -4.810  -3.352  0.00  0.00    -0.204 NA
ATOM     13  H   UNL     1      -6.628  -4.212  -3.854  0.00  0.00    +0.144 HD
ATOM     14  H   UNL     1      -8.120  -4.952  -3.634  0.00  0.00    +0.144 HD
ENDBRANCH   9  12
ENDBRANCH   6   9
ENDBRANCH   1   3
BRANCH   1  15
ATOM     15  N   UNL     1      -0.780  -2.431  -1.376  0.00  0.00    +0.385 N 
ATOM     16  H   UNL     1      -1.271  -2.036  -0.588  0.00  0.00    -0.085 HD
ATOM     17  H   UNL     1      -1.198  -2.099  -2.233  0.00  0.00    -0.085 HD
BRANCH  15  23
ATOM     18  C   UNL     1       0.718  -0.497  -1.257  0.00  0.00    -0.025 C 
ATOM     19  C   UNL     1       2.187  -0.073  -1.207  0.00  0.00    +0.002 C 
ATOM     20  C   UNL     1       2.904  -0.566  -2.466  0.00  0.00    +0.000 C 
ATOM     21  C   UNL     1       2.816  -2.092  -2.538  0.00  0.00    -0.002 C 
ATOM     22  C   UNL     1       1.347  -2.517  -2.587  0.00  0.00    -0.015 C 
ATOM     23  C   UNL     1       0.630  -2.023  -1.329  0.00  0.00    -0.068 C 
BRANCH  18  25
ATOM     24  C   UNL     1      -0.019   1.526   0.010  0.00  0.00    +0.004 C 
ATOM     25  C   UNL     1       0.002  -0.004   0.002  0.00  0.00    -0.002 C 
ENDBRANCH  18  25
ENDBRANCH  15  23
ENDBRANCH   1  15
TORSDOF 6
