REMARK  Name = ZINC59406634
REMARK  5 active torsions:
REMARK  status: ('A' for Active; 'I' for Inactive)
REMARK    1  A    between atoms: C_1  and  S_2
REMARK    2  A    between atoms: S_2  and  C_3
REMARK    3  A    between atoms: C_16  and  C_18
REMARK    4  A    between atoms: C_28  and  S_30
REMARK    5  A    between atoms: S_30  and  C_31
REMARK                            x       y       z     vdW  Elec       q    Type
REMARK                         _______ _______ _______ _____ _____    ______ ____
ROOT
ATOM      1  C   UNL     1       0.941  -0.307  -1.464  0.00  0.00    +0.172 A 
ATOM      2  N   UNL     1       1.088  -1.627  -1.766  0.00  0.00    -0.302 N 
ATOM      3  H   UNL     1       0.746  -2.303  -1.159  0.00  0.00    +0.171 HD
ATOM      4  C   UNL     1       1.709  -2.000  -2.911  0.00  0.00    +0.260 A 
ATOM      5  O   UNL     1       1.856  -3.177  -3.199  0.00  0.00    -0.267 OA
ATOM      6  C   UNL     1       2.173  -0.989  -3.746  0.00  0.00    +0.089 A 
ATOM      7  C   UNL     1       1.996   0.327  -3.403  0.00  0.00    +0.229 A 
ATOM      8  N   UNL     1       1.381   0.646  -2.267  0.00  0.00    -0.189 NA
ATOM      9  O   UNL     1       2.461   1.250  -4.280  0.00  0.00    -0.446 OA
ATOM     10  C   UNL     1       3.839   1.548  -4.250  0.00  0.00    +0.331 C 
ATOM     11  C   UNL     1       4.708   0.355  -4.556  0.00  0.00    +0.074 C 
ATOM     12  C   UNL     1       4.336  -0.874  -4.880  0.00  0.00    +0.000 C 
ATOM     13  C   UNL     1       2.887  -1.259  -5.051  0.00  0.00    +0.083 C 
ATOM     14  C   UNL     1       6.171   0.606  -4.388  0.00  0.00    +0.251 C 
ATOM     15  O   UNL     1       7.005   0.057  -5.081  0.00  0.00    -0.270 OA
ATOM     16  N   UNL     1       6.506   1.484  -3.414  0.00  0.00    -0.261 N 
ATOM     17  C   UNL     1       5.542   2.118  -2.666  0.00  0.00    +0.159 C 
ATOM     18  N   UNL     1       4.288   2.141  -2.997  0.00  0.00    -0.216 NA
ATOM     19  H   UNL     1       7.442   1.669  -3.240  0.00  0.00    +0.157 HD
ENDROOT
BRANCH  13  20
ATOM     20  C   UNL     1       2.268  -0.436  -6.151  0.00  0.00    -0.036 A 
ATOM     21  C   UNL     1       3.065   0.104  -7.143  0.00  0.00    +0.005 A 
ATOM     22  C   UNL     1       2.497   0.859  -8.152  0.00  0.00    +0.015 A 
ATOM     23  C   UNL     1       1.131   1.075  -8.169  0.00  0.00    +0.018 A 
ATOM     24  C   UNL     1       0.334   0.535  -7.176  0.00  0.00    +0.015 A 
ATOM     25  C   UNL     1       0.901  -0.224  -6.170  0.00  0.00    +0.005 A 
ATOM     26 BR   UNL     1       0.354   2.109  -9.548  0.00  0.00    -0.050 Br
ENDBRANCH  13  20
BRANCH   1  28
ATOM     27  C   UNL     1       0.156   1.956   0.021  0.00  0.00    +0.093 C 
ATOM     28  S   UNL     1       0.134   0.142   0.037  0.00  0.00    -0.091 S 
ENDBRANCH   1  28
BRANCH  17  29
ATOM     29  S   UNL     1       6.032   2.924  -1.177  0.00  0.00    -0.094 S 
ATOM     30  C   UNL     1       4.488   3.612  -0.521  0.00  0.00    +0.093 C 
ENDBRANCH  17  29
TORSDOF 3
