REMARK  Name = ZINC12535968
REMARK  12 active torsions:
REMARK  status: ('A' for Active; 'I' for Inactive)
REMARK    1  A    between atoms: C_1  and  C_2
REMARK    2  A    between atoms: C_6  and  N_8
REMARK    3  A    between atoms: N_8  and  S_9
REMARK    4  A    between atoms: S_9  and  C_12
REMARK    5  A    between atoms: C_15  and  C_36
REMARK    6  A    between atoms: C_16  and  C_18
REMARK    7  A    between atoms: N_20  and  C_21
REMARK    8  A    between atoms: C_21  and  C_22
REMARK    9  A    between atoms: C_22  and  C_24
REMARK   10  A    between atoms: C_22  and  N_69
REMARK   11  A    between atoms: C_29  and  O_30
REMARK   12  A    between atoms: O_30  and  C_31
REMARK                            x       y       z     vdW  Elec       q    Type
REMARK                         _______ _______ _______ _____ _____    ______ ____
ROOT
ATOM      1  C   UNL     1       4.496   5.688   3.368  0.00  0.00    +0.244 C 
ATOM      2  O   UNL     1       3.735   5.390   4.267  0.00  0.00    -0.270 OA
ATOM      3  N   UNL     1       4.398   5.076   2.171  0.00  0.00    -0.313 N 
ATOM      4  H   UNL     1       5.005   5.314   1.453  0.00  0.00    +0.149 HD
ENDROOT
BRANCH   1   9
ATOM      5  C   UNL     1       7.422   7.972   2.796  0.00  0.00    +0.109 A 
ATOM      6  C   UNL     1       7.466   8.659   3.996  0.00  0.00    +0.029 A 
ATOM      7  C   UNL     1       6.548   8.382   4.993  0.00  0.00    +0.006 A 
ATOM      8  C   UNL     1       5.577   7.422   4.793  0.00  0.00    -0.038 A 
ATOM      9  C   UNL     1       5.530   6.722   3.587  0.00  0.00    +0.041 A 
ATOM     10  C   UNL     1       6.460   7.006   2.585  0.00  0.00    +0.042 A 
ATOM     11  C   UNL     1       4.573   7.126   5.877  0.00  0.00    +0.044 C 
BRANCH   5  12
ATOM     12  S   UNL     1       8.597   8.333   1.533  0.00  0.00    +0.072 S 
ATOM     13  O   UNL     1       9.731   8.893   2.181  0.00  0.00    -0.150 OA
ATOM     14  O   UNL     1       8.683   7.174   0.715  0.00  0.00    -0.150 OA
BRANCH  12  15
ATOM     15  N   UNL     1       7.951   9.530   0.590  0.00  0.00    -0.216 N 
ATOM     16  H   UNL     1       7.732   9.352  -0.338  0.00  0.00    +0.174 HD
BRANCH  15  22
ATOM     17  C   UNL     1       4.998  13.419   1.146  0.00  0.00    +0.044 C 
ATOM     18  C   UNL     1       6.298  12.707   1.417  0.00  0.00    -0.049 A 
ATOM     19  C   UNL     1       7.265  13.308   2.201  0.00  0.00    +0.003 A 
ATOM     20  C   UNL     1       8.459  12.658   2.451  0.00  0.00    +0.002 A 
ATOM     21  C   UNL     1       8.690  11.405   1.918  0.00  0.00    +0.024 A 
ATOM     22  C   UNL     1       7.721  10.797   1.131  0.00  0.00    +0.048 A 
ATOM     23  C   UNL     1       6.524  11.456   0.877  0.00  0.00    +0.027 A 
ENDBRANCH  15  22
ENDBRANCH  12  15
ENDBRANCH   5  12
ENDBRANCH   1   9
BRANCH   3  24
ATOM     24  C   UNL     1       3.373   4.052   1.954  0.00  0.00    +0.094 C 
BRANCH  24  25
ATOM     25  C   UNL     1       3.559   3.430   0.568  0.00  0.00    -0.017 C 
BRANCH  25  26
ATOM     26  C   UNL     1       4.895   2.736   0.504  0.00  0.00    -0.018 A 
ATOM     27  C   UNL     1       5.994   3.397  -0.008  0.00  0.00    +0.005 A 
ATOM     28  C   UNL     1       7.220   2.761  -0.067  0.00  0.00    +0.000 A 
ATOM     29  C   UNL     1       7.348   1.459   0.382  0.00  0.00    +0.004 A 
ATOM     30  C   UNL     1       6.253   0.795   0.900  0.00  0.00    +0.046 A 
ATOM     31  C   UNL     1       5.022   1.432   0.960  0.00  0.00    +0.122 A 
BRANCH  31  32
ATOM     32  O   UNL     1       3.942   0.779   1.465  0.00  0.00    -0.495 OA
ATOM     33  C   UNL     1       4.147  -0.561   1.916  0.00  0.00    +0.277 C 
ENDBRANCH  31  32
ENDBRANCH  25  26
BRANCH  25  38
ATOM     34  C   UNL     1       3.592   3.909  -1.819  0.00  0.00    -0.078 C 
ATOM     35  C   UNL     1       3.006   5.029  -2.714  0.00  0.00    -0.020 C 
ATOM     36  C   UNL     1       1.860   5.600  -1.847  0.00  0.00    -0.020 C 
ATOM     37  C   UNL     1       2.217   5.208  -0.401  0.00  0.00    -0.078 C 
ATOM     38  N   UNL     1       3.494   4.498  -0.474  0.00  0.00    +0.385 N 
ATOM     39  H   UNL     1       4.267   5.158  -0.328  0.00  0.00    -0.081 HD
ENDBRANCH  25  38
ENDBRANCH  24  25
ENDBRANCH   3  24
TORSDOF 9
