REMARK  Name = ZINC64600437
REMARK  9 active torsions:
REMARK  status: ('A' for Active; 'I' for Inactive)
REMARK    1  A    between atoms: C_1  and  O_2
REMARK    2  A    between atoms: O_2  and  C_3
REMARK    3  A    between atoms: C_7  and  C_12
REMARK    4  A    between atoms: C_12  and  C_13
REMARK    5  A    between atoms: C_13  and  N_14
REMARK    6  A    between atoms: C_15  and  C_17
REMARK    7  A    between atoms: C_17  and  C_18
REMARK    8  A    between atoms: C_18  and  N_19
REMARK    9  A    between atoms: C_20  and  O_31
REMARK                            x       y       z     vdW  Elec       q    Type
REMARK                         _______ _______ _______ _____ _____    ______ ____
ROOT
ATOM      1  N   UNL     1      -8.174  -1.964  -1.377  0.00  0.00    -0.315 N 
ATOM      2  C   UNL     1      -8.860  -1.889  -2.535  0.00  0.00    +0.215 C 
ATOM      3  O   UNL     1      -8.305  -2.130  -3.586  0.00  0.00    -0.276 OA
ATOM      4  H   UNL     1      -8.618  -1.771  -0.537  0.00  0.00    +0.149 HD
ENDROOT
BRANCH   1   5
ATOM      5  C   UNL     1      -6.757  -2.337  -1.388  0.00  0.00    +0.108 C 
BRANCH   5   6
ATOM      6  C   UNL     1      -6.221  -2.347   0.045  0.00  0.00    +0.052 C 
BRANCH   6  11
ATOM      7  C   UNL     1      -1.198  -0.636   0.010  0.00  0.00    +0.122 A 
ATOM      8  C   UNL     1      -2.372   0.141   0.020  0.00  0.00    +0.046 A 
ATOM      9  C   UNL     1      -3.597  -0.428   0.028  0.00  0.00    +0.013 A 
ATOM     10  C   UNL     1      -3.704  -1.893   0.026  0.00  0.00    -0.001 A 
ATOM     11  C   UNL     1      -4.764  -2.731   0.033  0.00  0.00    -0.040 C 
ATOM     12  C   UNL     1      -4.193  -4.131   0.027  0.00  0.00    +0.144 C 
ATOM     13  N   UNL     1      -2.735  -3.972   0.016  0.00  0.00    -0.380 N 
ATOM     14  C   UNL     1      -2.455  -2.689   0.016  0.00  0.00    +0.046 A 
ATOM     15  C   UNL     1      -1.220  -1.993   0.003  0.00  0.00    +0.071 A 
ATOM     16  H   UNL     1      -2.086  -4.693   0.010  0.00  0.00    +0.160 HD
BRANCH   7  18
ATOM     17  C   UNL     1      -0.017   1.425   0.010  0.00  0.00    +0.277 C 
ATOM     18  O   UNL     1       0.002  -0.004   0.002  0.00  0.00    -0.495 OA
ENDBRANCH   7  18
ENDBRANCH   6  11
ENDBRANCH   5   6
ENDBRANCH   1   5
BRANCH   2  19
ATOM     19  C   UNL     1     -10.318  -1.505  -2.523  0.00  0.00    +0.115 C 
BRANCH  19  20
ATOM     20  C   UNL     1     -10.854  -1.495  -3.956  0.00  0.00    +0.121 C 
BRANCH  20  21
ATOM     21  N   UNL     1     -12.270  -1.122  -3.945  0.00  0.00    -0.256 N 
ATOM     22  C   UNL     1     -13.287  -2.166  -3.822  0.00  0.00    +0.299 C 
ATOM     23  N   UNL     1     -14.467  -1.648  -3.120  0.00  0.00    -0.303 N 
ATOM     24  C   UNL     1     -14.951  -0.393  -3.472  0.00  0.00    +0.042 A 
ATOM     25  C   UNL     1     -16.292  -0.067  -3.362  0.00  0.00    +0.024 A 
ATOM     26  C   UNL     1     -16.721   1.194  -3.729  0.00  0.00    +0.002 A 
ATOM     27  C   UNL     1     -15.821   2.134  -4.207  0.00  0.00    +0.001 A 
ATOM     28  C   UNL     1     -14.482   1.825  -4.322  0.00  0.00    +0.015 A 
ATOM     29  C   UNL     1     -14.035   0.559  -3.954  0.00  0.00    +0.058 A 
ATOM     30  C   UNL     1     -12.613   0.179  -4.043  0.00  0.00    +0.251 C 
ATOM     31  O   UNL     1     -11.760   1.030  -4.206  0.00  0.00    -0.270 OA
ATOM     32  H   UNL     1     -14.900  -2.169  -2.425  0.00  0.00    +0.150 HD
BRANCH  22  33
ATOM     33  O   UNL     1     -13.671  -2.608  -5.125  0.00  0.00    -0.359 OA
ATOM     34  H   UNL     1     -14.344  -3.302  -5.122  0.00  0.00    +0.213 HD
ENDBRANCH  22  33
ENDBRANCH  20  21
ENDBRANCH  19  20
ENDBRANCH   2  19
TORSDOF 8
