REMARK  Name = ZINC46556773
REMARK  11 active torsions:
REMARK  status: ('A' for Active; 'I' for Inactive)
REMARK    1  A    between atoms: C_1  and  C_2
REMARK    2  A    between atoms: C_6  and  C_28
REMARK    3  A    between atoms: C_7  and  N_8
REMARK    4  A    between atoms: C_9  and  C_11
REMARK    5  A    between atoms: C_11  and  N_12
REMARK    6  A    between atoms: N_12  and  C_13
REMARK    7  A    between atoms: N_12  and  C_14
REMARK    8  A    between atoms: C_14  and  C_16
REMARK    9  A    between atoms: C_14  and  C_17
REMARK   10  A    between atoms: N_19  and  C_20
REMARK   11  A    between atoms: C_25  and  C_26
REMARK                            x       y       z     vdW  Elec       q    Type
REMARK                         _______ _______ _______ _____ _____    ______ ____
ROOT
ATOM      1  N   UNL     1      -0.809  -0.882   6.017  0.00  0.00    +0.391 N 
ATOM      2  C   UNL     1      -2.177  -1.404   6.143  0.00  0.00    -0.094 C 
ATOM      3  H   UNL     1      -0.186  -1.632   5.757  0.00  0.00    -0.080 HD
ENDROOT
BRANCH   1   4
ATOM      4  C   UNL     1      -0.383  -0.313   7.303  0.00  0.00    +0.017 C 
ATOM      5  C   UNL     1       1.058   0.189   7.185  0.00  0.00    -0.004 C 
BRANCH   4   6
ATOM      6  C   UNL     1      -0.460  -1.373   8.371  0.00  0.00    +0.203 C 
ATOM      7  O   UNL     1      -0.409  -2.546   8.067  0.00  0.00    -0.277 OA
ATOM      8  N   UNL     1      -0.585  -1.017   9.665  0.00  0.00    -0.287 N 
ATOM      9  H   UNL     1      -0.698  -0.083   9.903  0.00  0.00    +0.155 HD
BRANCH   8  10
ATOM     10  C   UNL     1      -0.550  -1.994  10.666  0.00  0.00    +0.036 A 
ATOM     11  C   UNL     1      -1.016  -3.276  10.403  0.00  0.00    +0.024 A 
ATOM     12  C   UNL     1      -0.980  -4.239  11.393  0.00  0.00    +0.017 A 
ATOM     13  C   UNL     1      -0.482  -3.927  12.646  0.00  0.00    +0.018 A 
ATOM     14  C   UNL     1      -0.019  -2.651  12.910  0.00  0.00    +0.020 A 
ATOM     15  C   UNL     1      -0.046  -1.686  11.923  0.00  0.00    -0.028 A 
ATOM     16  C   UNL     1       0.465  -0.298  12.210  0.00  0.00    +0.046 C 
ATOM     17 BR   UNL     1      -0.437  -5.248  13.998  0.00  0.00    -0.050 Br
ENDBRANCH   8  10
ENDBRANCH   4   6
ENDBRANCH   1   4
BRANCH   1  18
ATOM     18  C   UNL     1      -0.777   0.162   4.984  0.00  0.00    +0.020 C 
BRANCH  18  20
ATOM     19  N   UNL     1      -1.124   0.327   2.541  0.00  0.00    -0.287 N 
ATOM     20  C   UNL     1      -1.096  -0.448   3.644  0.00  0.00    +0.201 C 
ATOM     21  O   UNL     1      -1.327  -1.635   3.557  0.00  0.00    -0.278 OA
ATOM     22  H   UNL     1      -0.990   1.284   2.617  0.00  0.00    +0.155 HD
BRANCH  19  29
ATOM     23  C   UNL     1       0.585  -1.794   1.716  0.00  0.00    +0.045 C 
ATOM     24  C   UNL     1      -0.536  -1.288   0.844  0.00  0.00    -0.029 A 
ATOM     25  C   UNL     1      -0.761  -1.861  -0.393  0.00  0.00    +0.005 A 
ATOM     26  C   UNL     1      -1.789  -1.397  -1.193  0.00  0.00    +0.001 A 
ATOM     27  C   UNL     1      -2.594  -0.360  -0.758  0.00  0.00    +0.005 A 
ATOM     28  C   UNL     1      -2.374   0.216   0.477  0.00  0.00    -0.029 A 
ATOM     29  C   UNL     1      -1.346  -0.251   1.286  0.00  0.00    +0.039 A 
ATOM     30  C   UNL     1      -3.252   1.346   0.950  0.00  0.00    +0.045 C 
ENDBRANCH  19  29
ENDBRANCH  18  20
ENDBRANCH   1  18
TORSDOF 6
