REMARK  Name = ZINC02858139
REMARK  9 active torsions:
REMARK  status: ('A' for Active; 'I' for Inactive)
REMARK    1  A    between atoms: C_3  and  S_21
REMARK    2  A    between atoms: C_6  and  N_7
REMARK    3  A    between atoms: N_7  and  C_8
REMARK    4  A    between atoms: C_8  and  N_10
REMARK    5  A    between atoms: N_10  and  N_11
REMARK    6  A    between atoms: N_11  and  C_12
REMARK    7  A    between atoms: C_12  and  N_14
REMARK    8  A    between atoms: N_14  and  C_15
REMARK    9  A    between atoms: S_21  and  N_24
REMARK                            x       y       z     vdW  Elec       q    Type
REMARK                         _______ _______ _______ _____ _____    ______ ____
ROOT
ATOM      1  C   UNL     1       3.519   2.098  -0.409  0.00  0.00    +0.151 C 
ATOM      2  S   UNL     1       4.989   1.369  -0.896  0.00  0.00    -0.017 S 
ENDROOT
BRANCH   1   3
ATOM      3  N   UNL     1       3.504   3.387  -0.013  0.00  0.00    -0.296 N 
ATOM      4  H   UNL     1       2.663   3.818   0.203  0.00  0.00    +0.154 HD
BRANCH   3  10
ATOM      5  C   UNL     1       4.952   4.892   1.200  0.00  0.00    +0.025 A 
ATOM      6  C   UNL     1       6.139   5.591   1.296  0.00  0.00    +0.030 A 
ATOM      7  C   UNL     1       7.072   5.516   0.279  0.00  0.00    +0.105 A 
ATOM      8  C   UNL     1       6.824   4.736  -0.835  0.00  0.00    +0.030 A 
ATOM      9  C   UNL     1       5.642   4.028  -0.935  0.00  0.00    +0.025 A 
ATOM     10  C   UNL     1       4.702   4.102   0.085  0.00  0.00    +0.033 A 
BRANCH   7  11
ATOM     11  S   UNL     1       8.582   6.417   0.403  0.00  0.00    +0.056 S 
ATOM     12  O   UNL     1       8.810   6.638   1.788  0.00  0.00    -0.153 OA
ATOM     13  O   UNL     1       9.522   5.749  -0.427  0.00  0.00    -0.153 OA
BRANCH  11  14
ATOM     14  N   UNL     1       8.322   7.904  -0.278  0.00  0.00    -0.204 NA
ATOM     15  H   UNL     1       7.452   8.123  -0.646  0.00  0.00    +0.144 HD
ATOM     16  H   UNL     1       9.040   8.555  -0.309  0.00  0.00    +0.144 HD
ENDBRANCH  11  14
ENDBRANCH   7  11
ENDBRANCH   3  10
ENDBRANCH   1   3
BRANCH   1  17
ATOM     17  N   UNL     1       2.376   1.384  -0.420  0.00  0.00    -0.246 N 
ATOM     18  H   UNL     1       2.386   0.457  -0.705  0.00  0.00    +0.172 HD
BRANCH  17  19
ATOM     19  N   UNL     1       1.173   1.981  -0.021  0.00  0.00    -0.247 N 
ATOM     20  H   UNL     1       1.162   2.908   0.263  0.00  0.00    +0.172 HD
BRANCH  19  21
ATOM     21  C   UNL     1       0.030   1.266  -0.033  0.00  0.00    +0.147 C 
ATOM     22  S   UNL     1      -1.442   1.997   0.448  0.00  0.00    -0.017 S 
BRANCH  21  23
ATOM     23  N   UNL     1       0.044  -0.022  -0.428  0.00  0.00    -0.323 N 
ATOM     24  H   UNL     1       0.877  -0.435  -0.705  0.00  0.00    +0.148 HD
BRANCH  23  25
ATOM     25  C   UNL     1      -1.198  -0.799  -0.441  0.00  0.00    +0.072 C 
ATOM     26  C   UNL     1      -1.449  -1.382   0.951  0.00  0.00    +0.022 C 
ATOM     27  C   UNL     1      -2.746  -2.193   0.938  0.00  0.00    +0.002 C 
ATOM     28  C   UNL     1      -2.626  -3.331  -0.078  0.00  0.00    +0.000 C 
ATOM     29  C   UNL     1      -2.375  -2.748  -1.470  0.00  0.00    +0.002 C 
ATOM     30  C   UNL     1      -1.077  -1.937  -1.457  0.00  0.00    +0.022 C 
ENDBRANCH  23  25
ENDBRANCH  21  23
ENDBRANCH  19  21
ENDBRANCH  17  19
ENDBRANCH   1  17
TORSDOF 9
