REMARK  Name = ZINC16625619
REMARK  10 active torsions:
REMARK  status: ('A' for Active; 'I' for Inactive)
REMARK    1  A    between atoms: C_1  and  C_2
REMARK    2  A    between atoms: C_2  and  C_4
REMARK    3  A    between atoms: C_2  and  N_49
REMARK    4  A    between atoms: N_6  and  C_7
REMARK    5  A    between atoms: C_10  and  N_13
REMARK    6  A    between atoms: C_16  and  N_49
REMARK    7  A    between atoms: C_17  and  C_18
REMARK    8  A    between atoms: C_17  and  N_49
REMARK    9  A    between atoms: N_20  and  C_21
REMARK   10  A    between atoms: C_25  and  C_27
REMARK                            x       y       z     vdW  Elec       q    Type
REMARK                         _______ _______ _______ _____ _____    ______ ____
ROOT
ATOM      1  C   UNL     1       0.375   3.985   1.278  0.00  0.00    -0.094 C 
ATOM      2  N   UNL     1       0.943   3.526  -0.007  0.00  0.00    +0.391 N 
ATOM      3  H   UNL     1       0.294   3.768  -0.765  0.00  0.00    -0.080 HD
ENDROOT
BRANCH   2   5
ATOM      4  C   UNL     1       1.925   1.638   1.251  0.00  0.00    -0.004 C 
ATOM      5  C   UNL     1       1.126   2.059   0.017  0.00  0.00    +0.017 C 
BRANCH   5   6
ATOM      6  C   UNL     1      -0.230   1.401   0.047  0.00  0.00    +0.203 C 
ATOM      7  O   UNL     1      -1.234   2.080   0.060  0.00  0.00    -0.277 OA
ATOM      8  N   UNL     1      -0.326   0.056   0.055  0.00  0.00    -0.287 N 
ATOM      9  H   UNL     1       0.473  -0.488  -0.027  0.00  0.00    +0.155 HD
BRANCH   8  10
ATOM     10  C   UNL     1      -1.578  -0.555   0.180  0.00  0.00    +0.033 A 
ATOM     11  C   UNL     1      -1.703  -1.748   0.880  0.00  0.00    +0.025 A 
ATOM     12  C   UNL     1      -2.942  -2.346   1.006  0.00  0.00    +0.034 A 
ATOM     13  C   UNL     1      -4.054  -1.764   0.427  0.00  0.00    +0.126 A 
ATOM     14  C   UNL     1      -3.932  -0.579  -0.275  0.00  0.00    +0.034 A 
ATOM     15  C   UNL     1      -2.697   0.027  -0.400  0.00  0.00    +0.025 A 
BRANCH  13  16
ATOM     16  N   UNL     1      -5.379  -2.411   0.560  0.00  0.00    +0.056 N 
ATOM     17  O   UNL     1      -6.360  -1.899   0.050  0.00  0.00    -0.126 OA
ATOM     18  O   UNL     1      -5.489  -3.454   1.178  0.00  0.00    -0.126 OA
ENDBRANCH  13  16
ENDBRANCH   8  10
ENDBRANCH   5   6
ENDBRANCH   2   5
BRANCH   2  19
ATOM     19  C   UNL     1       2.239   4.192  -0.253  0.00  0.00    +0.020 C 
BRANCH  19  20
ATOM     20  C   UNL     1       1.993   5.660  -0.491  0.00  0.00    +0.201 C 
ATOM     21  O   UNL     1       0.864   6.101  -0.443  0.00  0.00    -0.278 OA
ATOM     22  N   UNL     1       3.027   6.482  -0.758  0.00  0.00    -0.287 N 
ATOM     23  H   UNL     1       3.921   6.119  -0.864  0.00  0.00    +0.155 HD
BRANCH  22  24
ATOM     24  C   UNL     1       2.812   7.859  -0.882  0.00  0.00    +0.034 A 
ATOM     25  C   UNL     1       1.637   8.332  -1.451  0.00  0.00    +0.025 A 
ATOM     26  C   UNL     1       1.425   9.691  -1.568  0.00  0.00    +0.022 A 
ATOM     27  C   UNL     1       2.388  10.583  -1.128  0.00  0.00    +0.053 A 
ATOM     28  C   UNL     1       3.562  10.115  -0.566  0.00  0.00    +0.075 A 
ATOM     29  C   UNL     1       3.777   8.756  -0.442  0.00  0.00    +0.037 A 
ATOM     30 CL   UNL     1       2.122  12.291  -1.282  0.00  0.00    -0.083 Cl
BRANCH  28  31
ATOM     31  C   UNL     1       4.608  11.089  -0.087  0.00  0.00    +0.419 C 
ATOM     32  F   UNL     1       5.696  10.383   0.439  0.00  0.00    -0.166 F 
ATOM     33  F   UNL     1       5.038  11.876  -1.161  0.00  0.00    -0.166 F 
ATOM     34  F   UNL     1       4.062  11.910   0.904  0.00  0.00    -0.166 F 
ENDBRANCH  28  31
ENDBRANCH  22  24
ENDBRANCH  19  20
ENDBRANCH   2  19
TORSDOF 8
