REMARK  Name = ZINC05105415
REMARK  10 active torsions:
REMARK  status: ('A' for Active; 'I' for Inactive)
REMARK    1  A    between atoms: C_1  and  C_2
REMARK    2  A    between atoms: C_2  and  N_56
REMARK    3  A    between atoms: C_3  and  C_4
REMARK    4  A    between atoms: C_3  and  N_56
REMARK    5  A    between atoms: C_5  and  C_6
REMARK    6  A    between atoms: C_5  and  N_56
REMARK    7  A    between atoms: C_6  and  C_7
REMARK    8  A    between atoms: N_9  and  C_10
REMARK    9  A    between atoms: C_20  and  O_29
REMARK   10  A    between atoms: C_27  and  O_28
REMARK                            x       y       z     vdW  Elec       q    Type
REMARK                         _______ _______ _______ _____ _____    ______ ____
ROOT
ATOM      1  C   UNL     1       2.590  -4.193   0.561  0.00  0.00    +0.045 A 
ATOM      2  C   UNL     1       3.795  -4.826   0.848  0.00  0.00    +0.024 A 
ATOM      3  C   UNL     1       4.977  -4.112   0.844  0.00  0.00    +0.003 A 
ATOM      4  C   UNL     1       4.980  -2.758   0.555  0.00  0.00    +0.012 A 
ATOM      5  C   UNL     1       3.786  -2.103   0.265  0.00  0.00    +0.035 A 
ATOM      6  C   UNL     1       2.578  -2.824   0.267  0.00  0.00    +0.054 A 
ATOM      7  C   UNL     1       1.305  -2.144  -0.037  0.00  0.00    +0.200 C 
ATOM      8  O   UNL     1       0.304  -2.791  -0.285  0.00  0.00    -0.286 OA
ATOM      9  C   UNL     1       1.259  -0.674  -0.037  0.00  0.00    +0.079 A 
ATOM     10  C   UNL     1       2.518   0.078  -0.040  0.00  0.00    +0.079 A 
ATOM     11  C   UNL     1       2.493   1.466  -0.039  0.00  0.00    +0.136 A 
ATOM     12  C   UNL     1       1.250   2.146  -0.033  0.00  0.00    +0.028 A 
ATOM     13  C   UNL     1       1.213   3.548  -0.028  0.00  0.00    +0.012 A 
ATOM     14  C   UNL     1       0.011   4.195  -0.023  0.00  0.00    +0.001 A 
ATOM     15  C   UNL     1      -1.182   3.481  -0.022  0.00  0.00    +0.001 A 
ATOM     16  C   UNL     1      -1.180   2.117  -0.021  0.00  0.00    +0.012 A 
ATOM     17  C   UNL     1       0.037   1.420  -0.032  0.00  0.00    +0.028 A 
ATOM     18  C   UNL     1       0.049   0.003  -0.035  0.00  0.00    +0.136 A 
ATOM     19  C   UNL     1       3.790  -0.657  -0.043  0.00  0.00    +0.198 C 
ATOM     20  O   UNL     1       4.833  -0.083  -0.295  0.00  0.00    -0.286 OA
ENDROOT
BRANCH   1  23
ATOM     21  C   UNL     1       1.392  -6.199   0.146  0.00  0.00    +0.215 C 
ATOM     22  O   UNL     1       2.431  -6.746  -0.155  0.00  0.00    -0.276 OA
ATOM     23  N   UNL     1       1.401  -4.918   0.565  0.00  0.00    -0.285 N 
ATOM     24  H   UNL     1       0.580  -4.501   0.869  0.00  0.00    +0.155 HD
BRANCH  21  25
ATOM     25  C   UNL     1       0.089  -6.952   0.053  0.00  0.00    +0.077 C 
BRANCH  25  26
ATOM     26  C   UNL     1       0.356  -8.374  -0.444  0.00  0.00    -0.070 C 
BRANCH  26  27
ATOM     27  N   UNL     1      -0.926  -9.105  -0.510  0.00  0.00    +0.380 N 
ATOM     28  H   UNL     1      -1.409  -9.013   0.392  0.00  0.00    -0.082 HD
BRANCH  27  30
ATOM     29  C   UNL     1      -1.127  -8.715  -2.943  0.00  0.00    -0.017 C 
ATOM     30  C   UNL     1      -1.780  -8.532  -1.572  0.00  0.00    -0.082 C 
ENDBRANCH  27  30
BRANCH  27  31
ATOM     31  C   UNL     1      -0.679 -10.537  -0.779  0.00  0.00    -0.082 C 
ATOM     32  C   UNL     1      -1.963 -11.319  -0.499  0.00  0.00    -0.017 C 
ENDBRANCH  27  31
ENDBRANCH  26  27
ENDBRANCH  25  26
ENDBRANCH  21  25
ENDBRANCH   1  23
BRANCH  18  33
ATOM     33  O   UNL     1      -1.116  -0.686  -0.035  0.00  0.00    -0.505 OA
ATOM     34  H   UNL     1      -1.456  -0.885  -0.919  0.00  0.00    +0.292 HD
ENDBRANCH  18  33
BRANCH  11  35
ATOM     35  O   UNL     1       3.652   2.166  -0.043  0.00  0.00    -0.505 OA
ATOM     36  H   UNL     1       3.984   2.370  -0.928  0.00  0.00    +0.292 HD
ENDBRANCH  11  35
TORSDOF 8
