REMARK  Name = ZINC09033899
REMARK  8 active torsions:
REMARK  status: ('A' for Active; 'I' for Inactive)
REMARK    1  A    between atoms: C_1  and  C_2
REMARK    2  A    between atoms: C_6  and  O_9
REMARK    3  A    between atoms: C_7  and  C_8
REMARK    4  A    between atoms: O_9  and  C_10
REMARK    5  A    between atoms: C_10  and  C_11
REMARK    6  A    between atoms: N_13  and  N_14
REMARK    7  A    between atoms: N_22  and  C_25
REMARK    8  A    between atoms: C_25  and  N_70
REMARK                            x       y       z     vdW  Elec       q    Type
REMARK                         _______ _______ _______ _____ _____    ______ ____
ROOT
ATOM      1  N   UNL     1       4.757   2.207  -0.030  0.00  0.00    -0.174 NA
ATOM      2  C   UNL     1       3.463   2.412   0.005  0.00  0.00    +0.153 C 
ATOM      3  C   UNL     1       2.399   1.416   0.267  0.00  0.00    +0.028 A 
ATOM      4  C   UNL     1       2.417   0.052   0.537  0.00  0.00    +0.012 A 
ATOM      5  C   UNL     1       1.229  -0.622   0.742  0.00  0.00    +0.001 A 
ATOM      6  C   UNL     1       0.025   0.060   0.677  0.00  0.00    +0.002 A 
ATOM      7  C   UNL     1      -0.003   1.413   0.409  0.00  0.00    +0.024 A 
ATOM      8  C   UNL     1       1.183   2.108   0.200  0.00  0.00    +0.044 A 
ATOM      9  N   UNL     1       1.432   3.447  -0.083  0.00  0.00    -0.282 N 
ATOM     10  C   UNL     1       2.748   3.687  -0.209  0.00  0.00    +0.270 C 
ATOM     11  O   UNL     1       3.260   4.763  -0.454  0.00  0.00    -0.268 OA
ENDROOT
BRANCH   1  14
ATOM     12  C   UNL     1       6.593   0.702   0.151  0.00  0.00    +0.270 C 
ATOM     13  O   UNL     1       7.351   1.648   0.150  0.00  0.00    -0.270 OA
ATOM     14  N   UNL     1       5.263   0.904   0.063  0.00  0.00    -0.203 N 
ATOM     15  H   UNL     1       4.656   0.147   0.064  0.00  0.00    +0.177 HD
BRANCH  12  16
ATOM     16  C   UNL     1       7.136  -0.700   0.251  0.00  0.00    +0.326 C 
BRANCH  16  17
ATOM     17  O   UNL     1       8.562  -0.653   0.333  0.00  0.00    -0.482 OA
BRANCH  17  23
ATOM     18  C   UNL     1      12.764  -3.111   0.699  0.00  0.00    +0.044 C 
ATOM     19  C   UNL     1      11.259  -3.079   0.609  0.00  0.00    -0.044 A 
ATOM     20  C   UNL     1      10.542  -4.261   0.624  0.00  0.00    +0.004 A 
ATOM     21  C   UNL     1       9.162  -4.236   0.541  0.00  0.00    +0.004 A 
ATOM     22  C   UNL     1       8.496  -3.028   0.450  0.00  0.00    +0.046 A 
ATOM     23  C   UNL     1       9.214  -1.842   0.429  0.00  0.00    +0.124 A 
ATOM     24  C   UNL     1      10.599  -1.870   0.512  0.00  0.00    -0.006 A 
ATOM     25  C   UNL     1      11.382  -0.582   0.496  0.00  0.00    +0.048 C 
ENDBRANCH  17  23
ENDBRANCH  16  17
ENDBRANCH  12  16
ENDBRANCH   1  14
BRANCH   9  26
ATOM     26  C   UNL     1       0.390   4.468  -0.225  0.00  0.00    +0.039 C 
BRANCH  26  40
ATOM     27  C   UNL     1      -0.423   6.432   0.929  0.00  0.00    -0.071 C 
ATOM     28  C   UNL     1      -0.646   7.090   2.283  0.00  0.00    -0.007 C 
ATOM     29  C   UNL     1      -1.538   6.219   3.171  0.00  0.00    +0.011 C 
ATOM     30  C   UNL     1      -0.867   4.846   3.295  0.00  0.00    +0.020 C 
ATOM     31  C   UNL     1      -0.773   4.234   1.888  0.00  0.00    -0.067 C 
ATOM     32  C   UNL     1       0.544   5.027   3.808  0.00  0.00    +0.023 A 
ATOM     33  C   UNL     1       1.087   4.007   4.524  0.00  0.00    +0.022 A 
ATOM     34  C   UNL     1       2.409   4.081   4.975  0.00  0.00    +0.007 A 
ATOM     35  C   UNL     1       3.152   5.181   4.662  0.00  0.00    +0.070 A 
ATOM     36  C   UNL     1       2.563   6.213   3.918  0.00  0.00    +0.251 A 
ATOM     37  O   UNL     1       3.235   7.174   3.580  0.00  0.00    -0.268 OA
ATOM     38  N   UNL     1       1.254   6.155   3.571  0.00  0.00    -0.312 N 
ATOM     39  C   UNL     1       0.665   7.367   2.999  0.00  0.00    +0.126 C 
ATOM     40  N   UNL     1       0.149   5.082   1.098  0.00  0.00    +0.391 N 
ATOM     41  H   UNL     1       1.042   5.158   1.598  0.00  0.00    -0.079 HD
ENDBRANCH  26  40
ENDBRANCH   9  26
TORSDOF 6
