REMARK  Name = ZINC32561827
REMARK  10 active torsions:
REMARK  status: ('A' for Active; 'I' for Inactive)
REMARK    1  A    between atoms: C_4  and  C_7
REMARK    2  A    between atoms: C_7  and  N_8
REMARK    3  A    between atoms: C_10  and  N_27
REMARK    4  A    between atoms: C_13  and  C_15
REMARK    5  A    between atoms: N_17  and  C_18
REMARK    6  A    between atoms: C_18  and  C_19
REMARK    7  A    between atoms: C_19  and  C_20
REMARK    8  A    between atoms: N_27  and  C_28
REMARK    9  A    between atoms: C_28  and  C_29
REMARK   10  A    between atoms: C_33  and  O_35
REMARK                            x       y       z     vdW  Elec       q    Type
REMARK                         _______ _______ _______ _____ _____    ______ ____
ROOT
ATOM      1  N   UNL     1       4.153  -0.953   1.342  0.00  0.00    +0.391 N 
ATOM      2  C   UNL     1       4.456   0.330   2.002  0.00  0.00    -0.059 C 
ATOM      3  C   UNL     1       5.935   0.281   2.440  0.00  0.00    +0.036 C 
ATOM      4  C   UNL     1       6.228  -1.241   2.511  0.00  0.00    +0.010 C 
ATOM      5  C   UNL     1       5.380  -1.778   1.331  0.00  0.00    +0.021 C 
ATOM      6  H   UNL     1       3.426  -1.432   1.852  0.00  0.00    -0.080 HD
ENDROOT
BRANCH   5   7
ATOM      7  C   UNL     1       5.037  -3.230   1.550  0.00  0.00    +0.200 C 
ATOM      8  O   UNL     1       3.882  -3.564   1.702  0.00  0.00    -0.278 OA
ATOM      9  N   UNL     1       6.016  -4.156   1.576  0.00  0.00    -0.316 N 
ATOM     10  H   UNL     1       6.941  -3.889   1.454  0.00  0.00    +0.149 HD
BRANCH   9  11
ATOM     11  C   UNL     1       5.683  -5.567   1.788  0.00  0.00    +0.109 C 
BRANCH  11  12
ATOM     12  C   UNL     1       6.966  -6.401   1.774  0.00  0.00    +0.056 C 
BRANCH  12  13
ATOM     13  C   UNL     1       6.624  -7.852   1.992  0.00  0.00    -0.011 A 
ATOM     14  C   UNL     1       6.674  -8.391   3.264  0.00  0.00    +0.006 A 
ATOM     15  C   UNL     1       6.360  -9.722   3.464  0.00  0.00    +0.000 A 
ATOM     16  C   UNL     1       5.996 -10.516   2.393  0.00  0.00    +0.003 A 
ATOM     17  C   UNL     1       5.945  -9.980   1.120  0.00  0.00    +0.038 A 
ATOM     18  C   UNL     1       6.254  -8.646   0.919  0.00  0.00    +0.127 A 
ATOM     19  F   UNL     1       6.200  -8.119  -0.324  0.00  0.00    -0.205 F 
ENDBRANCH  12  13
ENDBRANCH  11  12
ENDBRANCH   9  11
ENDBRANCH   5   7
BRANCH   3  20
ATOM     20  N   UNL     1       6.107   0.909   3.757  0.00  0.00    -0.311 NA
ATOM     21  H   UNL     1       5.437   1.650   3.895  0.00  0.00    +0.122 HD
BRANCH  20  22
ATOM     22  C   UNL     1       7.480   1.402   3.929  0.00  0.00    +0.116 C 
BRANCH  22  23
ATOM     23  C   UNL     1       7.619   2.038   5.288  0.00  0.00    -0.030 A 
ATOM     24  C   UNL     1       7.355   3.386   5.450  0.00  0.00    +0.005 A 
ATOM     25  C   UNL     1       7.481   3.972   6.696  0.00  0.00    +0.004 A 
ATOM     26  C   UNL     1       7.872   3.213   7.782  0.00  0.00    +0.045 A 
ATOM     27  C   UNL     1       8.138   1.861   7.622  0.00  0.00    +0.117 A 
ATOM     28  C   UNL     1       8.004   1.273   6.372  0.00  0.00    +0.050 A 
BRANCH  27  29
ATOM     29  O   UNL     1       8.522   1.112   8.688  0.00  0.00    -0.507 OA
ATOM     30  H   UNL     1       7.788   0.708   9.171  0.00  0.00    +0.292 HD
ENDBRANCH  27  29
ENDBRANCH  22  23
ENDBRANCH  20  22
ENDBRANCH   3  20
BRANCH   1  31
ATOM     31  C   UNL     1       3.711  -0.707  -0.038  0.00  0.00    -0.042 C 
BRANCH  31  35
ATOM     32  C   UNL     1      -0.017   1.378   0.010  0.00  0.00    +0.000 A 
ATOM     33  C   UNL     1       1.171   2.086   0.002  0.00  0.00    +0.000 A 
ATOM     34  C   UNL     1       2.377   1.411  -0.013  0.00  0.00    +0.002 A 
ATOM     35  C   UNL     1       2.396   0.029  -0.020  0.00  0.00    -0.064 A 
ATOM     36  C   UNL     1       1.208  -0.679  -0.012  0.00  0.00    +0.002 A 
ATOM     37  C   UNL     1       0.002  -0.004   0.002  0.00  0.00    +0.000 A 
ENDBRANCH  31  35
ENDBRANCH   1  31
TORSDOF 10
