REMARK  Name = ZINC09052385
REMARK  11 active torsions:
REMARK  status: ('A' for Active; 'I' for Inactive)
REMARK    1  A    between atoms: C_1  and  C_2
REMARK    2  A    between atoms: C_6  and  C_28
REMARK    3  A    between atoms: C_7  and  N_8
REMARK    4  A    between atoms: C_9  and  C_11
REMARK    5  A    between atoms: C_11  and  N_12
REMARK    6  A    between atoms: C_13  and  C_15
REMARK    7  A    between atoms: C_15  and  C_17
REMARK    8  A    between atoms: C_15  and  N_52
REMARK    9  A    between atoms: C_18  and  C_20
REMARK   10  A    between atoms: C_18  and  C_21
REMARK   11  A    between atoms: C_18  and  N_52
REMARK                            x       y       z     vdW  Elec       q    Type
REMARK                         _______ _______ _______ _____ _____    ______ ____
ROOT
ATOM      1  N   UNL     1      -2.104   1.524  -1.571  0.00  0.00    -0.308 N 
ATOM      2  C   UNL     1      -3.363   1.982  -1.718  0.00  0.00    +0.199 C 
ATOM      3  O   UNL     1      -3.738   2.941  -1.077  0.00  0.00    -0.278 OA
ATOM      4  H   UNL     1      -1.804   0.757  -2.084  0.00  0.00    +0.149 HD
ENDROOT
BRANCH   2   5
ATOM      5  C   UNL     1      -4.304   1.303  -2.680  0.00  0.00    +0.014 C 
ATOM      6  C   UNL     1      -3.721   1.364  -4.093  0.00  0.00    -0.004 C 
BRANCH   5   7
ATOM      7  N   UNL     1      -5.606   1.996  -2.654  0.00  0.00    +0.391 N 
ATOM      8  H   UNL     1      -5.576   2.798  -3.294  0.00  0.00    -0.084 HD
ATOM      9  H   UNL     1      -5.795   2.327  -1.700  0.00  0.00    -0.084 HD
BRANCH   7  10
ATOM     10  C   UNL     1      -6.683   1.080  -3.072  0.00  0.00    -0.043 C 
ATOM     11  C   UNL     1      -7.161   0.269  -1.866  0.00  0.00    -0.009 C 
BRANCH  10  12
ATOM     12  C   UNL     1      -7.832   1.885  -3.623  0.00  0.00    -0.061 A 
ATOM     13  C   UNL     1      -8.202   3.068  -3.012  0.00  0.00    +0.005 A 
ATOM     14  C   UNL     1      -9.252   3.810  -3.520  0.00  0.00    +0.038 A 
ATOM     15  C   UNL     1      -9.939   3.362  -4.635  0.00  0.00    +0.123 A 
ATOM     16  C   UNL     1      -9.571   2.174  -5.243  0.00  0.00    +0.038 A 
ATOM     17  C   UNL     1      -8.517   1.437  -4.737  0.00  0.00    +0.005 A 
ATOM     18  F   UNL     1     -10.970   4.083  -5.129  0.00  0.00    -0.205 F 
ENDBRANCH  10  12
ENDBRANCH   7  10
ENDBRANCH   5   7
ENDBRANCH   2   5
BRANCH   1  19
ATOM     19  C   UNL     1      -1.189   2.184  -0.637  0.00  0.00    +0.200 C 
BRANCH  19  21
ATOM     20  N   UNL     1       1.151   1.923   0.120  0.00  0.00    -0.284 N 
ATOM     21  C   UNL     1       0.145   1.483  -0.661  0.00  0.00    +0.234 C 
ATOM     22  O   UNL     1       0.315   0.527  -1.387  0.00  0.00    -0.274 OA
ATOM     23  H   UNL     1       1.033   2.719   0.662  0.00  0.00    +0.155 HD
BRANCH  20  30
ATOM     24  C   UNL     1       1.093  -0.874   0.642  0.00  0.00    +0.045 C 
ATOM     25  C   UNL     1       2.384  -0.135   0.402  0.00  0.00    -0.029 A 
ATOM     26  C   UNL     1       3.586  -0.816   0.426  0.00  0.00    +0.005 A 
ATOM     27  C   UNL     1       4.771  -0.138   0.211  0.00  0.00    +0.001 A 
ATOM     28  C   UNL     1       4.758   1.224  -0.033  0.00  0.00    +0.005 A 
ATOM     29  C   UNL     1       3.560   1.909  -0.064  0.00  0.00    -0.029 A 
ATOM     30  C   UNL     1       2.367   1.231   0.151  0.00  0.00    +0.039 A 
ATOM     31  C   UNL     1       3.546   3.393  -0.331  0.00  0.00    +0.045 C 
ENDBRANCH  20  30
ENDBRANCH  19  21
ENDBRANCH   1  19
TORSDOF 7
