REMARK  Name = ZINC35760397
REMARK  9 active torsions:
REMARK  status: ('A' for Active; 'I' for Inactive)
REMARK    1  A    between atoms: C_1  and  C_2
REMARK    2  A    between atoms: C_3  and  C_26
REMARK    3  A    between atoms: C_4  and  C_13
REMARK    4  A    between atoms: C_16  and  N_19
REMARK    5  A    between atoms: C_20  and  C_22
REMARK    6  A    between atoms: C_22  and  C_24
REMARK    7  A    between atoms: N_28  and  C_29
REMARK    8  A    between atoms: C_32  and  O_35
REMARK    9  A    between atoms: O_35  and  C_36
REMARK                            x       y       z     vdW  Elec       q    Type
REMARK                         _______ _______ _______ _____ _____    ______ ____
ROOT
ATOM      1  C   UNL     1      -0.295   1.397   0.265  0.00  0.00    +0.064 C 
ATOM      2  C   UNL     1      -0.282  -0.030  -0.220  0.00  0.00    +0.025 C 
ATOM      3  C   UNL     1      -1.373  -0.818  -0.012  0.00  0.00    +0.058 C 
ATOM      4  C   UNL     1      -1.384  -2.223  -0.562  0.00  0.00    +0.142 C 
ATOM      5  N   UNL     1       0.007  -2.690  -0.702  0.00  0.00    -0.300 N 
ATOM      6  C   UNL     1       0.292  -4.088  -0.395  0.00  0.00    +0.109 C 
ATOM      7  C   UNL     1       1.280  -4.720  -1.364  0.00  0.00    +0.030 C 
ATOM      8  C   UNL     1       2.647  -4.036  -1.212  0.00  0.00    +0.078 C 
ATOM      9  S   UNL     1       2.472  -2.330  -1.819  0.00  0.00    -0.092 S 
ATOM     10  C   UNL     1       0.965  -1.795  -1.072  0.00  0.00    +0.135 C 
ATOM     11  N   UNL     1       0.791  -0.498  -0.849  0.00  0.00    -0.341 N 
ATOM     12  H   UNL     1       1.470   0.127  -1.150  0.00  0.00    +0.167 HD
ENDROOT
BRANCH   4  13
ATOM     13  C   UNL     1      -2.060  -2.232  -1.909  0.00  0.00    -0.022 A 
ATOM     14  C   UNL     1      -1.360  -1.840  -3.035  0.00  0.00    +0.007 A 
ATOM     15  C   UNL     1      -1.976  -1.847  -4.271  0.00  0.00    +0.023 A 
ATOM     16  C   UNL     1      -3.301  -2.249  -4.382  0.00  0.00    +0.033 A 
ATOM     17  C   UNL     1      -4.001  -2.643  -3.250  0.00  0.00    +0.023 A 
ATOM     18  C   UNL     1      -3.377  -2.638  -2.017  0.00  0.00    +0.007 A 
BRANCH  16  19
ATOM     19  N   UNL     1      -3.928  -2.258  -5.633  0.00  0.00    -0.284 N 
ATOM     20  C   UNL     1      -3.217  -2.538  -6.742  0.00  0.00    +0.235 C 
ATOM     21  O   UNL     1      -2.055  -2.875  -6.649  0.00  0.00    -0.274 OA
ATOM     22  H   UNL     1      -4.876  -2.061  -5.701  0.00  0.00    +0.155 HD
BRANCH  20  23
ATOM     23  C   UNL     1      -3.864  -2.435  -8.099  0.00  0.00    +0.163 C 
ATOM     24  C   UNL     1      -3.496  -3.662  -8.935  0.00  0.00    +0.034 C 
ATOM     25 CL   UNL     1      -3.281  -0.945  -8.931  0.00  0.00    -0.112 Cl
ENDBRANCH  20  23
ENDBRANCH  16  19
ENDBRANCH   4  13
BRANCH   3  26
ATOM     26  C   UNL     1      -2.478  -0.328   0.708  0.00  0.00    +0.248 C 
ATOM     27  O   UNL     1      -2.462   0.808   1.150  0.00  0.00    -0.270 OA
ATOM     28  N   UNL     1      -3.553  -1.114   0.909  0.00  0.00    -0.282 N 
ATOM     29  H   UNL     1      -3.537  -2.041   0.623  0.00  0.00    +0.155 HD
BRANCH  28  30
ATOM     30  C   UNL     1      -4.695  -0.594   1.531  0.00  0.00    +0.034 A 
ATOM     31  C   UNL     1      -5.047   0.735   1.336  0.00  0.00    +0.027 A 
ATOM     32  C   UNL     1      -6.173   1.248   1.950  0.00  0.00    +0.047 A 
ATOM     33  C   UNL     1      -6.951   0.436   2.762  0.00  0.00    +0.120 A 
ATOM     34  C   UNL     1      -6.600  -0.891   2.957  0.00  0.00    +0.047 A 
ATOM     35  C   UNL     1      -5.478  -1.407   2.339  0.00  0.00    +0.027 A 
BRANCH  33  36
ATOM     36  O   UNL     1      -8.059   0.942   3.367  0.00  0.00    -0.495 OA
ATOM     37  C   UNL     1      -8.814   0.050   4.189  0.00  0.00    +0.277 C 
ENDBRANCH  33  36
ENDBRANCH  28  30
ENDBRANCH   3  26
TORSDOF 6
