REMARK  Name = ZINC09320388
REMARK  7 active torsions:
REMARK  status: ('A' for Active; 'I' for Inactive)
REMARK    1  A    between atoms: C_1  and  O_2
REMARK    2  A    between atoms: O_2  and  C_3
REMARK    3  A    between atoms: C_13  and  C_17
REMARK    4  A    between atoms: C_18  and  O_35
REMARK    5  A    between atoms: C_20  and  O_34
REMARK    6  A    between atoms: N_21  and  C_24
REMARK    7  A    between atoms: C_28  and  C_30
REMARK                            x       y       z     vdW  Elec       q    Type
REMARK                         _______ _______ _______ _____ _____    ______ ____
ROOT
ATOM      1  C   UNL     1      -2.298  -0.084  -0.921  0.00  0.00    +0.071 A 
ATOM      2  C   UNL     1      -3.124  -1.119  -0.521  0.00  0.00    +0.224 A 
ATOM      3  N   UNL     1      -3.708  -1.897  -1.440  0.00  0.00    -0.161 NA
ATOM      4  C   UNL     1      -3.512  -1.698  -2.724  0.00  0.00    +0.306 A 
ATOM      5  N   UNL     1      -2.709  -0.695  -3.171  0.00  0.00    -0.231 N 
ATOM      6  C   UNL     1      -2.099   0.127  -2.292  0.00  0.00    +0.267 A 
ATOM      7  O   UNL     1      -1.381   1.034  -2.683  0.00  0.00    -0.267 OA
ENDROOT
BRANCH   1  18
ATOM      8  C   UNL     1       4.458   0.895  -0.199  0.00  0.00    +0.121 A 
ATOM      9  C   UNL     1       4.306  -0.486  -0.298  0.00  0.00    +0.047 A 
ATOM     10  C   UNL     1       3.053  -1.055  -0.278  0.00  0.00    +0.030 A 
ATOM     11  C   UNL     1       1.924  -0.251  -0.160  0.00  0.00    +0.047 A 
ATOM     12  C   UNL     1       2.074   1.145  -0.059  0.00  0.00    +0.006 A 
ATOM     13  C   UNL     1       3.352   1.710  -0.080  0.00  0.00    +0.056 A 
ATOM     14  C   UNL     1       0.724   1.682   0.051  0.00  0.00    -0.022 A 
ATOM     15  C   UNL     1      -0.132   0.640   0.007  0.00  0.00    +0.011 A 
ATOM     16  N   UNL     1       0.571  -0.522  -0.113  0.00  0.00    -0.359 N 
ATOM     17  H   UNL     1       0.178  -1.408  -0.163  0.00  0.00    +0.166 HD
ATOM     18  C   UNL     1      -1.631   0.804   0.097  0.00  0.00    +0.018 C 
ATOM     19  C   UNL     1      -1.173   3.125   0.659  0.00  0.00    -0.076 C 
ATOM     20  C   UNL     1       0.288   3.119   0.188  0.00  0.00    +0.018 C 
ATOM     21  N   UNL     1      -1.971   2.216  -0.190  0.00  0.00    +0.388 N 
ATOM     22  H   UNL     1      -2.969   2.368  -0.003  0.00  0.00    -0.084 HD
ATOM     23  H   UNL     1      -1.773   2.416  -1.178  0.00  0.00    -0.084 HD
BRANCH   8  25
ATOM     24  C   UNL     1       6.806   0.541  -0.344  0.00  0.00    +0.277 C 
ATOM     25  O   UNL     1       5.703   1.442  -0.219  0.00  0.00    -0.495 OA
ENDBRANCH   8  25
ENDBRANCH   1  18
BRANCH   5  26
ATOM     26  C   UNL     1      -2.522  -0.509  -4.548  0.00  0.00    +0.055 A 
ATOM     27  C   UNL     1      -3.373   0.325  -5.260  0.00  0.00    +0.026 A 
ATOM     28  C   UNL     1      -3.185   0.505  -6.616  0.00  0.00    +0.003 A 
ATOM     29  C   UNL     1      -2.150  -0.144  -7.265  0.00  0.00    +0.012 A 
ATOM     30  C   UNL     1      -1.301  -0.975  -6.558  0.00  0.00    +0.057 A 
ATOM     31  C   UNL     1      -1.481  -1.155  -5.201  0.00  0.00    +0.038 A 
BRANCH  30  32
ATOM     32  C   UNL     1      -0.174  -1.679  -7.269  0.00  0.00    +0.417 C 
ATOM     33  F   UNL     1      -0.192  -1.338  -8.625  0.00  0.00    -0.166 F 
ATOM     34  F   UNL     1       1.047  -1.292  -6.707  0.00  0.00    -0.166 F 
ATOM     35  F   UNL     1      -0.331  -3.063  -7.134  0.00  0.00    -0.166 F 
ENDBRANCH  30  32
ENDBRANCH   5  26
BRANCH   4  36
ATOM     36  O   UNL     1      -4.120  -2.506  -3.617  0.00  0.00    -0.479 OA
ATOM     37  H   UNL     1      -4.683  -3.208  -3.263  0.00  0.00    +0.295 HD
ENDBRANCH   4  36
BRANCH   2  38
ATOM     38  O   UNL     1      -3.341  -1.345   0.795  0.00  0.00    -0.492 OA
ATOM     39  H   UNL     1      -3.932  -2.089   0.975  0.00  0.00    +0.294 HD
ENDBRANCH   2  38
TORSDOF 6
