REMARK  Name = ZINC37030912
REMARK  9 active torsions:
REMARK  status: ('A' for Active; 'I' for Inactive)
REMARK    1  A    between atoms: C_1  and  C_2
REMARK    2  A    between atoms: C_2  and  C_4
REMARK    3  A    between atoms: C_2  and  N_14
REMARK    4  A    between atoms: C_15  and  C_17
REMARK    5  A    between atoms: C_17  and  C_19
REMARK    6  A    between atoms: C_17  and  N_23
REMARK    7  A    between atoms: C_19  and  C_20
REMARK    8  A    between atoms: C_20  and  C_21
REMARK    9  A    between atoms: C_20  and  C_22
REMARK                            x       y       z     vdW  Elec       q    Type
REMARK                         _______ _______ _______ _____ _____    ______ ____
ROOT
ATOM      1  N   UNL     1       0.252  -0.976  -1.651  0.00  0.00    -0.310 N 
ATOM      2  C   UNL     1       1.577  -0.956  -1.409  0.00  0.00    +0.199 C 
ATOM      3  O   UNL     1       1.985  -0.820  -0.275  0.00  0.00    -0.278 OA
ATOM      4  H   UNL     1      -0.075  -1.084  -2.558  0.00  0.00    +0.149 HD
ENDROOT
BRANCH   1   6
ATOM      5  C   UNL     1      -0.921   0.652  -0.251  0.00  0.00    +0.033 C 
ATOM      6  C   UNL     1      -0.697  -0.833  -0.543  0.00  0.00    +0.100 C 
BRANCH   6   7
ATOM      7  C   UNL     1      -2.008  -1.475  -0.919  0.00  0.00    -0.027 A 
ATOM      8  C   UNL     1      -2.504  -1.339  -2.202  0.00  0.00    +0.006 A 
ATOM      9  C   UNL     1      -3.706  -1.927  -2.538  0.00  0.00    +0.004 A 
ATOM     10  C   UNL     1      -4.422  -2.656  -1.597  0.00  0.00    -0.044 A 
ATOM     11  C   UNL     1      -3.926  -2.795  -0.320  0.00  0.00    -0.044 A 
ATOM     12  C   UNL     1      -2.714  -2.204   0.015  0.00  0.00    +0.009 A 
ATOM     13  C   UNL     1      -4.640  -3.584   0.746  0.00  0.00    +0.035 C 
ATOM     14  C   UNL     1      -6.105  -3.795   0.367  0.00  0.00    +0.005 C 
ATOM     15  C   UNL     1      -6.159  -4.361  -1.057  0.00  0.00    +0.005 C 
ATOM     16  C   UNL     1      -5.731  -3.264  -2.028  0.00  0.00    +0.035 C 
ENDBRANCH   6   7
ENDBRANCH   1   6
BRANCH   2  17
ATOM     17  C   UNL     1       2.553  -1.102  -2.549  0.00  0.00    +0.013 C 
BRANCH  17  18
ATOM     18  N   UNL     1       3.858  -1.524  -2.024  0.00  0.00    +0.386 N 
ATOM     19  H   UNL     1       4.248  -0.785  -1.458  0.00  0.00    -0.089 HD
ATOM     20  H   UNL     1       3.742  -2.354  -1.461  0.00  0.00    -0.089 HD
ATOM     21  H   UNL     1       4.481  -1.724  -2.792  0.00  0.00    -0.089 HD
ENDBRANCH  17  18
BRANCH  17  22
ATOM     22  C   UNL     1       2.702   0.240  -3.268  0.00  0.00    -0.004 C 
BRANCH  22  23
ATOM     23  C   UNL     1       3.588   0.062  -4.502  0.00  0.00    -0.018 C 
ATOM     24  C   UNL     1       2.880  -0.846  -5.511  0.00  0.00    +0.007 C 
ATOM     25  C   UNL     1       3.852   1.426  -5.142  0.00  0.00    +0.007 C 
ENDBRANCH  22  23
ENDBRANCH  17  22
ENDBRANCH   2  17
TORSDOF 6
