REMARK  Name = ZINC63280792
REMARK  6 active torsions:
REMARK  status: ('A' for Active; 'I' for Inactive)
REMARK    1  A    between atoms: C_1  and  O_2
REMARK    2  A    between atoms: O_2  and  C_3
REMARK    3  A    between atoms: C_6  and  O_9
REMARK    4  A    between atoms: O_9  and  C_10
REMARK    5  A    between atoms: C_10  and  C_11
REMARK    6  A    between atoms: C_14  and  C_21
REMARK                            x       y       z     vdW  Elec       q    Type
REMARK                         _______ _______ _______ _____ _____    ______ ____
ROOT
ATOM      1  C   UNL     1      -6.248  -4.512   0.044  0.00  0.00    +0.132 C 
ATOM      2  N   UNL     1      -7.346  -3.833   0.049  0.00  0.00    -0.175 NA
ATOM      3  N   UNL     1      -8.594  -4.414   0.109  0.00  0.00    -0.206 N 
ATOM      4  C   UNL     1     -10.017  -4.182   0.451  0.00  0.00    +0.202 C 
ATOM      5  N   UNL     1     -10.473  -5.428   1.111  0.00  0.00    -0.231 NA
ATOM      6  N   UNL     1      -9.350  -6.379   1.034  0.00  0.00    -0.224 NA
ATOM      7  C   UNL     1      -8.586  -5.893  -0.132  0.00  0.00    +0.240 C 
ATOM      8  S   UNL     1      -6.793  -6.214   0.045  0.00  0.00    -0.064 S 
ATOM      9  H   UNL     1     -10.735  -5.255   2.070  0.00  0.00    +0.143 HD
ATOM     10  H   UNL     1      -8.790  -6.346   1.873  0.00  0.00    +0.144 HD
ENDROOT
BRANCH   4  11
ATOM     11  C   UNL     1     -10.831  -3.924  -0.819  0.00  0.00    +0.141 C 
ATOM     12  C   UNL     1     -10.261  -2.744  -1.574  0.00  0.00    +0.010 C 
ATOM     13  C   UNL     1     -11.247  -1.820  -1.625  0.00  0.00    -0.004 A 
ATOM     14  C   UNL     1     -11.321  -0.476  -2.211  0.00  0.00    +0.010 A 
ATOM     15  C   UNL     1     -12.471   0.227  -2.098  0.00  0.00    +0.001 A 
ATOM     16  C   UNL     1     -13.591  -0.295  -1.437  0.00  0.00    +0.002 A 
ATOM     17  C   UNL     1     -13.600  -1.521  -0.873  0.00  0.00    +0.026 A 
ATOM     18  C   UNL     1     -12.444  -2.348  -0.932  0.00  0.00    +0.043 A 
ATOM     19  N   UNL     1     -12.207  -3.553  -0.471  0.00  0.00    -0.375 N 
ATOM     20  H   UNL     1     -12.836  -4.107   0.019  0.00  0.00    +0.160 HD
ENDBRANCH   4  11
BRANCH   1  21
ATOM     21  C   UNL     1      -4.834  -3.991   0.033  0.00  0.00    +0.293 C 
BRANCH  21  22
ATOM     22  O   UNL     1      -4.853  -2.562   0.035  0.00  0.00    -0.485 OA
BRANCH  22  26
ATOM     23  C   UNL     1      -1.201  -0.638   0.010  0.00  0.00    +0.120 A 
ATOM     24  C   UNL     1      -2.374   0.102   0.019  0.00  0.00    +0.049 A 
ATOM     25  C   UNL     1      -3.596  -0.542   0.028  0.00  0.00    +0.049 A 
ATOM     26  C   UNL     1      -3.650  -1.928   0.026  0.00  0.00    +0.121 A 
ATOM     27  C   UNL     1      -2.477  -2.668   0.016  0.00  0.00    +0.049 A 
ATOM     28  C   UNL     1      -1.255  -2.024   0.003  0.00  0.00    +0.049 A 
BRANCH  23  30
ATOM     29  C   UNL     1      -0.017   1.425   0.010  0.00  0.00    +0.277 C 
ATOM     30  O   UNL     1       0.002  -0.004   0.002  0.00  0.00    -0.495 OA
ENDBRANCH  23  30
ENDBRANCH  22  26
ENDBRANCH  21  22
ENDBRANCH   1  21
TORSDOF 5
