REMARK  Name = ZINC40750039
REMARK  5 active torsions:
REMARK  status: ('A' for Active; 'I' for Inactive)
REMARK    1  A    between atoms: C_1  and  C_2
REMARK    2  A    between atoms: C_7  and  N_8
REMARK    3  A    between atoms: C_9  and  C_11
REMARK    4  A    between atoms: C_11  and  N_12
REMARK    5  A    between atoms: C_20  and  N_22
REMARK                            x       y       z     vdW  Elec       q    Type
REMARK                         _______ _______ _______ _____ _____    ______ ____
ROOT
ATOM      1  C   UNL     1      -0.169   0.053   4.882  0.00  0.00    +0.181 C 
ENDROOT
BRANCH   1   2
ATOM      2  N   UNL     1      -0.242  -0.907   5.992  0.00  0.00    -0.288 NA
ATOM      3  C   UNL     1      -1.588  -1.536   6.064  0.00  0.00    +0.056 C 
ATOM      4  C   UNL     1      -2.478  -0.455   6.720  0.00  0.00    +0.020 C 
ATOM      5  C   UNL     1      -1.503   0.416   7.538  0.00  0.00    +0.020 C 
ATOM      6  C   UNL     1      -0.112  -0.217   7.303  0.00  0.00    +0.056 C 
ATOM      7  C   UNL     1       0.096  -1.304   8.370  0.00  0.00    +0.003 C 
ATOM      8  C   UNL     1      -1.157  -2.180   8.437  0.00  0.00    -0.072 C 
ATOM      9  C   UNL     1      -1.483  -2.727   7.029  0.00  0.00    +0.003 C 
BRANCH   8  10
ATOM     10  N   UNL     1      -0.918  -3.306   9.350  0.00  0.00    +0.380 N 
ATOM     11  H   UNL     1      -0.705  -2.953  10.271  0.00  0.00    -0.090 HD
ATOM     12  H   UNL     1      -1.744  -3.884   9.394  0.00  0.00    -0.090 HD
ATOM     13  H   UNL     1      -0.142  -3.854   9.012  0.00  0.00    -0.090 HD
ENDBRANCH   8  10
ENDBRANCH   1   2
BRANCH   1  15
ATOM     14  N   UNL     1       0.025  -0.014   2.417  0.00  0.00    -0.284 N 
ATOM     15  C   UNL     1      -0.057  -0.694   3.578  0.00  0.00    +0.231 C 
ATOM     16  O   UNL     1      -0.040  -1.907   3.573  0.00  0.00    -0.274 OA
ATOM     17  H   UNL     1       0.077   0.954   2.425  0.00  0.00    +0.155 HD
BRANCH  14  24
ATOM     18  C   UNL     1      -1.265   1.183   0.181  0.00  0.00    +0.046 C 
ATOM     19  C   UNL     1      -0.584  -0.158   0.084  0.00  0.00    -0.028 A 
ATOM     20  C   UNL     1      -0.569  -0.841  -1.116  0.00  0.00    +0.019 A 
ATOM     21  C   UNL     1       0.056  -2.071  -1.206  0.00  0.00    +0.014 A 
ATOM     22  C   UNL     1       0.668  -2.622  -0.094  0.00  0.00    +0.016 A 
ATOM     23  C   UNL     1       0.656  -1.944   1.109  0.00  0.00    +0.024 A 
ATOM     24  C   UNL     1       0.034  -0.706   1.201  0.00  0.00    +0.036 A 
ATOM     25  I   UNL     1       0.076  -3.103  -3.029  0.00  0.00    -0.044 I 
ENDBRANCH  14  24
ENDBRANCH   1  15
TORSDOF 4
