REMARK  Name = ZINC02018385
REMARK  6 active torsions:
REMARK  status: ('A' for Active; 'I' for Inactive)
REMARK    1  A    between atoms: C_1  and  O_2
REMARK    2  A    between atoms: O_2  and  C_3
REMARK    3  A    between atoms: C_8  and  O_9
REMARK    4  A    between atoms: C_16  and  O_24
REMARK    5  A    between atoms: C_17  and  O_22
REMARK    6  A    between atoms: O_22  and  C_23
REMARK                            x       y       z     vdW  Elec       q    Type
REMARK                         _______ _______ _______ _____ _____    ______ ____
ROOT
ATOM      1  C   UNL     1      -3.771  -6.013   5.330  0.00  0.00    +0.162 A 
ATOM      2  C   UNL     1      -2.529  -5.817   4.751  0.00  0.00    +0.053 A 
ATOM      3  C   UNL     1      -2.186  -4.579   4.231  0.00  0.00    -0.044 A 
ATOM      4  C   UNL     1      -3.080  -3.531   4.288  0.00  0.00    -0.054 A 
ATOM      5  C   UNL     1      -4.327  -3.724   4.868  0.00  0.00    +0.051 A 
ATOM      6  C   UNL     1      -4.676  -4.957   5.388  0.00  0.00    +0.159 A 
ATOM      7  C   UNL     1      -2.758  -2.166   3.740  0.00  0.00    -0.032 C 
ATOM      8  C   UNL     1      -3.942  -1.681   2.899  0.00  0.00    +0.025 C 
ATOM      9  C   UNL     1      -3.581  -0.405   2.185  0.00  0.00    -0.044 A 
ATOM     10  C   UNL     1      -4.604   0.382   1.677  0.00  0.00    +0.007 A 
ATOM     11  C   UNL     1      -4.319   1.555   1.007  0.00  0.00    +0.049 A 
ATOM     12  C   UNL     1      -3.001   1.952   0.843  0.00  0.00    +0.159 A 
ATOM     13  C   UNL     1      -1.976   1.163   1.348  0.00  0.00    +0.163 A 
ATOM     14  C   UNL     1      -2.268  -0.016   2.026  0.00  0.00    -0.015 A 
ATOM     15  C   UNL     1      -1.126  -0.827   2.577  0.00  0.00    -0.038 C 
ATOM     16  C   UNL     1      -0.468  -2.927   3.553  0.00  0.00    -0.073 C 
ATOM     17  C   UNL     1      -0.824  -4.412   3.607  0.00  0.00    +0.017 C 
ATOM     18  N   UNL     1      -1.561  -2.200   2.877  0.00  0.00    +0.387 N 
ATOM     19  H   UNL     1      -1.793  -2.680   1.999  0.00  0.00    -0.080 HD
ENDROOT
BRANCH   1  21
ATOM     20  C   UNL     1      -3.123  -8.263   5.744  0.00  0.00    +0.277 C 
ATOM     21  O   UNL     1      -4.104  -7.229   5.840  0.00  0.00    -0.491 OA
ENDBRANCH   1  21
BRANCH   6  22
ATOM     22  O   UNL     1      -5.899  -5.138   5.955  0.00  0.00    -0.503 OA
ATOM     23  H   UNL     1      -5.924  -4.952   6.903  0.00  0.00    +0.292 HD
ENDBRANCH   6  22
BRANCH  13  24
ATOM     24  O   UNL     1      -0.682   1.547   1.184  0.00  0.00    -0.491 OA
ATOM     25  C   UNL     1      -0.013   1.086   0.008  0.00  0.00    +0.277 C 
ENDBRANCH  13  24
BRANCH  12  26
ATOM     26  O   UNL     1      -2.713   3.108   0.186  0.00  0.00    -0.503 OA
ATOM     27  H   UNL     1      -2.595   2.999  -0.767  0.00  0.00    +0.292 HD
ENDBRANCH  12  26
TORSDOF 4
