REMARK  Name = ZINC49533744
REMARK  7 active torsions:
REMARK  status: ('A' for Active; 'I' for Inactive)
REMARK    1  A    between atoms: C_1  and  C_2
REMARK    2  A    between atoms: C_3  and  C_8
REMARK    3  A    between atoms: C_5  and  C_7
REMARK    4  A    between atoms: C_8  and  C_10
REMARK    5  A    between atoms: C_8  and  N_11
REMARK    6  A    between atoms: N_11  and  C_12
REMARK    7  A    between atoms: C_15  and  N_22
REMARK                            x       y       z     vdW  Elec       q    Type
REMARK                         _______ _______ _______ _____ _____    ______ ____
ROOT
ATOM      1  C   UNL     1       1.531  -0.395  -4.520  0.00  0.00    +0.052 A 
ATOM      2  C   UNL     1       1.159   0.872  -4.913  0.00  0.00    +0.027 A 
ATOM      3  C   UNL     1       1.701   1.454  -6.054  0.00  0.00    +0.025 A 
ATOM      4  C   UNL     1       2.624   0.775  -6.821  0.00  0.00    +0.034 A 
ATOM      5  C   UNL     1       3.024  -0.523  -6.444  0.00  0.00    +0.021 A 
ATOM      6  C   UNL     1       2.478  -1.115  -5.279  0.00  0.00    +0.069 A 
ATOM      7  N   UNL     1       2.858  -2.344  -4.916  0.00  0.00    -0.359 N 
ATOM      8  C   UNL     1       3.738  -3.019  -5.615  0.00  0.00    +0.083 A 
ATOM      9  C   UNL     1       4.318  -2.493  -6.767  0.00  0.00    +0.018 A 
ATOM     10  C   UNL     1       3.963  -1.246  -7.200  0.00  0.00    +0.013 A 
ATOM     11  H   UNL     1       2.476  -2.744  -4.119  0.00  0.00    +0.165 HD
ENDROOT
BRANCH   4  12
ATOM     12  N   UNL     1       3.160   1.371  -7.965  0.00  0.00    -0.357 N 
ATOM     13  H   UNL     1       2.883   2.264  -8.222  0.00  0.00    +0.142 HD
ATOM     14  H   UNL     1       3.810   0.891  -8.502  0.00  0.00    +0.142 HD
ENDBRANCH   4  12
BRANCH   1  15
ATOM     15  N   UNL     1       0.975  -0.964  -3.369  0.00  0.00    -0.335 N 
ATOM     16  H   UNL     1       1.240  -1.855  -3.092  0.00  0.00    +0.147 HD
BRANCH  15  17
ATOM     17  C   UNL     1      -0.008  -0.215  -2.583  0.00  0.00    +0.106 C 
ATOM     18  C   UNL     1      -1.402  -0.420  -3.180  0.00  0.00    +0.033 C 
BRANCH  17  21
ATOM     19  C   UNL     1      -0.018   1.503   0.010  0.00  0.00    +0.066 C 
ATOM     20  C   UNL     1       0.002  -0.004   0.002  0.00  0.00    +0.051 A 
ATOM     21  C   UNL     1       0.006  -0.708  -1.159  0.00  0.00    +0.032 A 
ATOM     22  S   UNL     1       0.032  -2.379  -0.531  0.00  0.00    -0.075 S 
ATOM     23  C   UNL     1       0.036  -2.009   1.111  0.00  0.00    +0.076 A 
ATOM     24  N   UNL     1       0.023  -0.699   1.122  0.00  0.00    -0.249 NA
ATOM     25  C   UNL     1       0.055  -2.955   2.284  0.00  0.00    +0.073 C 
ENDBRANCH  17  21
ENDBRANCH  15  17
ENDBRANCH   1  15
TORSDOF 4
