REMARK  Name = ZINC63372377
REMARK  2 active torsions:
REMARK  status: ('A' for Active; 'I' for Inactive)
REMARK    1  A    between atoms: C_8  and  C_16
REMARK    2  A    between atoms: N_22  and  C_25
REMARK                            x       y       z     vdW  Elec       q    Type
REMARK                         _______ _______ _______ _____ _____    ______ ____
ROOT
ATOM      1  C   UNL     1       5.362  -2.670   0.358  0.00  0.00    +0.101 A 
ATOM      2  C   UNL     1       5.622  -3.904  -0.264  0.00  0.00    +0.263 A 
ATOM      3  N   UNL     1       6.744  -4.582   0.046  0.00  0.00    -0.274 N 
ATOM      4  H   UNL     1       6.926  -5.433  -0.381  0.00  0.00    +0.173 HD
ATOM      5  C   UNL     1       7.615  -4.086   0.944  0.00  0.00    +0.337 A 
ATOM      6  O   UNL     1       8.623  -4.712   1.210  0.00  0.00    -0.246 OA
ATOM      7  N   UNL     1       7.388  -2.907   1.551  0.00  0.00    -0.229 N 
ATOM      8  C   UNL     1       6.259  -2.181   1.260  0.00  0.00    +0.270 A 
ATOM      9  O   UNL     1       6.036  -0.995   1.867  0.00  0.00    -0.267 OA
ATOM     10  O   UNL     1       4.836  -4.358  -1.078  0.00  0.00    -0.267 OA
ENDROOT
BRANCH   1  17
ATOM     11  C   UNL     1       2.705   2.536  -3.322  0.00  0.00    +0.001 A 
ATOM     12  C   UNL     1       4.085   2.771  -3.251  0.00  0.00    +0.002 A 
ATOM     13  C   UNL     1       4.950   1.871  -2.737  0.00  0.00    +0.026 A 
ATOM     14  C   UNL     1       4.484   0.625  -2.238  0.00  0.00    +0.043 A 
ATOM     15  N   UNL     1       5.114  -0.384  -1.679  0.00  0.00    -0.376 N 
ATOM     16  C   UNL     1       4.153  -1.455  -1.440  0.00  0.00    +0.128 C 
ATOM     17  C   UNL     1       4.112  -1.895   0.026  0.00  0.00    +0.121 C 
ATOM     18  N   UNL     1       2.931  -2.751   0.220  0.00  0.00    -0.307 NA
ATOM     19  C   UNL     1       1.664  -2.030   0.067  0.00  0.00    +0.086 C 
ATOM     20  C   UNL     1       1.504  -1.546  -1.386  0.00  0.00    +0.048 C 
ATOM     21  C   UNL     1       2.794  -0.854  -1.766  0.00  0.00    -0.035 C 
ATOM     22  C   UNL     1       3.025   0.354  -2.293  0.00  0.00    -0.001 A 
ATOM     23  C   UNL     1       2.155   1.386  -2.872  0.00  0.00    +0.010 A 
ATOM     24  H   UNL     1       2.965  -3.556  -0.386  0.00  0.00    +0.123 HD
ATOM     25  H   UNL     1       6.059  -0.411  -1.462  0.00  0.00    +0.160 HD
ENDBRANCH   1  17
BRANCH   7  26
ATOM     26  C   UNL     1       8.312  -2.413   2.482  0.00  0.00    +0.057 A 
ATOM     27  C   UNL     1       9.357  -1.601   2.061  0.00  0.00    +0.026 A 
ATOM     28  C   UNL     1      10.266  -1.115   2.980  0.00  0.00    +0.005 A 
ATOM     29  C   UNL     1      10.139  -1.437   4.319  0.00  0.00    +0.038 A 
ATOM     30  C   UNL     1       9.098  -2.247   4.742  0.00  0.00    +0.125 A 
ATOM     31  C   UNL     1       8.181  -2.731   3.827  0.00  0.00    +0.064 A 
ATOM     32  F   UNL     1       8.976  -2.560   6.051  0.00  0.00    -0.205 F 
ENDBRANCH   7  26
TORSDOF 2
