REMARK  Name = ZINC31947375
REMARK  8 active torsions:
REMARK  status: ('A' for Active; 'I' for Inactive)
REMARK    1  A    between atoms: C_1  and  C_2
REMARK    2  A    between atoms: C_2  and  C_3
REMARK    3  A    between atoms: C_2  and  C_4
REMARK    4  A    between atoms: C_2  and  C_5
REMARK    5  A    between atoms: N_16  and  C_23
REMARK    6  A    between atoms: N_19  and  C_20
REMARK    7  A    between atoms: C_20  and  C_21
REMARK    8  A    between atoms: C_21  and  N_22
REMARK                            x       y       z     vdW  Elec       q    Type
REMARK                         _______ _______ _______ _____ _____    ______ ____
ROOT
ATOM      1  C   UNL     1       0.718  -0.497  -1.257  0.00  0.00    -0.000 C 
ATOM      2  C   UNL     1       0.748  -2.029  -1.264  0.00  0.00    +0.009 C 
ATOM      3  C   UNL     1       1.239  -2.533  -2.621  0.00  0.00    +0.037 C 
ATOM      4  C   UNL     1       2.560  -1.847  -2.959  0.00  0.00    -0.023 A 
ATOM      5  C   UNL     1       2.925  -0.709  -2.326  0.00  0.00    -0.004 A 
ATOM      6  S   UNL     1       4.499  -0.274  -3.021  0.00  0.00    -0.073 S 
ATOM      7  C   UNL     1       4.665  -1.615  -4.156  0.00  0.00    +0.117 A 
ATOM      8  C   UNL     1       3.483  -2.363  -3.956  0.00  0.00    +0.076 A 
ATOM      9  C   UNL     1       3.315  -3.546  -4.748  0.00  0.00    +0.264 A 
ATOM     10  O   UNL     1       2.330  -4.257  -4.648  0.00  0.00    -0.267 OA
ATOM     11  N   UNL     1       4.318  -3.825  -5.614  0.00  0.00    -0.284 N 
ATOM     12  C   UNL     1       5.425  -3.044  -5.741  0.00  0.00    +0.199 A 
ATOM     13  N   UNL     1       5.613  -1.944  -5.026  0.00  0.00    -0.208 NA
ATOM     14  N   UNL     1       6.387  -3.411  -6.649  0.00  0.00    -0.317 N 
ATOM     15  C   UNL     1       4.205  -5.021  -6.452  0.00  0.00    +0.155 C 
ATOM     16  C   UNL     1       2.162   0.025  -1.267  0.00  0.00    +0.046 C 
ATOM     17  H   UNL     1       6.254  -4.319  -7.255  0.00  0.00    +0.149 HD
ENDROOT
BRANCH   1  19
ATOM     18  C   UNL     1      -0.019   1.526   0.010  0.00  0.00    +0.011 C 
ATOM     19  C   UNL     1       0.002  -0.004   0.002  0.00  0.00    -0.035 C 
ATOM     20  C   UNL     1       0.742  -0.511   1.242  0.00  0.00    +0.011 C 
ATOM     21  C   UNL     1      -1.433  -0.534   0.013  0.00  0.00    +0.011 C 
ENDBRANCH   1  19
BRANCH  14  22
ATOM     22  C   UNL     1       7.591  -2.592  -6.811  0.00  0.00    +0.085 C 
BRANCH  22  23
ATOM     23  C   UNL     1       8.494  -3.217  -7.877  0.00  0.00    -0.067 C 
BRANCH  23  24
ATOM     24  N   UNL     1       9.701  -2.397  -8.039  0.00  0.00    +0.379 N 
ATOM     25  H   UNL     1      10.350  -2.846  -8.805  0.00  0.00    -0.090 HD
ATOM     26  H   UNL     1      10.242  -2.348  -7.082  0.00  0.00    -0.090 HD
ATOM     27  H   UNL     1       9.415  -1.381  -8.350  0.00  0.00    -0.090 HD
ENDBRANCH  23  24
ENDBRANCH  22  23
ENDBRANCH  14  22
TORSDOF 4
