REMARK  Name = ZINC23038639
REMARK  12 active torsions:
REMARK  status: ('A' for Active; 'I' for Inactive)
REMARK    1  A    between atoms: C_1  and  C_2
REMARK    2  A    between atoms: C_4  and  C_15
REMARK    3  A    between atoms: C_5  and  C_14
REMARK    4  A    between atoms: N_6  and  C_7
REMARK    5  A    between atoms: C_7  and  C_8
REMARK    6  A    between atoms: C_8  and  C_9
REMARK    7  A    between atoms: C_15  and  C_17
REMARK    8  A    between atoms: C_17  and  N_18
REMARK    9  A    between atoms: N_18  and  C_19
REMARK   10  A    between atoms: N_18  and  C_20
REMARK   11  A    between atoms: C_20  and  C_21
REMARK   12  A    between atoms: N_23  and  C_24
REMARK                            x       y       z     vdW  Elec       q    Type
REMARK                         _______ _______ _______ _____ _____    ______ ____
ROOT
ATOM      1  C   UNL     1      -6.900  -2.180   1.499  0.00  0.00    +0.149 C 
ATOM      2  O   UNL     1      -6.340  -3.256   1.485  0.00  0.00    -0.294 OA
ENDROOT
BRANCH   1   6
ATOM      3  C   UNL     1      -5.587   2.743   1.575  0.00  0.00    +0.063 C 
ATOM      4  C   UNL     1      -5.551   1.236   1.548  0.00  0.00    +0.017 A 
ATOM      5  C   UNL     1      -6.627   0.432   1.532  0.00  0.00    +0.034 A 
ATOM      6  C   UNL     1      -6.114  -0.945   1.514  0.00  0.00    +0.036 A 
ATOM      7  C   UNL     1      -4.736  -0.835   1.514  0.00  0.00    +0.026 A 
ATOM      8  N   UNL     1      -4.420   0.472   1.531  0.00  0.00    -0.347 N 
ATOM      9  C   UNL     1      -3.757  -1.981   1.498  0.00  0.00    +0.064 C 
BRANCH   8  10
ATOM     10  C   UNL     1      -3.054   1.002   1.536  0.00  0.00    +0.127 C 
BRANCH  10  11
ATOM     11  C   UNL     1      -2.580   1.205   0.096  0.00  0.00    +0.064 C 
BRANCH  11  12
ATOM     12  C   UNL     1      -1.174   1.749   0.101  0.00  0.00    -0.009 A 
ATOM     13  C   UNL     1       0.002   1.076   0.091  0.00  0.00    +0.011 A 
ATOM     14  C   UNL     1       1.184   1.792   0.093  0.00  0.00    +0.008 A 
ATOM     15  C   UNL     1       1.132   3.147   0.110  0.00  0.00    +0.045 A 
ATOM     16  S   UNL     1      -0.627   3.448   0.124  0.00  0.00    -0.102 S 
ENDBRANCH  11  12
ENDBRANCH  10  11
ENDBRANCH   8  10
ENDBRANCH   1   6
BRANCH   1  17
ATOM     17  C   UNL     1      -8.406  -2.114   1.502  0.00  0.00    +0.002 C 
BRANCH  17  18
ATOM     18  N   UNL     1      -8.956  -3.476   1.485  0.00  0.00    +0.388 N 
ATOM     19  C   UNL     1      -8.637  -4.157   0.223  0.00  0.00    -0.095 C 
ATOM     20  H   UNL     1      -8.483  -4.041   2.302  0.00  0.00    -0.081 HD
BRANCH  18  21
ATOM     21  C   UNL     1     -10.405  -3.462   1.725  0.00  0.00    +0.019 C 
BRANCH  21  22
ATOM     22  C   UNL     1     -10.891  -4.872   1.945  0.00  0.00    +0.201 C 
ATOM     23  O   UNL     1     -10.108  -5.797   1.906  0.00  0.00    -0.278 OA
ATOM     24  N   UNL     1     -12.197  -5.104   2.185  0.00  0.00    -0.286 N 
ATOM     25  H   UNL     1     -12.895  -4.261   2.294  0.00  0.00    +0.155 HD
BRANCH  24  26
ATOM     26  C   UNL     1     -12.665  -6.418   2.296  0.00  0.00    +0.047 A 
ATOM     27  C   UNL     1     -11.862  -7.397   2.867  0.00  0.00    +0.024 A 
ATOM     28  C   UNL     1     -12.328  -8.693   2.978  0.00  0.00    +0.002 A 
ATOM     29  C   UNL     1     -13.589  -9.018   2.515  0.00  0.00    +0.001 A 
ATOM     30  C   UNL     1     -14.390  -8.047   1.942  0.00  0.00    +0.017 A 
ATOM     31  C   UNL     1     -13.932  -6.748   1.831  0.00  0.00    +0.039 A 
ATOM     32 BR   UNL     1     -15.027  -5.421   1.046  0.00  0.00    -0.048 Br
ENDBRANCH  24  26
ENDBRANCH  21  22
ENDBRANCH  18  21
ENDBRANCH  17  18
ENDBRANCH   1  17
TORSDOF 9
