REMARK  Name = ZINC26363228
REMARK  9 active torsions:
REMARK  status: ('A' for Active; 'I' for Inactive)
REMARK    1  A    between atoms: C_1  and  C_2
REMARK    2  A    between atoms: C_2  and  C_4
REMARK    3  A    between atoms: C_2  and  N_11
REMARK    4  A    between atoms: N_11  and  C_12
REMARK    5  A    between atoms: C_12  and  C_14
REMARK    6  A    between atoms: C_12  and  C_15
REMARK    7  A    between atoms: N_20  and  C_21
REMARK    8  A    between atoms: C_21  and  C_22
REMARK    9  A    between atoms: C_22  and  C_23
REMARK                            x       y       z     vdW  Elec       q    Type
REMARK                         _______ _______ _______ _____ _____    ______ ____
ROOT
ATOM      1  C   UNL     1      -0.467   1.392  -4.731  0.00  0.00    +0.206 C 
ATOM      2  O   UNL     1       0.527   0.709  -4.856  0.00  0.00    -0.277 OA
ATOM      3  N   UNL     1      -0.920   1.705  -3.501  0.00  0.00    -0.242 N 
ATOM      4  C   UNL     1      -0.268   1.258  -2.409  0.00  0.00    +0.306 C 
ATOM      5  O   UNL     1       0.728   0.574  -2.534  0.00  0.00    -0.252 OA
ATOM      6  N   UNL     1      -0.721   1.571  -1.179  0.00  0.00    -0.299 N 
ATOM      7  H   UNL     1      -1.822   2.325  -3.388  0.00  0.00    +0.159 HD
ATOM      8  H   UNL     1      -1.623   2.191  -1.066  0.00  0.00    +0.150 HD
ENDROOT
BRANCH   1   9
ATOM      9  C   UNL     1      -1.196   1.891  -5.952  0.00  0.00    +0.014 C 
ATOM     10  C   UNL     1      -1.216   3.421  -5.944  0.00  0.00    -0.004 C 
BRANCH   9  11
ATOM     11  N   UNL     1      -0.508   1.418  -7.161  0.00  0.00    +0.391 N 
ATOM     12  H   UNL     1      -0.095   0.417  -6.962  0.00  0.00    -0.084 HD
ATOM     13  H   UNL     1       0.311   2.113  -7.396  0.00  0.00    -0.084 HD
BRANCH  11  15
ATOM     14  C   UNL     1      -2.173   0.010  -8.275  0.00  0.00    -0.009 C 
ATOM     15  C   UNL     1      -1.433   1.349  -8.300  0.00  0.00    -0.042 C 
BRANCH  15  16
ATOM     16  C   UNL     1      -0.657   1.470  -9.585  0.00  0.00    -0.043 A 
ATOM     17  C   UNL     1       0.678   1.113  -9.623  0.00  0.00    +0.003 A 
ATOM     18  C   UNL     1       1.389   1.221 -10.803  0.00  0.00    +0.000 A 
ATOM     19  C   UNL     1       0.769   1.694 -11.945  0.00  0.00    +0.001 A 
ATOM     20  C   UNL     1      -0.565   2.055 -11.907  0.00  0.00    +0.020 A 
ATOM     21  C   UNL     1      -1.278   1.944 -10.727  0.00  0.00    +0.043 A 
ATOM     22 CL   UNL     1      -2.953   2.398 -10.679  0.00  0.00    -0.083 Cl
ENDBRANCH  15  16
ENDBRANCH  11  15
ENDBRANCH   9  11
ENDBRANCH   1   9
BRANCH   6  23
ATOM     23  C   UNL     1      -0.013   1.086   0.008  0.00  0.00    +0.111 C 
BRANCH  23  24
ATOM     24  C   UNL     1      -0.729   1.579   1.267  0.00  0.00    +0.061 C 
BRANCH  24  25
ATOM     25  C   UNL     1       0.000   1.080   2.488  0.00  0.00    -0.009 A 
ATOM     26  C   UNL     1       1.013   1.663   3.175  0.00  0.00    +0.011 A 
ATOM     27  C   UNL     1       1.532   1.016   4.281  0.00  0.00    +0.008 A 
ATOM     28  C   UNL     1       1.019  -0.187   4.639  0.00  0.00    +0.045 A 
ATOM     29  S   UNL     1      -0.241  -0.436   3.400  0.00  0.00    -0.102 S 
ENDBRANCH  24  25
ENDBRANCH  23  24
ENDBRANCH   6  23
TORSDOF 7
