REMARK  Name = ZINC41070086
REMARK  7 active torsions:
REMARK  status: ('A' for Active; 'I' for Inactive)
REMARK    1  A    between atoms: C_1  and  C_2
REMARK    2  A    between atoms: C_2  and  C_4
REMARK    3  A    between atoms: C_2  and  N_9
REMARK    4  A    between atoms: N_9  and  S_10
REMARK    5  A    between atoms: S_10  and  C_13
REMARK    6  A    between atoms: C_18  and  N_19
REMARK    7  A    between atoms: N_19  and  N_20
REMARK                            x       y       z     vdW  Elec       q    Type
REMARK                         _______ _______ _______ _____ _____    ______ ____
ROOT
ATOM      1  S   UNL     1      -0.171  -0.903  -2.362  0.00  0.00    +0.062 S 
ATOM      2  O   UNL     1       0.658  -1.514  -3.341  0.00  0.00    -0.153 OA
ATOM      3  O   UNL     1      -1.193  -1.614  -1.678  0.00  0.00    -0.153 OA
ENDROOT
BRANCH   1   4
ATOM      4  C   UNL     1      -0.951   0.468  -3.148  0.00  0.00    +0.147 A 
ATOM      5  C   UNL     1      -2.320   0.644  -3.054  0.00  0.00    +0.048 A 
ATOM      6  C   UNL     1      -2.893   1.739  -3.689  0.00  0.00    +0.038 A 
ATOM      7  C   UNL     1      -2.085   2.612  -4.391  0.00  0.00    +0.128 A 
ATOM      8  N   UNL     1      -0.781   2.418  -4.464  0.00  0.00    -0.236 NA
ATOM      9  C   UNL     1      -0.198   1.390  -3.867  0.00  0.00    +0.159 A 
ATOM     10 BR   UNL     1      -4.759   2.030  -3.595  0.00  0.00    -0.049 Br
BRANCH   9  11
ATOM     11  N   UNL     1       1.179   1.228  -3.965  0.00  0.00    -0.266 N 
ATOM     12  H   UNL     1       1.614   0.486  -3.516  0.00  0.00    +0.167 HD
BRANCH  11  13
ATOM     13  N   UNL     1       1.922   2.114  -4.693  0.00  0.00    -0.255 NA
ATOM     14  H   UNL     1       2.900   1.869  -4.673  0.00  0.00    +0.140 HD
ATOM     15  H   UNL     1       1.584   2.174  -5.642  0.00  0.00    +0.140 HD
ENDBRANCH  11  13
ENDBRANCH   9  11
ENDBRANCH   1   4
BRANCH   1  16
ATOM     16  N   UNL     1       0.839  -0.291  -1.201  0.00  0.00    -0.180 NA
ATOM     17  H   UNL     1       1.797  -0.425  -1.273  0.00  0.00    +0.149 HD
BRANCH  16  19
ATOM     18  C   UNL     1       0.901   1.851  -0.024  0.00  0.00    +0.034 C 
ATOM     19  C   UNL     1       0.286   0.451  -0.066  0.00  0.00    +0.139 C 
BRANCH  19  20
ATOM     20  C   UNL     1       0.605  -0.277   1.214  0.00  0.00    +0.123 A 
ATOM     21  C   UNL     1      -0.226  -0.430   2.260  0.00  0.00    +0.046 A 
ATOM     22  C   UNL     1       0.477  -1.172   3.237  0.00  0.00    +0.041 A 
ATOM     23  C   UNL     1       1.696  -1.427   2.730  0.00  0.00    +0.195 A 
ATOM     24  O   UNL     1       1.766  -0.888   1.502  0.00  0.00    -0.466 OA
ENDBRANCH  19  20
ENDBRANCH  16  19
ENDBRANCH   1  16
TORSDOF 6
