REMARK  Name = ZINC50419625
REMARK  9 active torsions:
REMARK  status: ('A' for Active; 'I' for Inactive)
REMARK    1  A    between atoms: C_1  and  C_2
REMARK    2  A    between atoms: C_2  and  C_4
REMARK    3  A    between atoms: C_2  and  N_10
REMARK    4  A    between atoms: N_8  and  C_9
REMARK    5  A    between atoms: N_10  and  S_11
REMARK    6  A    between atoms: S_11  and  C_14
REMARK    7  A    between atoms: C_14  and  C_15
REMARK    8  A    between atoms: C_18  and  C_21
REMARK    9  A    between atoms: C_21  and  N_22
REMARK                            x       y       z     vdW  Elec       q    Type
REMARK                         _______ _______ _______ _____ _____    ______ ____
ROOT
ATOM      1  S   UNL     1      -2.119  -0.907  -1.411  0.00  0.00    +0.034 S 
ATOM      2  O   UNL     1      -3.422  -1.330  -1.032  0.00  0.00    -0.158 OA
ATOM      3  O   UNL     1      -1.941   0.231  -2.243  0.00  0.00    -0.158 OA
ENDROOT
BRANCH   1   4
ATOM      4  N   UNL     1      -1.372  -0.511   0.012  0.00  0.00    -0.184 NA
ATOM      5  H   UNL     1      -1.845  -0.615   0.853  0.00  0.00    +0.148 HD
BRANCH   4   7
ATOM      6  C   UNL     1      -0.019   1.526   0.010  0.00  0.00    +0.034 C 
ATOM      7  C   UNL     1       0.002  -0.004   0.002  0.00  0.00    +0.141 C 
BRANCH   7   8
ATOM      8  C   UNL     1       0.731  -0.503   1.223  0.00  0.00    +0.151 A 
ATOM      9  N   UNL     1       0.271  -0.523   2.444  0.00  0.00    -0.133 NA
ATOM     10  N   UNL     1       1.159  -1.015   3.233  0.00  0.00    -0.138 NA
ATOM     11  C   UNL     1       2.226  -1.331   2.551  0.00  0.00    +0.224 A 
ATOM     12  N   UNL     1       1.983  -1.020   1.255  0.00  0.00    -0.319 N 
ATOM     13  C   UNL     1       2.890  -1.204   0.120  0.00  0.00    +0.151 C 
ENDBRANCH   7   8
ENDBRANCH   4   7
ENDBRANCH   1   4
BRANCH   1  14
ATOM     14  C   UNL     1      -1.171  -2.311  -2.061  0.00  0.00    +0.220 C 
BRANCH  14  15
ATOM     15  C   UNL     1      -1.769  -2.759  -3.369  0.00  0.00    -0.025 A 
ATOM     16  C   UNL     1      -2.766  -3.717  -3.382  0.00  0.00    +0.005 A 
ATOM     17  C   UNL     1      -3.314  -4.128  -4.582  0.00  0.00    +0.002 A 
ATOM     18  C   UNL     1      -2.867  -3.580  -5.770  0.00  0.00    -0.065 A 
ATOM     19  C   UNL     1      -1.872  -2.622  -5.758  0.00  0.00    +0.002 A 
ATOM     20  C   UNL     1      -1.326  -2.208  -4.557  0.00  0.00    +0.005 A 
BRANCH  18  21
ATOM     21  C   UNL     1      -3.465  -4.029  -7.079  0.00  0.00    -0.051 C 
BRANCH  21  22
ATOM     22  N   UNL     1      -4.618  -3.181  -7.407  0.00  0.00    +0.381 N 
ATOM     23  H   UNL     1      -5.311  -3.258  -6.677  0.00  0.00    -0.090 HD
ATOM     24  H   UNL     1      -4.318  -2.221  -7.486  0.00  0.00    -0.090 HD
ATOM     25  H   UNL     1      -5.019  -3.482  -8.283  0.00  0.00    -0.090 HD
ENDBRANCH  21  22
ENDBRANCH  18  21
ENDBRANCH  14  15
ENDBRANCH   1  14
TORSDOF 7
