REMARK  Name = ZINC63384173
REMARK  8 active torsions:
REMARK  status: ('A' for Active; 'I' for Inactive)
REMARK    1  A    between atoms: C_1  and  S_2
REMARK    2  A    between atoms: S_2  and  C_3
REMARK    3  A    between atoms: C_3  and  C_4
REMARK    4  A    between atoms: C_4  and  C_5
REMARK    5  A    between atoms: C_5  and  C_7
REMARK    6  A    between atoms: C_5  and  N_16
REMARK    7  A    between atoms: N_9  and  C_10
REMARK    8  A    between atoms: C_17  and  C_19
REMARK                            x       y       z     vdW  Elec       q    Type
REMARK                         _______ _______ _______ _____ _____    ______ ____
ROOT
ATOM      1  C   UNL     1       0.194  -0.127  -5.733  0.00  0.00    +0.167 C 
ATOM      2  C   UNL     1       0.561  -0.964  -6.974  0.00  0.00    +0.065 C 
ATOM      3  C   UNL     1       1.147  -0.015  -7.989  0.00  0.00    -0.034 C 
ATOM      4  C   UNL     1       0.845   0.173  -9.270  0.00  0.00    -0.001 A 
ATOM      5  C   UNL     1      -0.087  -0.528 -10.167  0.00  0.00    +0.010 A 
ATOM      6  C   UNL     1      -0.164  -0.056 -11.440  0.00  0.00    +0.001 A 
ATOM      7  C   UNL     1       0.584   1.031 -11.903  0.00  0.00    +0.002 A 
ATOM      8  C   UNL     1       1.470   1.730 -11.149  0.00  0.00    +0.026 A 
ATOM      9  C   UNL     1       1.642   1.323  -9.794  0.00  0.00    +0.043 A 
ATOM     10  N   UNL     1       2.424   1.793  -8.868  0.00  0.00    -0.375 N 
ATOM     11  C   UNL     1       2.261   0.972  -7.667  0.00  0.00    +0.131 C 
ATOM     12  C   UNL     1       1.804   1.796  -6.465  0.00  0.00    +0.134 C 
ATOM     13  N   UNL     1       0.491   1.281  -6.027  0.00  0.00    -0.276 N 
ATOM     14  C   UNL     1      -0.375   2.311  -5.962  0.00  0.00    +0.248 C 
ATOM     15  O   UNL     1      -1.504   2.245  -5.518  0.00  0.00    -0.270 OA
ATOM     16  C   UNL     1       0.244   3.521  -6.506  0.00  0.00    +0.042 A 
ATOM     17  C   UNL     1       1.609   3.233  -6.825  0.00  0.00    -0.013 A 
ATOM     18  C   UNL     1       2.464   4.172  -7.356  0.00  0.00    +0.006 A 
ATOM     19  C   UNL     1       1.950   5.449  -7.563  0.00  0.00    +0.000 A 
ATOM     20  C   UNL     1       0.644   5.767  -7.251  0.00  0.00    +0.001 A 
ATOM     21  C   UNL     1      -0.280   4.800  -6.714  0.00  0.00    +0.013 A 
ATOM     22  H   UNL     1       3.014   2.558  -8.957  0.00  0.00    +0.160 HD
ENDROOT
BRANCH   1  24
ATOM     23  N   UNL     1       0.907  -1.853  -4.112  0.00  0.00    -0.302 N 
ATOM     24  C   UNL     1       1.010  -0.583  -4.552  0.00  0.00    +0.235 C 
ATOM     25  O   UNL     1       1.760   0.192  -3.997  0.00  0.00    -0.274 OA
ATOM     26  H   UNL     1       0.307  -2.473  -4.556  0.00  0.00    +0.150 HD
BRANCH  23  27
ATOM     27  C   UNL     1       1.701  -2.297  -2.963  0.00  0.00    +0.160 C 
BRANCH  27  28
ATOM     28  C   UNL     1       1.900  -3.789  -3.037  0.00  0.00    +0.234 C 
ATOM     29  O   UNL     1       1.426  -4.419  -3.958  0.00  0.00    -0.274 OA
ATOM     30  N   UNL     1       2.605  -4.423  -2.079  0.00  0.00    -0.311 N 
ATOM     31  H   UNL     1       2.985  -3.918  -1.342  0.00  0.00    +0.149 HD
BRANCH  30  32
ATOM     32  C   UNL     1       2.799  -5.873  -2.150  0.00  0.00    +0.073 C 
ATOM     33  C   UNL     1       1.595  -6.580  -1.526  0.00  0.00    +0.022 C 
ATOM     34  C   UNL     1       1.797  -8.095  -1.600  0.00  0.00    +0.002 C 
ATOM     35  C   UNL     1       3.066  -8.478  -0.836  0.00  0.00    +0.000 C 
ATOM     36  C   UNL     1       4.271  -7.771  -1.461  0.00  0.00    +0.002 C 
ATOM     37  C   UNL     1       4.068  -6.256  -1.386  0.00  0.00    +0.022 C 
ENDBRANCH  30  32
ENDBRANCH  27  28
BRANCH  27  38
ATOM     38  C   UNL     1       0.966  -1.944  -1.668  0.00  0.00    +0.042 C 
BRANCH  38  39
ATOM     39  C   UNL     1       0.873  -0.423  -1.533  0.00  0.00    +0.071 C 
BRANCH  39  41
ATOM     40  C   UNL     1      -0.022   1.810   0.012  0.00  0.00    +0.084 C 
ATOM     41  S   UNL     1       0.002  -0.004   0.002  0.00  0.00    -0.164 S 
ENDBRANCH  39  41
ENDBRANCH  38  39
ENDBRANCH  27  38
ENDBRANCH  23  27
ENDBRANCH   1  24
TORSDOF 7
