REMARK  Name = ZINC21264121
REMARK  16 active torsions:
REMARK  status: ('A' for Active; 'I' for Inactive)
REMARK    1  A    between atoms: C_1  and  C_2
REMARK    2  A    between atoms: C_2  and  C_32
REMARK    3  A    between atoms: C_4  and  N_10
REMARK    4  A    between atoms: C_6  and  C_8
REMARK    5  A    between atoms: C_6  and  C_9
REMARK    6  A    between atoms: N_10  and  C_11
REMARK    7  A    between atoms: C_11  and  N_13
REMARK    8  A    between atoms: N_13  and  C_14
REMARK    9  A    between atoms: N_13  and  C_26
REMARK   10  A    between atoms: C_14  and  C_15
REMARK   11  A    between atoms: C_15  and  C_16
REMARK   12  A    between atoms: C_19  and  O_24
REMARK   13  A    between atoms: C_20  and  O_22
REMARK   14  A    between atoms: O_22  and  C_23
REMARK   15  A    between atoms: O_24  and  C_25
REMARK   16  A    between atoms: C_26  and  C_27
REMARK                            x       y       z     vdW  Elec       q    Type
REMARK                         _______ _______ _______ _____ _____    ______ ____
ROOT
ATOM      1  N   UNL     1       0.106   7.051  -2.376  0.00  0.00    -0.308 N 
ENDROOT
BRANCH   1   2
ATOM      2  C   UNL     1       0.113   5.703  -2.353  0.00  0.00    +0.133 C 
ATOM      3  S   UNL     1      -0.229   4.821  -3.780  0.00  0.00    -0.019 S 
BRANCH   2   4
ATOM      4  N   UNL     1       0.389   5.051  -1.207  0.00  0.00    -0.324 N 
ATOM      5  H   UNL     1       0.608   5.617  -0.290  0.00  0.00    +0.148 HD
BRANCH   4   9
ATOM      6  C   UNL     1      -0.944   0.975  -2.269  0.00  0.00    -0.010 C 
ATOM      7  C   UNL     1      -1.042   1.551  -0.852  0.00  0.00    -0.072 C 
ATOM      8  C   UNL     1      -1.022   3.076  -0.918  0.00  0.00    +0.009 C 
ATOM      9  C   UNL     1       0.396   3.583  -1.181  0.00  0.00    +0.069 C 
ATOM     10  C   UNL     1       1.298   3.104  -0.042  0.00  0.00    +0.009 C 
ATOM     11  C   UNL     1       1.320   1.577  -0.002  0.00  0.00    -0.072 C 
ATOM     12  N   UNL     1      -0.012   1.005   0.008  0.00  0.00    +0.386 N 
ATOM     13  C   UNL     1       2.035   1.156   1.301  0.00  0.00    -0.010 C 
ATOM     14  C   UNL     1       2.151   1.041  -1.172  0.00  0.00    -0.010 C 
ATOM     15  C   UNL     1      -2.415   1.129  -0.282  0.00  0.00    -0.010 C 
ATOM     16  H   UNL     1      -0.328   1.088   1.058  0.00  0.00    -0.084 HD
ATOM     17  H   UNL     1       0.152  -0.053  -0.244  0.00  0.00    -0.084 HD
ENDBRANCH   4   9
ENDBRANCH   2   4
ENDBRANCH   1   2
BRANCH   1  18
ATOM     18  C   UNL     1      -0.194   7.761  -3.622  0.00  0.00    +0.112 C 
BRANCH  18  19
ATOM     19  C   UNL     1      -1.701   8.006  -3.720  0.00  0.00    +0.054 C 
BRANCH  19  20
ATOM     20  C   UNL     1      -2.009   8.736  -5.001  0.00  0.00    -0.042 A 
ATOM     21  C   UNL     1      -2.021  10.118  -5.022  0.00  0.00    +0.007 A 
ATOM     22  C   UNL     1      -2.298  10.793  -6.197  0.00  0.00    +0.049 A 
ATOM     23  C   UNL     1      -2.575  10.083  -7.354  0.00  0.00    +0.161 A 
ATOM     24  C   UNL     1      -2.568   8.692  -7.332  0.00  0.00    +0.162 A 
ATOM     25  C   UNL     1      -2.285   8.022  -6.152  0.00  0.00    +0.053 A 
BRANCH  24  26
ATOM     26  O   UNL     1      -2.839   7.991  -8.465  0.00  0.00    -0.491 OA
ATOM     27  C   UNL     1      -2.814   6.565  -8.368  0.00  0.00    +0.277 C 
ENDBRANCH  24  26
BRANCH  23  28
ATOM     28  O   UNL     1      -2.853  10.745  -8.509  0.00  0.00    -0.491 OA
ATOM     29  C   UNL     1      -2.842  12.173  -8.458  0.00  0.00    +0.277 C 
ENDBRANCH  23  28
ENDBRANCH  19  20
ENDBRANCH  18  19
ENDBRANCH   1  18
BRANCH   1  30
ATOM     30  C   UNL     1       0.398   7.806  -1.155  0.00  0.00    +0.149 C 
BRANCH  30  31
ATOM     31  C   UNL     1       1.880   8.066  -1.068  0.00  0.00    +0.007 A 
ATOM     32  C   UNL     1       2.593   9.113  -1.552  0.00  0.00    +0.013 A 
ATOM     33  C   UNL     1       3.960   9.145  -1.348  0.00  0.00    +0.008 A 
ATOM     34  C   UNL     1       4.549   8.122  -0.681  0.00  0.00    +0.045 A 
ATOM     35  S   UNL     1       3.154   7.072  -0.309  0.00  0.00    -0.100 S 
ENDBRANCH  30  31
ENDBRANCH   1  30
TORSDOF 10
