REMARK  Name = ZINC54616673
REMARK  6 active torsions:
REMARK  status: ('A' for Active; 'I' for Inactive)
REMARK    1  A    between atoms: C_4  and  N_10
REMARK    2  A    between atoms: C_5  and  C_7
REMARK    3  A    between atoms: C_11  and  C_13
REMARK    4  A    between atoms: C_13  and  N_14
REMARK    5  A    between atoms: C_21  and  S_23
REMARK    6  A    between atoms: S_23  and  N_26
REMARK                            x       y       z     vdW  Elec       q    Type
REMARK                         _______ _______ _______ _____ _____    ______ ____
ROOT
ATOM      1  C   UNL     1       6.086  -0.633  -0.276  0.00  0.00    +0.201 C 
ENDROOT
BRANCH   1   2
ATOM      2  N   UNL     1       7.170   0.347  -0.374  0.00  0.00    -0.321 N 
ATOM      3  C   UNL     1       7.673   0.921  -1.625  0.00  0.00    +0.110 C 
ATOM      4  C   UNL     1       8.795   1.884  -1.204  0.00  0.00    +0.056 C 
ATOM      5  C   UNL     1       8.843   1.775   0.304  0.00  0.00    -0.023 A 
ATOM      6  C   UNL     1       7.872   0.874   0.712  0.00  0.00    +0.033 A 
ATOM      7  C   UNL     1       7.721   0.611   2.075  0.00  0.00    +0.025 A 
ATOM      8  C   UNL     1       8.525   1.245   2.998  0.00  0.00    +0.030 A 
ATOM      9  C   UNL     1       9.487   2.145   2.581  0.00  0.00    +0.105 A 
ATOM     10  C   UNL     1       9.649   2.404   1.232  0.00  0.00    +0.034 A 
BRANCH   9  11
ATOM     11  S   UNL     1      10.512   2.954   3.765  0.00  0.00    +0.056 S 
ATOM     12  O   UNL     1      10.964   4.156   3.157  0.00  0.00    -0.153 OA
ATOM     13  O   UNL     1       9.800   2.943   4.994  0.00  0.00    -0.153 OA
BRANCH  11  14
ATOM     14  N   UNL     1      11.850   2.003   3.985  0.00  0.00    -0.204 NA
ATOM     15  H   UNL     1      12.699   2.407   4.221  0.00  0.00    +0.144 HD
ATOM     16  H   UNL     1      11.784   1.041   3.877  0.00  0.00    +0.144 HD
ENDBRANCH  11  14
ENDBRANCH   9  11
ENDBRANCH   1   2
BRANCH   1  18
ATOM     17  N   UNL     1       3.624  -0.617  -0.039  0.00  0.00    -0.284 N 
ATOM     18  C   UNL     1       4.769   0.086  -0.144  0.00  0.00    +0.235 C 
ATOM     19  O   UNL     1       4.739   1.299  -0.132  0.00  0.00    -0.274 OA
ATOM     20  H   UNL     1       3.653  -1.585   0.017  0.00  0.00    +0.155 HD
BRANCH  17  24
ATOM     21  C   UNL     1      -0.042   1.370   0.046  0.00  0.00    +0.001 A 
ATOM     22  C   UNL     1       1.073   1.934   0.645  0.00  0.00    +0.002 A 
ATOM     23  C   UNL     1       2.287   1.278   0.619  0.00  0.00    +0.024 A 
ATOM     24  C   UNL     1       2.399   0.046  -0.010  0.00  0.00    +0.046 A 
ATOM     25  C   UNL     1       1.273  -0.528  -0.618  0.00  0.00    +0.058 A 
ATOM     26  C   UNL     1       0.051   0.147  -0.584  0.00  0.00    +0.015 A 
BRANCH  25  27
ATOM     27  C   UNL     1       1.378  -1.837  -1.290  0.00  0.00    +0.243 C 
ATOM     28  O   UNL     1       2.420  -2.463  -1.242  0.00  0.00    -0.270 OA
ATOM     29  N   UNL     1       0.321  -2.339  -1.959  0.00  0.00    -0.325 N 
ATOM     30  H   UNL     1      -0.510  -1.839  -1.998  0.00  0.00    +0.145 HD
ATOM     31  H   UNL     1       0.391  -3.199  -2.401  0.00  0.00    +0.145 HD
ENDBRANCH  25  27
ENDBRANCH  17  24
ENDBRANCH   1  18
TORSDOF 6
