REMARK  Name = ZINC39980380
REMARK  11 active torsions:
REMARK  status: ('A' for Active; 'I' for Inactive)
REMARK    1  A    between atoms: C_1  and  C_2
REMARK    2  A    between atoms: C_2  and  C_3
REMARK    3  A    between atoms: C_3  and  C_4
REMARK    4  A    between atoms: C_4  and  O_5
REMARK    5  A    between atoms: O_5  and  C_6
REMARK    6  A    between atoms: C_9  and  N_12
REMARK    7  A    between atoms: N_12  and  C_13
REMARK    8  A    between atoms: N_16  and  S_17
REMARK    9  A    between atoms: S_17  and  C_20
REMARK   10  A    between atoms: C_23  and  N_26
REMARK   11  A    between atoms: C_27  and  C_29
REMARK                            x       y       z     vdW  Elec       q    Type
REMARK                         _______ _______ _______ _____ _____    ______ ____
ROOT
ATOM      1  C   UNL     1       2.652  -8.609   4.047  0.00  0.00    +0.237 C 
ATOM      2  C   UNL     1       3.681  -9.553   3.466  0.00  0.00    +0.192 C 
ATOM      3  N   UNL     1       4.542  -9.131   2.588  0.00  0.00    -0.110 NA
ATOM      4  N   UNL     1       3.693 -10.833   3.872  0.00  0.00    -0.226 NA
ATOM      5  C   UNL     1       2.832 -11.284   4.760  0.00  0.00    +0.089 A 
ATOM      6  C   UNL     1       2.874 -12.642   5.165  0.00  0.00    +0.030 A 
ATOM      7  C   UNL     1       1.993 -13.110   6.076  0.00  0.00    +0.002 A 
ATOM      8  C   UNL     1       1.006 -12.302   6.664  0.00  0.00    +0.002 A 
ATOM      9  C   UNL     1       0.878 -10.995   6.349  0.00  0.00    +0.027 A 
ATOM     10  C   UNL     1       1.800 -10.407   5.365  0.00  0.00    +0.063 A 
ATOM     11  N   UNL     1       1.707  -9.149   5.036  0.00  0.00    -0.359 N 
ATOM     12  H   UNL     1       1.029  -8.582   5.436  0.00  0.00    +0.162 HD
ENDROOT
BRANCH   3  13
ATOM     13  S   UNL     1       5.663 -10.175   1.960  0.00  0.00    +0.100 S 
ATOM     14  O   UNL     1       6.522 -10.541   3.031  0.00  0.00    -0.146 OA
ATOM     15  O   UNL     1       4.943 -11.135   1.199  0.00  0.00    -0.146 OA
BRANCH  13  16
ATOM     16  C   UNL     1       6.645  -9.261   0.818  0.00  0.00    +0.113 A 
ATOM     17  C   UNL     1       6.266  -9.184  -0.510  0.00  0.00    +0.031 A 
ATOM     18  C   UNL     1       7.033  -8.467  -1.408  0.00  0.00    +0.025 A 
ATOM     19  C   UNL     1       8.185  -7.824  -0.976  0.00  0.00    +0.033 A 
ATOM     20  C   UNL     1       8.563  -7.902   0.358  0.00  0.00    +0.025 A 
ATOM     21  C   UNL     1       7.789  -8.616   1.252  0.00  0.00    +0.031 A 
BRANCH  19  22
ATOM     22  N   UNL     1       8.965  -7.098  -1.883  0.00  0.00    -0.286 N 
ATOM     23  C   UNL     1       8.374  -6.417  -2.885  0.00  0.00    +0.214 C 
ATOM     24  O   UNL     1       7.176  -6.500  -3.051  0.00  0.00    -0.276 OA
ATOM     25  C   UNL     1       9.203  -5.552  -3.800  0.00  0.00    +0.109 C 
ATOM     26  H   UNL     1       9.930  -7.084  -1.791  0.00  0.00    +0.155 HD
ENDBRANCH  19  22
ENDBRANCH  13  16
ENDBRANCH   3  13
BRANCH   1  27
ATOM     27  N   UNL     1       1.871  -8.061   2.935  0.00  0.00    -0.318 N 
ATOM     28  H   UNL     1       1.476  -8.657   2.279  0.00  0.00    +0.148 HD
BRANCH  27  32
ATOM     29  C   UNL     1       1.345  -3.940   2.591  0.00  0.00    +0.121 A 
ATOM     30  C   UNL     1       1.954  -4.470   3.720  0.00  0.00    +0.047 A 
ATOM     31  C   UNL     1       2.128  -5.835   3.834  0.00  0.00    +0.026 A 
ATOM     32  C   UNL     1       1.694  -6.678   2.820  0.00  0.00    +0.029 A 
ATOM     33  C   UNL     1       1.084  -6.147   1.691  0.00  0.00    +0.026 A 
ATOM     34  C   UNL     1       0.905  -4.782   1.580  0.00  0.00    +0.047 A 
BRANCH  29  35
ATOM     35  O   UNL     1       1.173  -2.596   2.479  0.00  0.00    -0.492 OA
BRANCH  35  36
ATOM     36  C   UNL     1       1.649  -1.789   3.558  0.00  0.00    +0.229 C 
BRANCH  36  37
ATOM     37  C   UNL     1       1.370  -0.315   3.255  0.00  0.00    +0.041 C 
BRANCH  37  39
ATOM     38  C   UNL     1       1.601   2.022   4.106  0.00  0.00    +0.004 C 
ATOM     39  C   UNL     1       1.880   0.549   4.410  0.00  0.00    -0.000 C 
ENDBRANCH  37  39
ENDBRANCH  36  37
ENDBRANCH  35  36
ENDBRANCH  29  35
ENDBRANCH  27  32
ENDBRANCH   1  27
TORSDOF 9
