REMARK  Name = ZINC05294980
REMARK  9 active torsions:
REMARK  status: ('A' for Active; 'I' for Inactive)
REMARK    1  A    between atoms: C_1  and  C_2
REMARK    2  A    between atoms: C_2  and  O_3
REMARK    3  A    between atoms: O_3  and  C_4
REMARK    4  A    between atoms: C_7  and  N_10
REMARK    5  A    between atoms: C_12  and  C_17
REMARK    6  A    between atoms: C_17  and  C_23
REMARK    7  A    between atoms: N_18  and  N_19
REMARK    8  A    between atoms: N_19  and  C_20
REMARK    9  A    between atoms: C_20  and  N_22
REMARK                            x       y       z     vdW  Elec       q    Type
REMARK                         _______ _______ _______ _____ _____    ______ ____
ROOT
ATOM      1  N   UNL     1      -0.088   3.798   0.023  0.00  0.00    -0.255 N 
ATOM      2  C   UNL     1       1.135   3.196   0.008  0.00  0.00    +0.268 A 
ATOM      3  C   UNL     1       1.193   1.798   0.000  0.00  0.00    +0.080 A 
ATOM      4  C   UNL     1      -0.013   1.076   0.008  0.00  0.00    +0.128 A 
ATOM      5  N   UNL     1      -1.161   1.722   0.017  0.00  0.00    -0.230 NA
ATOM      6  C   UNL     1      -1.208   3.054   0.030  0.00  0.00    +0.187 A 
ATOM      7  S   UNL     1      -2.731   3.835   0.049  0.00  0.00    -0.011 S 
ATOM      8  O   UNL     1       2.265   3.932   0.001  0.00  0.00    -0.267 OA
ENDROOT
BRANCH   1  12
ATOM      9  C   UNL     1      -0.357   7.960   0.048  0.00  0.00    +0.121 A 
ATOM     10  C   UNL     1      -0.829   7.241  -1.041  0.00  0.00    +0.047 A 
ATOM     11  C   UNL     1      -0.740   5.863  -1.050  0.00  0.00    +0.030 A 
ATOM     12  C   UNL     1      -0.178   5.197   0.031  0.00  0.00    +0.052 A 
ATOM     13  C   UNL     1       0.290   5.917   1.123  0.00  0.00    +0.030 A 
ATOM     14  C   UNL     1       0.205   7.295   1.128  0.00  0.00    +0.047 A 
BRANCH   9  15
ATOM     15  O   UNL     1      -0.446   9.316   0.056  0.00  0.00    -0.492 OA
BRANCH  15  17
ATOM     16  C   UNL     1      -0.125  11.501   1.037  0.00  0.00    +0.048 C 
ATOM     17  C   UNL     1       0.060   9.992   1.209  0.00  0.00    +0.225 C 
ENDBRANCH  15  17
ENDBRANCH   9  15
ENDBRANCH   1  12
BRANCH   3  18
ATOM     18  C   UNL     1       2.490   1.099  -0.016  0.00  0.00    +0.070 C 
ATOM     19  N   UNL     1       3.595   1.781  -0.023  0.00  0.00    -0.185 NA
ATOM     20  C   UNL     1       2.534  -0.407  -0.025  0.00  0.00    +0.068 C 
BRANCH  19  21
ATOM     21  N   UNL     1       4.828   1.116  -0.039  0.00  0.00    -0.218 N 
ATOM     22  H   UNL     1       4.860   0.016  -0.046  0.00  0.00    +0.176 HD
BRANCH  21  23
ATOM     23  C   UNL     1       5.975   1.823  -0.046  0.00  0.00    +0.147 C 
ATOM     24  S   UNL     1       7.482   1.011  -0.066  0.00  0.00    -0.017 S 
BRANCH  23  25
ATOM     25  N   UNL     1       5.936   3.171  -0.038  0.00  0.00    -0.339 N 
ATOM     26  H   UNL     1       6.872   3.748  -0.044  0.00  0.00    +0.144 HD
ATOM     27  H   UNL     1       4.968   3.693  -0.026  0.00  0.00    +0.144 HD
ENDBRANCH  23  25
ENDBRANCH  21  23
ENDBRANCH  19  21
ENDBRANCH   3  18
TORSDOF 7
