REMARK  Name = ZINC45654469
REMARK  5 active torsions:
REMARK  status: ('A' for Active; 'I' for Inactive)
REMARK    1  A    between atoms: C_1  and  C_2
REMARK    2  A    between atoms: C_2  and  C_3
REMARK    3  A    between atoms: C_2  and  N_4
REMARK    4  A    between atoms: C_7  and  N_10
REMARK    5  A    between atoms: N_10  and  C_11
REMARK                            x       y       z     vdW  Elec       q    Type
REMARK                         _______ _______ _______ _____ _____    ______ ____
ROOT
ATOM      1  C   UNL     1      -4.351  -1.842  -3.590  0.00  0.00    +0.044 A 
ATOM      2  C   UNL     1      -3.525  -2.820  -4.124  0.00  0.00    +0.051 A 
ATOM      3  C   UNL     1      -3.970  -3.594  -5.184  0.00  0.00    +0.069 A 
ATOM      4  C   UNL     1      -5.248  -3.388  -5.709  0.00  0.00    +0.068 A 
ATOM      5  C   UNL     1      -6.069  -2.410  -5.171  0.00  0.00    +0.045 A 
ATOM      6  C   UNL     1      -5.625  -1.643  -4.111  0.00  0.00    +0.041 A 
ATOM      7 BR   UNL     1      -6.749  -0.313  -3.373  0.00  0.00    -0.048 Br
ATOM      8  N   UNL     1      -5.407  -4.304  -6.750  0.00  0.00    -0.306 N 
ATOM      9  H   UNL     1      -6.197  -4.400  -7.306  0.00  0.00    +0.170 HD
ATOM     10  C   UNL     1      -4.279  -5.031  -6.850  0.00  0.00    +0.325 A 
ATOM     11  O   UNL     1      -4.088  -5.920  -7.659  0.00  0.00    -0.247 OA
ATOM     12  N   UNL     1      -3.394  -4.627  -5.920  0.00  0.00    -0.306 N 
ATOM     13  H   UNL     1      -2.506  -4.992  -5.785  0.00  0.00    +0.170 HD
ENDROOT
BRANCH   1  14
ATOM     14  N   UNL     1      -3.904  -1.059  -2.519  0.00  0.00    -0.342 N 
ATOM     15  H   UNL     1      -4.483  -0.377  -2.142  0.00  0.00    +0.146 HD
BRANCH  14  19
ATOM     16  N   UNL     1      -1.376  -0.512   0.012  0.00  0.00    +0.382 N 
ATOM     17  C   UNL     1      -1.361  -1.991  -0.017  0.00  0.00    -0.077 C 
ATOM     18  C   UNL     1      -2.580  -2.381  -0.889  0.00  0.00    +0.002 C 
ATOM     19  C   UNL     1      -2.563  -1.267  -1.969  0.00  0.00    +0.052 C 
ATOM     20  C   UNL     1      -2.093  -0.026  -1.181  0.00  0.00    -0.056 C 
ATOM     21  H   UNL     1      -1.849  -0.196   0.846  0.00  0.00    -0.081 HD
BRANCH  16  23
ATOM     22  C   UNL     1      -0.019   1.526   0.010  0.00  0.00    -0.014 C 
ATOM     23  C   UNL     1       0.002  -0.004   0.002  0.00  0.00    -0.075 C 
ATOM     24  C   UNL     1       0.742  -0.511   1.242  0.00  0.00    -0.014 C 
ENDBRANCH  16  23
ENDBRANCH  14  19
ENDBRANCH   1  14
TORSDOF 3
