REMARK  Name = ZINC64360472
REMARK  5 active torsions:
REMARK  status: ('A' for Active; 'I' for Inactive)
REMARK    1  A    between atoms: C_8  and  C_13
REMARK    2  A    between atoms: N_15  and  C_16
REMARK    3  A    between atoms: C_16  and  C_17
REMARK    4  A    between atoms: C_17  and  N_18
REMARK    5  A    between atoms: N_18  and  C_19
REMARK                            x       y       z     vdW  Elec       q    Type
REMARK                         _______ _______ _______ _____ _____    ______ ____
ROOT
ATOM      1  C   UNL     1       2.835  -3.557  -1.262  0.00  0.00    +0.229 C 
ATOM      2  O   UNL     1       1.947  -3.542  -2.088  0.00  0.00    -0.275 OA
ATOM      3  N   UNL     1       3.906  -4.356  -1.438  0.00  0.00    -0.313 N 
ATOM      4  H   UNL     1       4.616  -4.368  -0.777  0.00  0.00    +0.149 HD
ENDROOT
BRANCH   1  12
ATOM      5  C   UNL     1      -0.016   1.354   0.009  0.00  0.00    +0.001 A 
ATOM      6  C   UNL     1       1.165   2.097   0.002  0.00  0.00    +0.002 A 
ATOM      7  C   UNL     1       2.394   1.518  -0.013  0.00  0.00    +0.024 A 
ATOM      8  C   UNL     1       2.524   0.117  -0.021  0.00  0.00    +0.040 A 
ATOM      9  N   UNL     1       3.736  -0.439  -0.035  0.00  0.00    -0.284 N 
ATOM     10  C   UNL     1       3.929  -1.747  -0.045  0.00  0.00    +0.233 C 
ATOM     11  O   UNL     1       5.060  -2.197  -0.058  0.00  0.00    -0.274 OA
ATOM     12  C   UNL     1       2.741  -2.681  -0.039  0.00  0.00    +0.184 C 
ATOM     13  C   UNL     1       1.361  -2.054  -0.022  0.00  0.00    +0.004 C 
ATOM     14  C   UNL     1       1.294  -0.692  -0.014  0.00  0.00    -0.007 A 
ATOM     15  C   UNL     1       0.002  -0.004   0.002  0.00  0.00    +0.009 A 
ATOM     16  H   UNL     1       4.511   0.143  -0.039  0.00  0.00    +0.155 HD
ENDBRANCH   1  12
BRANCH   3  17
ATOM     17  C   UNL     1       3.997  -5.207  -2.627  0.00  0.00    +0.119 C 
BRANCH  17  18
ATOM     18  C   UNL     1       5.301  -6.007  -2.582  0.00  0.00    +0.102 C 
BRANCH  18  19
ATOM     19  N   UNL     1       5.393  -6.861  -3.774  0.00  0.00    -0.288 NA
ATOM     20  H   UNL     1       4.586  -7.461  -3.852  0.00  0.00    +0.125 HD
BRANCH  19  21
ATOM     21  C   UNL     1       6.634  -7.645  -3.765  0.00  0.00    +0.204 C 
ATOM     22  N   UNL     1       6.606  -8.691  -4.797  0.00  0.00    -0.319 N 
ATOM     23  C   UNL     1       7.568  -8.628  -5.805  0.00  0.00    +0.043 A 
ATOM     24  C   UNL     1       7.697  -9.535  -6.871  0.00  0.00    +0.024 A 
ATOM     25  C   UNL     1       8.683  -9.386  -7.818  0.00  0.00    +0.002 A 
ATOM     26  C   UNL     1       9.582  -8.338  -7.754  0.00  0.00    +0.001 A 
ATOM     27  C   UNL     1       9.479  -7.428  -6.715  0.00  0.00    +0.016 A 
ATOM     28  C   UNL     1       8.491  -7.579  -5.768  0.00  0.00    +0.032 A 
ATOM     29  S   UNL     1       8.061  -6.631  -4.324  0.00  0.00    -0.085 S 
ATOM     30  H   UNL     1       5.944  -9.399  -4.778  0.00  0.00    +0.148 HD
ENDBRANCH  19  21
ENDBRANCH  18  19
ENDBRANCH  17  18
ENDBRANCH   3  17
TORSDOF 5
