REMARK  Name = ZINC00648886
REMARK  15 active torsions:
REMARK  status: ('A' for Active; 'I' for Inactive)
REMARK    1  A    between atoms: C_1  and  C_2
REMARK    2  A    between atoms: C_3  and  C_34
REMARK    3  A    between atoms: C_4  and  C_25
REMARK    4  A    between atoms: C_10  and  C_15
REMARK    5  A    between atoms: C_18  and  O_23
REMARK    6  A    between atoms: C_19  and  O_21
REMARK    7  A    between atoms: O_21  and  C_22
REMARK    8  A    between atoms: O_23  and  C_24
REMARK    9  A    between atoms: C_28  and  O_32
REMARK   10  A    between atoms: C_29  and  O_31
REMARK   11  A    between atoms: O_32  and  C_33
REMARK   12  A    between atoms: C_34  and  O_36
REMARK   13  A    between atoms: O_36  and  C_37
REMARK   14  A    between atoms: C_37  and  C_38
REMARK   15  A    between atoms: C_37  and  C_39
REMARK                            x       y       z     vdW  Elec       q    Type
REMARK                         _______ _______ _______ _____ _____    ______ ____
ROOT
ATOM      1  C   UNL     1       1.329   3.713  -0.006  0.00  0.00    +0.061 C 
ATOM      2  C   UNL     1       1.248   2.209  -0.001  0.00  0.00    +0.016 C 
ATOM      3  C   UNL     1       0.048   1.604   0.028  0.00  0.00    +0.065 C 
ATOM      4  C   UNL     1      -0.072   0.109   0.025  0.00  0.00    +0.092 C 
ATOM      5  C   UNL     1       1.233  -0.539   0.415  0.00  0.00    +0.024 C 
ATOM      6  C   UNL     1       2.389   0.157   0.372  0.00  0.00    +0.016 C 
ATOM      7  N   UNL     1       2.396   1.467  -0.026  0.00  0.00    -0.321 N 
ATOM      8  C   UNL     1       3.697  -0.484   0.763  0.00  0.00    +0.059 C 
ATOM      9  C   UNL     1       3.652  -1.980   0.445  0.00  0.00    +0.032 C 
ATOM     10  C   UNL     1       2.477  -2.603   1.205  0.00  0.00    +0.088 C 
ATOM     11  C   UNL     1       1.211  -1.885   0.822  0.00  0.00    +0.162 C 
ATOM     12  O   UNL     1       0.152  -2.479   0.865  0.00  0.00    -0.292 OA
ATOM     13  H   UNL     1       3.337   1.921  -0.369  0.00  0.00    +0.152 HD
ENDROOT
BRANCH   9  14
ATOM     14  C   UNL     1       4.942  -2.629   0.879  0.00  0.00    -0.040 A 
ATOM     15  C   UNL     1       5.325  -2.582   2.207  0.00  0.00    +0.008 A 
ATOM     16  C   UNL     1       6.507  -3.176   2.609  0.00  0.00    +0.049 A 
ATOM     17  C   UNL     1       7.310  -3.820   1.682  0.00  0.00    +0.161 A 
ATOM     18  C   UNL     1       6.924  -3.867   0.346  0.00  0.00    +0.162 A 
ATOM     19  C   UNL     1       5.736  -3.274  -0.051  0.00  0.00    +0.053 A 
BRANCH  18  20
ATOM     20  O   UNL     1       7.709  -4.497  -0.568  0.00  0.00    -0.491 OA
ATOM     21  C   UNL     1       7.250  -4.506  -1.922  0.00  0.00    +0.277 C 
ENDBRANCH  18  20
BRANCH  17  22
ATOM     22  O   UNL     1       8.473  -4.404   2.076  0.00  0.00    -0.491 OA
ATOM     23  C   UNL     1       8.805  -4.315   3.463  0.00  0.00    +0.277 C 
ENDBRANCH  17  22
ENDBRANCH   9  14
BRANCH   4  24
ATOM     24  C   UNL     1      -0.461  -0.354  -1.355  0.00  0.00    -0.032 A 
ATOM     25  C   UNL     1       0.358  -0.072  -2.433  0.00  0.00    +0.008 A 
ATOM     26  C   UNL     1       0.009  -0.499  -3.701  0.00  0.00    +0.050 A 
ATOM     27  C   UNL     1      -1.170  -1.202  -3.895  0.00  0.00    +0.161 A 
ATOM     28  C   UNL     1      -1.997  -1.480  -2.811  0.00  0.00    +0.159 A 
ATOM     29  C   UNL     1      -1.638  -1.054  -1.542  0.00  0.00    +0.053 A 
BRANCH  28  30
ATOM     30  O   UNL     1      -3.154  -2.170  -2.996  0.00  0.00    -0.503 OA
ATOM     31  H   UNL     1      -3.807  -2.390  -2.138  0.00  0.00    +0.292 HD
ENDBRANCH  28  30
BRANCH  27  32
ATOM     32  O   UNL     1      -1.518  -1.617  -5.142  0.00  0.00    -0.491 OA
ATOM     33  C   UNL     1      -0.621  -1.295  -6.207  0.00  0.00    +0.277 C 
ENDBRANCH  27  32
ENDBRANCH   4  24
BRANCH   3  34
ATOM     34  C   UNL     1      -1.126   2.394   0.056  0.00  0.00    +0.338 C 
ATOM     35  O   UNL     1      -1.043   3.603   0.160  0.00  0.00    -0.245 OA
BRANCH  34  36
ATOM     36  O   UNL     1      -2.337   1.806  -0.032  0.00  0.00    -0.459 OA
BRANCH  36  37
ATOM     37  C   UNL     1      -3.479   2.664   0.003  0.00  0.00    +0.171 C 
ATOM     38  C   UNL     1      -4.613   2.037  -0.811  0.00  0.00    +0.052 C 
ATOM     39  C   UNL     1      -3.933   2.850   1.452  0.00  0.00    +0.052 C 
ENDBRANCH  36  37
ENDBRANCH  34  36
ENDBRANCH   3  34
TORSDOF 9
