REMARK  Name = ZINC43700112
REMARK  4 active torsions:
REMARK  status: ('A' for Active; 'I' for Inactive)
REMARK    1  A    between atoms: N_7  and  C_13
REMARK    2  A    between atoms: C_13  and  CA_14
REMARK    3  A    between atoms: CA_14  and  C_16
REMARK    4  A    between atoms: CA_14  and  N_19
REMARK                            x       y       z     vdW  Elec       q    Type
REMARK                         _______ _______ _______ _____ _____    ______ ____
ROOT
ATOM      1  C   UNL     1       0.034   1.900   0.472  0.00  0.00    +0.000 C 
ATOM      2  C   UNL     1       1.492   2.361   0.413  0.00  0.00    +0.000 C 
ATOM      3  C   UNL     1       2.277   1.736   1.569  0.00  0.00    +0.002 C 
ATOM      4  C   UNL     1       2.214   0.213   1.455  0.00  0.00    -0.025 C 
ATOM      5  C   UNL     1       3.001  -0.435   2.594  0.00  0.00    -0.075 C 
ATOM      6  N   UNL     1       2.933  -1.896   2.464  0.00  0.00    +0.379 N 
ATOM      7  C   UNL     1       1.544  -2.351   2.593  0.00  0.00    -0.079 C 
ATOM      8  C   UNL     1       0.698  -1.765   1.459  0.00  0.00    -0.015 C 
ATOM      9  C   UNL     1       0.752  -0.238   1.536  0.00  0.00    -0.011 C 
ATOM     10  C   UNL     1      -0.029   0.373   0.373  0.00  0.00    +0.004 C 
ATOM     11  H   UNL     1       3.292  -2.168   1.560  0.00  0.00    -0.082 HD
ENDROOT
BRANCH   6  12
ATOM     12  C   UNL     1       3.749  -2.518   3.516  0.00  0.00    -0.084 C 
BRANCH  12  13
ATOM     13  CA  UNL     1       5.223  -2.179   3.285  0.00  0.00    +0.023 C 
BRANCH  13  14
ATOM     14  N   UNL     1       5.618  -2.606   1.936  0.00  0.00    +0.386 N 
ATOM     15  H1  UNL     1       5.121  -2.057   1.251  0.00  0.00    -0.089 HD
ATOM     16  H2  UNL     1       6.611  -2.471   1.818  0.00  0.00    -0.089 HD
ATOM     17  H3  UNL     1       5.394  -3.582   1.813  0.00  0.00    -0.089 HD
ENDBRANCH  13  14
BRANCH  13  18
ATOM     18  C   UNL     1       6.069  -2.895   4.306  0.00  0.00    +0.340 C 
ATOM     19  O   UNL     1       6.498  -4.011   4.067  0.00  0.00    -0.248 OA
ATOM     20  OXT UNL     1       6.323  -2.359   5.371  0.00  0.00    -0.248 OA
ENDBRANCH  13  18
ENDBRANCH  12  13
ENDBRANCH   6  12
TORSDOF 4
