REMARK  Name = ZINC24764574
REMARK  10 active torsions:
REMARK  status: ('A' for Active; 'I' for Inactive)
REMARK    1  A    between atoms: C_1  and  C_2
REMARK    2  A    between atoms: C_2  and  C_27
REMARK    3  A    between atoms: N_5  and  N_9
REMARK    4  A    between atoms: C_10  and  C_12
REMARK    5  A    between atoms: C_12  and  N_13
REMARK    6  A    between atoms: N_13  and  C_14
REMARK    7  A    between atoms: C_14  and  C_15
REMARK    8  A    between atoms: C_14  and  C_21
REMARK    9  A    between atoms: C_30  and  O_33
REMARK   10  A    between atoms: O_33  and  C_34
REMARK                            x       y       z     vdW  Elec       q    Type
REMARK                         _______ _______ _______ _____ _____    ______ ____
ROOT
ATOM      1  N   UNL     1       1.767  -1.673  -0.023  0.00  0.00    -0.225 N 
ATOM      2  C   UNL     1       2.263  -2.204  -1.158  0.00  0.00    +0.213 C 
ATOM      3  O   UNL     1       2.310  -1.537  -2.170  0.00  0.00    -0.276 OA
ATOM      4  H   UNL     1       1.724  -2.278   0.895  0.00  0.00    +0.173 HD
ENDROOT
BRANCH   1   9
ATOM      5  C   UNL     1      -0.698   2.034   1.278  0.00  0.00    +0.047 C 
ATOM      6  C   UNL     1      -0.018   1.512   0.010  0.00  0.00    +0.137 C 
ATOM      7  C   UNL     1       0.002  -0.004   0.002  0.00  0.00    +0.267 C 
ATOM      8  O   UNL     1      -0.954  -0.749   0.008  0.00  0.00    -0.271 OA
ATOM      9  N   UNL     1       1.304  -0.351  -0.012  0.00  0.00    -0.137 N 
ATOM     10  C   UNL     1       2.101   0.724  -0.014  0.00  0.00    +0.327 C 
ATOM     11  O   UNL     1       3.315   0.665  -0.026  0.00  0.00    -0.251 OA
ATOM     12  N   UNL     1       1.409   1.877  -0.001  0.00  0.00    -0.280 N 
ATOM     13  H   UNL     1       1.705   2.937   0.002  0.00  0.00    +0.152 HD
BRANCH   6  14
ATOM     14  C   UNL     1      -0.711   2.039  -1.220  0.00  0.00    -0.015 A 
ATOM     15  C   UNL     1      -1.712   1.298  -1.820  0.00  0.00    +0.010 A 
ATOM     16  C   UNL     1      -2.353   1.782  -2.944  0.00  0.00    +0.046 A 
ATOM     17  C   UNL     1      -1.982   3.008  -3.478  0.00  0.00    +0.120 A 
ATOM     18  C   UNL     1      -0.974   3.747  -2.877  0.00  0.00    +0.046 A 
ATOM     19  C   UNL     1      -0.341   3.261  -1.750  0.00  0.00    +0.010 A 
BRANCH  17  20
ATOM     20  O   UNL     1      -2.606   3.483  -4.588  0.00  0.00    -0.495 OA
ATOM     21  C   UNL     1      -3.635   2.668  -5.152  0.00  0.00    +0.277 C 
ENDBRANCH  17  20
ENDBRANCH   6  14
ENDBRANCH   1   9
BRANCH   2  22
ATOM     22  C   UNL     1       2.761  -3.627  -1.169  0.00  0.00    +0.018 C 
BRANCH  22  23
ATOM     23  N   UNL     1       3.248  -3.964  -2.514  0.00  0.00    +0.392 N 
ATOM     24  H   UNL     1       2.427  -3.857  -3.239  0.00  0.00    -0.084 HD
ATOM     25  H   UNL     1       4.069  -3.286  -2.787  0.00  0.00    -0.084 HD
BRANCH  23  26
ATOM     26  C   UNL     1       3.741  -5.347  -2.563  0.00  0.00    -0.009 C 
BRANCH  26  27
ATOM     27  C   UNL     1       3.652  -5.862  -3.976  0.00  0.00    -0.057 A 
ATOM     28  C   UNL     1       3.971  -5.033  -5.036  0.00  0.00    +0.002 A 
ATOM     29  C   UNL     1       3.894  -5.507  -6.332  0.00  0.00    +0.000 A 
ATOM     30  C   UNL     1       3.488  -6.807  -6.569  0.00  0.00    +0.000 A 
ATOM     31  C   UNL     1       3.164  -7.634  -5.510  0.00  0.00    +0.000 A 
ATOM     32  C   UNL     1       3.246  -7.162  -4.214  0.00  0.00    +0.002 A 
ENDBRANCH  26  27
BRANCH  26  33
ATOM     33  C   UNL     1       5.176  -5.385  -2.104  0.00  0.00    -0.057 A 
ATOM     34  C   UNL     1       6.052  -4.388  -2.492  0.00  0.00    +0.002 A 
ATOM     35  C   UNL     1       7.367  -4.420  -2.067  0.00  0.00    +0.000 A 
ATOM     36  C   UNL     1       7.809  -5.454  -1.263  0.00  0.00    +0.000 A 
ATOM     37  C   UNL     1       6.934  -6.453  -0.880  0.00  0.00    +0.000 A 
ATOM     38  C   UNL     1       5.618  -6.419  -1.300  0.00  0.00    +0.002 A 
ENDBRANCH  26  33
ENDBRANCH  23  26
ENDBRANCH  22  23
ENDBRANCH   2  22
TORSDOF 8
