REMARK  Name = ZINC63491440
REMARK  12 active torsions:
REMARK  status: ('A' for Active; 'I' for Inactive)
REMARK    1  A    between atoms: C_1  and  C_2
REMARK    2  A    between atoms: C_2  and  C_3
REMARK    3  A    between atoms: C_3  and  C_4
REMARK    4  A    between atoms: N_6  and  C_24
REMARK    5  A    between atoms: C_10  and  C_11
REMARK    6  A    between atoms: C_10  and  N_12
REMARK    7  A    between atoms: N_12  and  C_13
REMARK    8  A    between atoms: C_13  and  C_14
REMARK    9  A    between atoms: C_14  and  S_15
REMARK   10  A    between atoms: S_15  and  C_16
REMARK   11  A    between atoms: C_16  and  C_17
REMARK   12  A    between atoms: C_21  and  C_23
REMARK                            x       y       z     vdW  Elec       q    Type
REMARK                         _______ _______ _______ _____ _____    ______ ____
ROOT
ATOM      1  C   UNL     1       0.762  -2.018   1.233  0.00  0.00    +0.073 C 
ATOM      2  N   UNL     1       0.246  -2.786   0.325  0.00  0.00    -0.179 NA
ATOM      3  N   UNL     1       0.445  -4.133   0.626  0.00  0.00    -0.158 N 
ATOM      4  C   UNL     1       1.123  -4.253   1.786  0.00  0.00    +0.271 C 
ATOM      5  O   UNL     1       1.461  -5.289   2.334  0.00  0.00    -0.268 OA
ATOM      6  C   UNL     1       1.377  -2.884   2.250  0.00  0.00    +0.078 C 
ATOM      7  C   UNL     1       2.047  -2.493   3.397  0.00  0.00    +0.015 C 
ATOM      8  C   UNL     1       2.615  -3.533   4.329  0.00  0.00    +0.061 C 
ENDROOT
BRANCH   3   9
ATOM      9  C   UNL     1      -0.016  -5.255  -0.196  0.00  0.00    +0.249 C 
ATOM     10  N   UNL     1       0.509  -5.157  -1.565  0.00  0.00    -0.315 N 
ATOM     11  C   UNL     1      -0.414  -5.027  -2.601  0.00  0.00    +0.043 A 
ATOM     12  C   UNL     1      -0.100  -4.920  -3.968  0.00  0.00    +0.024 A 
ATOM     13  C   UNL     1      -1.086  -4.795  -4.918  0.00  0.00    +0.002 A 
ATOM     14  C   UNL     1      -2.422  -4.769  -4.561  0.00  0.00    +0.001 A 
ATOM     15  C   UNL     1      -2.761  -4.873  -3.222  0.00  0.00    +0.016 A 
ATOM     16  C   UNL     1      -1.772  -4.998  -2.273  0.00  0.00    +0.032 A 
ATOM     17  S   UNL     1      -1.825  -5.151  -0.500  0.00  0.00    -0.080 S 
ATOM     18  H   UNL     1       1.463  -5.182  -1.740  0.00  0.00    +0.149 HD
ENDBRANCH   3   9
BRANCH   7  19
ATOM     19  N   UNL     1       2.192  -1.183   3.681  0.00  0.00    -0.346 N 
ATOM     20  H   UNL     1       1.826  -0.514   3.081  0.00  0.00    +0.146 HD
BRANCH  19  21
ATOM     21  C   UNL     1       2.900  -0.770   4.894  0.00  0.00    +0.112 C 
BRANCH  21  22
ATOM     22  C   UNL     1       2.923   0.758   4.977  0.00  0.00    +0.088 C 
BRANCH  22  23
ATOM     23  S   UNL     1       3.800   1.270   6.480  0.00  0.00    -0.153 S 
BRANCH  23  24
ATOM     24  C   UNL     1       3.739   3.082   6.428  0.00  0.00    +0.124 C 
BRANCH  24  25
ATOM     25  C   UNL     1       4.442   3.643   7.637  0.00  0.00    +0.046 A 
ATOM     26  N   UNL     1       5.770   3.963   7.733  0.00  0.00    -0.349 N 
ATOM     27  C   UNL     1       5.978   4.431   8.983  0.00  0.00    +0.171 A 
ATOM     28  N   UNL     1       4.847   4.406   9.633  0.00  0.00    -0.350 N 
ATOM     29  C   UNL     1       3.885   3.931   8.829  0.00  0.00    +0.034 A 
ATOM     30  H   UNL     1       6.436   3.872   7.034  0.00  0.00    +0.166 HD
ATOM     31  C   UNL     1       2.434   3.748   9.195  0.00  0.00    +0.065 C 
ATOM     32  H   UNL     1       4.721   4.689  10.552  0.00  0.00    +0.166 HD
ENDBRANCH  24  25
ENDBRANCH  23  24
ENDBRANCH  22  23
ENDBRANCH  21  22
ENDBRANCH  19  21
ENDBRANCH   7  19
BRANCH   1  33
ATOM     33  C   UNL     1       0.742  -0.511   1.242  0.00  0.00    +0.057 C 
BRANCH  33  35
ATOM     34  C   UNL     1      -0.019   1.526   0.010  0.00  0.00    +0.004 C 
ATOM     35  C   UNL     1       0.002  -0.004   0.002  0.00  0.00    +0.003 C 
ENDBRANCH  33  35
ENDBRANCH   1  33
TORSDOF 9
