REMARK  Name = ZINC27904179
REMARK  9 active torsions:
REMARK  status: ('A' for Active; 'I' for Inactive)
REMARK    1  A    between atoms: C_1  and  O_2
REMARK    2  A    between atoms: O_2  and  C_3
REMARK    3  A    between atoms: C_6  and  O_41
REMARK    4  A    between atoms: C_7  and  C_9
REMARK    5  A    between atoms: C_11  and  C_29
REMARK    6  A    between atoms: C_24  and  C_25
REMARK    7  A    between atoms: C_24  and  C_27
REMARK    8  A    between atoms: C_29  and  C_31
REMARK    9  A    between atoms: O_41  and  C_42
REMARK                            x       y       z     vdW  Elec       q    Type
REMARK                         _______ _______ _______ _____ _____    ______ ____
ROOT
ATOM      1  C   UNL     1       0.092   1.484  -0.034  0.00  0.00    +0.085 C 
ATOM      2  C   UNL     1      -0.743   1.997   1.166  0.00  0.00    +0.134 C 
ATOM      3  N   UNL     1      -1.364   3.244   0.716  0.00  0.00    -0.383 NA
ATOM      4  C   UNL     1      -2.029   4.194   1.476  0.00  0.00    +0.054 C 
ATOM      5  C   UNL     1      -3.116   4.755   0.908  0.00  0.00    +0.022 C 
ATOM      6  C   UNL     1      -3.535   4.318  -0.440  0.00  0.00    -0.019 A 
ATOM      7  C   UNL     1      -4.824   4.592  -0.898  0.00  0.00    +0.008 A 
ATOM      8  C   UNL     1      -5.203   4.190  -2.162  0.00  0.00    +0.001 A 
ATOM      9  C   UNL     1      -4.310   3.517  -2.978  0.00  0.00    +0.000 A 
ATOM     10  C   UNL     1      -3.029   3.239  -2.531  0.00  0.00    +0.006 A 
ATOM     11  C   UNL     1      -2.640   3.632  -1.272  0.00  0.00    -0.019 A 
ATOM     12  C   UNL     1      -1.256   3.341  -0.755  0.00  0.00    +0.122 C 
ATOM     13  C   UNL     1      -0.754   1.972  -1.244  0.00  0.00    +0.173 C 
ATOM     14  H   UNL     1      -1.573   3.901   1.573  0.00  0.00    +0.127 HD
ENDROOT
BRANCH   1  19
ATOM     15  C   UNL     1       0.007  -2.126  -1.147  0.00  0.00    +0.121 A 
ATOM     16  C   UNL     1       0.378  -2.784   0.016  0.00  0.00    +0.049 A 
ATOM     17  C   UNL     1       0.656  -2.061   1.160  0.00  0.00    +0.049 A 
ATOM     18  C   UNL     1       0.568  -0.677   1.144  0.00  0.00    +0.124 A 
ATOM     19  C   UNL     1       0.192  -0.019  -0.018  0.00  0.00    +0.005 A 
ATOM     20  C   UNL     1      -0.086  -0.743  -1.162  0.00  0.00    +0.053 A 
BRANCH  15  22
ATOM     21  C   UNL     1      -0.258  -4.262  -2.158  0.00  0.00    +0.277 C 
ATOM     22  O   UNL     1      -0.266  -2.838  -2.273  0.00  0.00    -0.495 OA
ENDBRANCH  15  22
BRANCH  18  23
ATOM     23  O   UNL     1       0.847   0.035   2.268  0.00  0.00    -0.495 OA
ATOM     24  C   UNL     1       1.229  -0.707   3.428  0.00  0.00    +0.277 C 
ENDBRANCH  18  23
ENDBRANCH   1  19
BRANCH  13  25
ATOM     25  C   UNL     1       0.084   2.117  -2.446  0.00  0.00    +0.087 C 
ATOM     26  N   UNL     1       0.731   2.230  -3.373  0.00  0.00    -0.195 NA
ENDBRANCH  13  25
BRANCH  13  27
ATOM     27  C   UNL     1      -1.881   1.060  -1.499  0.00  0.00    +0.087 C 
ATOM     28  N   UNL     1      -2.751   0.356  -1.696  0.00  0.00    -0.195 NA
ENDBRANCH  13  27
BRANCH   2  29
ATOM     29  C   UNL     1      -1.803   0.989   1.531  0.00  0.00    +0.159 C 
ATOM     30  O   UNL     1      -2.164   0.172   0.718  0.00  0.00    -0.295 OA
BRANCH  29  31
ATOM     31  C   UNL     1      -2.412   1.001   2.909  0.00  0.00    +0.032 C 
ATOM     32  C   UNL     1      -3.200   2.298   3.107  0.00  0.00    +0.018 C 
ATOM     33  C   UNL     1      -3.818   2.311   4.506  0.00  0.00    -0.010 C 
ATOM     34  C   UNL     1      -4.760   1.114   4.658  0.00  0.00    +0.007 C 
ATOM     35  C   UNL     1      -3.972  -0.182   4.461  0.00  0.00    -0.010 C 
ATOM     36  C   UNL     1      -3.353  -0.195   3.061  0.00  0.00    +0.018 C 
ATOM     37  C   UNL     1      -2.862  -0.270   5.510  0.00  0.00    +0.007 C 
ATOM     38  C   UNL     1      -1.921   0.926   5.357  0.00  0.00    -0.010 C 
ATOM     39  C   UNL     1      -2.708   2.223   5.555  0.00  0.00    +0.007 C 
ATOM     40  C   UNL     1      -1.302   0.914   3.958  0.00  0.00    +0.018 C 
ENDBRANCH  29  31
ENDBRANCH   2  29
TORSDOF 7
