REMARK  Name = ZINC40463516
REMARK  10 active torsions:
REMARK  status: ('A' for Active; 'I' for Inactive)
REMARK    1  A    between atoms: C_1  and  C_2
REMARK    2  A    between atoms: C_2  and  C_3
REMARK    3  A    between atoms: C_2  and  C_4
REMARK    4  A    between atoms: C_2  and  C_5
REMARK    5  A    between atoms: C_5  and  C_7
REMARK    6  A    between atoms: C_5  and  N_21
REMARK    7  A    between atoms: N_9  and  C_10
REMARK    8  A    between atoms: C_15  and  S_16
REMARK    9  A    between atoms: S_16  and  C_17
REMARK   10  A    between atoms: C_17  and  C_18
REMARK                            x       y       z     vdW  Elec       q    Type
REMARK                         _______ _______ _______ _____ _____    ______ ____
ROOT
ATOM      1  C   UNL     1       2.131   0.025  -1.264  0.00  0.00    +0.203 C 
ATOM      2  O   UNL     1       3.046  -0.695  -0.924  0.00  0.00    -0.277 OA
ATOM      3  N   UNL     1       2.381   1.288  -1.662  0.00  0.00    -0.286 N 
ATOM      4  H   UNL     1       1.662   1.838  -2.010  0.00  0.00    +0.155 HD
ENDROOT
BRANCH   3   5
ATOM      5  C   UNL     1       3.679   1.808  -1.573  0.00  0.00    +0.047 A 
ATOM      6  C   UNL     1       4.575   1.286  -0.653  0.00  0.00    +0.024 A 
ATOM      7  C   UNL     1       5.856   1.799  -0.567  0.00  0.00    +0.002 A 
ATOM      8  C   UNL     1       6.248   2.834  -1.397  0.00  0.00    +0.001 A 
ATOM      9  C   UNL     1       5.362   3.360  -2.317  0.00  0.00    +0.016 A 
ATOM     10  C   UNL     1       4.077   2.847  -2.415  0.00  0.00    +0.030 A 
BRANCH  10  11
ATOM     11  S   UNL     1       2.947   3.512  -3.592  0.00  0.00    -0.114 S 
BRANCH  11  12
ATOM     12  C   UNL     1       3.899   4.808  -4.431  0.00  0.00    +0.169 C 
BRANCH  12  13
ATOM     13  C   UNL     1       3.038   5.467  -5.478  0.00  0.00    +0.221 C 
ATOM     14  O   UNL     1       1.894   5.097  -5.642  0.00  0.00    -0.275 OA
ATOM     15  N   UNL     1       3.538   6.466  -6.231  0.00  0.00    -0.329 N 
ATOM     16  H   UNL     1       4.453   6.761  -6.100  0.00  0.00    +0.145 HD
ATOM     17  H   UNL     1       2.984   6.889  -6.905  0.00  0.00    +0.145 HD
ENDBRANCH  12  13
ENDBRANCH  11  12
ENDBRANCH  10  11
ENDBRANCH   3   5
BRANCH   1  18
ATOM     18  C   UNL     1       0.716  -0.492  -1.242  0.00  0.00    +0.019 C 
BRANCH  18  20
ATOM     19  C   UNL     1      -0.005   1.535   0.029  0.00  0.00    +0.009 C 
ATOM     20  C   UNL     1       0.011   0.005   0.022  0.00  0.00    -0.042 C 
ATOM     21  C   UNL     1       0.759  -0.503   1.256  0.00  0.00    +0.009 C 
ATOM     22  C   UNL     1      -1.426  -0.520   0.044  0.00  0.00    +0.009 C 
ENDBRANCH  18  20
BRANCH  18  23
ATOM     23  N   UNL     1       0.732  -1.961  -1.248  0.00  0.00    +0.386 N 
ATOM     24  H   UNL     1       1.225  -2.296  -0.434  0.00  0.00    -0.089 HD
ATOM     25  H   UNL     1      -0.216  -2.307  -1.234  0.00  0.00    -0.089 HD
ATOM     26  H   UNL     1       1.196  -2.289  -2.082  0.00  0.00    -0.089 HD
ENDBRANCH  18  23
ENDBRANCH   1  18
TORSDOF 7
