REMARK  Name = ZINC50459866
REMARK  5 active torsions:
REMARK  status: ('A' for Active; 'I' for Inactive)
REMARK    1  A    between atoms: C_2  and  N_13
REMARK    2  A    between atoms: C_5  and  O_8
REMARK    3  A    between atoms: O_8  and  C_9
REMARK    4  A    between atoms: C_14  and  C_16
REMARK    5  A    between atoms: C_19  and  N_21
REMARK                            x       y       z     vdW  Elec       q    Type
REMARK                         _______ _______ _______ _____ _____    ______ ____
ROOT
ATOM      1  C   UNL     1       0.154   1.373   0.602  0.00  0.00    +0.047 A 
ATOM      2  C   UNL     1       1.177   2.088  -0.006  0.00  0.00    +0.036 A 
ATOM      3  C   UNL     1       2.219   1.415  -0.630  0.00  0.00    +0.047 A 
ATOM      4  C   UNL     1       2.237   0.033  -0.645  0.00  0.00    +0.086 A 
ATOM      5  C   UNL     1       1.214  -0.681  -0.037  0.00  0.00    +0.163 A 
ATOM      6  C   UNL     1       0.173  -0.009   0.587  0.00  0.00    +0.086 A 
ATOM      7 CL   UNL     1      -1.106  -0.903   1.348  0.00  0.00    -0.080 Cl
ATOM      8 CL   UNL     1       3.539  -0.809  -1.425  0.00  0.00    -0.080 Cl
ENDROOT
BRANCH   2   9
ATOM      9  N   UNL     1       1.157   3.489   0.009  0.00  0.00    -0.285 N 
ATOM     10  C   UNL     1       2.312   4.178   0.104  0.00  0.00    +0.219 C 
ATOM     11  O   UNL     1       3.372   3.589   0.091  0.00  0.00    -0.275 OA
ATOM     12  H   UNL     1       0.313   3.963  -0.048  0.00  0.00    +0.155 HD
BRANCH  10  13
ATOM     13  C   UNL     1       2.286   5.680   0.225  0.00  0.00    +0.059 C 
ATOM     14  C   UNL     1       2.723   6.289   1.559  0.00  0.00    -0.005 C 
ATOM     15  C   UNL     1       3.630   6.404   0.331  0.00  0.00    -0.063 C 
BRANCH  15  16
ATOM     16  N   UNL     1       4.847   5.582   0.306  0.00  0.00    +0.380 N 
ATOM     17  H   UNL     1       4.888   5.068  -0.561  0.00  0.00    -0.090 HD
ATOM     18  H   UNL     1       5.657   6.178   0.383  0.00  0.00    -0.090 HD
ATOM     19  H   UNL     1       4.831   4.934   1.080  0.00  0.00    -0.090 HD
ENDBRANCH  15  16
ENDBRANCH  10  13
ENDBRANCH   2   9
BRANCH   5  20
ATOM     20  O   UNL     1       1.233  -2.041  -0.052  0.00  0.00    -0.431 OA
BRANCH  20  21
ATOM     21  C   UNL     1       1.894  -2.693   1.034  0.00  0.00    +0.541 C 
ATOM     22  F   UNL     1       3.236  -2.300   1.067  0.00  0.00    -0.166 F 
ATOM     23  F   UNL     1       1.275  -2.339   2.237  0.00  0.00    -0.166 F 
ENDBRANCH  20  21
ENDBRANCH   5  20
TORSDOF 5
