REMARK  Name = ZINC61804840
REMARK  11 active torsions:
REMARK  status: ('A' for Active; 'I' for Inactive)
REMARK    1  A    between atoms: C_1  and  C_2
REMARK    2  A    between atoms: C_2  and  C_3
REMARK    3  A    between atoms: C_3  and  C_5
REMARK    4  A    between atoms: C_3  and  N_22
REMARK    5  A    between atoms: C_5  and  C_7
REMARK    6  A    between atoms: C_5  and  N_13
REMARK    7  A    between atoms: N_10  and  C_12
REMARK    8  A    between atoms: N_13  and  C_14
REMARK    9  A    between atoms: N_13  and  C_18
REMARK   10  A    between atoms: C_14  and  C_15
REMARK   11  A    between atoms: C_18  and  C_19
REMARK                            x       y       z     vdW  Elec       q    Type
REMARK                         _______ _______ _______ _____ _____    ______ ____
ROOT
ATOM      1  C   UNL     1       0.803  -1.973   1.158  0.00  0.00    +0.076 C 
ENDROOT
BRANCH   1   2
ATOM      2  C   UNL     1       1.987  -1.651   2.033  0.00  0.00    +0.006 A 
ATOM      3  C   UNL     1       3.154  -0.994   1.629  0.00  0.00    +0.139 A 
ATOM      4  N   UNL     1       3.948  -0.897   2.665  0.00  0.00    -0.180 NA
ATOM      5  N   UNL     1       3.310  -1.490   3.762  0.00  0.00    -0.274 N 
ATOM      6  C   UNL     1       2.106  -1.940   3.349  0.00  0.00    +0.113 A 
ATOM      7  C   UNL     1       3.851  -1.598   5.119  0.00  0.00    +0.172 C 
ENDBRANCH   1   2
BRANCH   1   8
ATOM      8  C   UNL     1       0.225  -0.678   0.584  0.00  0.00    -0.053 C 
BRANCH   8   9
ATOM      9  N   UNL     1      -0.184   0.205   1.685  0.00  0.00    +0.381 N 
ATOM     10  H   UNL     1      -0.885  -0.257   2.244  0.00  0.00    -0.090 HD
ATOM     11  H   UNL     1       0.618   0.420   2.259  0.00  0.00    -0.090 HD
ATOM     12  H   UNL     1      -0.565   1.060   1.306  0.00  0.00    -0.090 HD
ENDBRANCH   8   9
BRANCH   8  14
ATOM     13  C   UNL     1      -1.487   0.274  -0.967  0.00  0.00    +0.002 C 
ATOM     14  C   UNL     1      -0.990  -1.003  -0.287  0.00  0.00    -0.018 C 
ENDBRANCH   8  14
ENDBRANCH   1   8
BRANCH   1  15
ATOM     15  N   UNL     1       1.231  -2.847   0.058  0.00  0.00    -0.280 NA
BRANCH  15  16
ATOM     16  C   UNL     1       2.384  -2.276  -0.651  0.00  0.00    +0.181 C 
BRANCH  16  17
ATOM     17  C   UNL     1       2.538  -2.953  -1.989  0.00  0.00    +0.225 C 
ATOM     18  O   UNL     1       1.705  -3.751  -2.364  0.00  0.00    -0.275 OA
ATOM     19  N   UNL     1       3.600  -2.671  -2.769  0.00  0.00    -0.328 N 
ATOM     20  H   UNL     1       4.266  -2.033  -2.469  0.00  0.00    +0.145 HD
ATOM     21  H   UNL     1       3.699  -3.107  -3.630  0.00  0.00    +0.145 HD
ENDBRANCH  16  17
ENDBRANCH  15  16
BRANCH  15  22
ATOM     22  C   UNL     1       1.531  -4.200   0.546  0.00  0.00    +0.181 C 
BRANCH  22  23
ATOM     23  C   UNL     1       0.243  -4.923   0.844  0.00  0.00    +0.225 C 
ATOM     24  O   UNL     1      -0.820  -4.406   0.573  0.00  0.00    -0.275 OA
ATOM     25  N   UNL     1       0.272  -6.145   1.412  0.00  0.00    -0.328 N 
ATOM     26  H   UNL     1       1.123  -6.559   1.629  0.00  0.00    +0.145 HD
ATOM     27  H   UNL     1      -0.557  -6.611   1.604  0.00  0.00    +0.145 HD
ENDBRANCH  22  23
ENDBRANCH  15  22
ENDBRANCH   1  15
TORSDOF 9
