REMARK  Name = ZINC36202462
REMARK  11 active torsions:
REMARK  status: ('A' for Active; 'I' for Inactive)
REMARK    1  A    between atoms: C_1  and  C_2
REMARK    2  A    between atoms: C_5  and  C_7
REMARK    3  A    between atoms: C_7  and  N_8
REMARK    4  A    between atoms: N_8  and  C_9
REMARK    5  A    between atoms: N_8  and  C_15
REMARK    6  A    between atoms: C_9  and  C_10
REMARK    7  A    between atoms: C_15  and  C_16
REMARK    8  A    between atoms: C_19  and  C_21
REMARK    9  A    between atoms: C_21  and  C_22
REMARK   10  A    between atoms: C_21  and  C_29
REMARK   11  A    between atoms: C_21  and  O_36
REMARK                            x       y       z     vdW  Elec       q    Type
REMARK                         _______ _______ _______ _____ _____    ______ ____
ROOT
ATOM      1  C   UNL     1       4.198  -4.731  -3.110  0.00  0.00    +0.089 A 
ATOM      2  C   UNL     1       5.007  -4.355  -4.117  0.00  0.00    +0.043 A 
ATOM      3  C   UNL     1       4.493  -4.943  -5.296  0.00  0.00    +0.048 A 
ATOM      4  C   UNL     1       3.402  -5.643  -4.939  0.00  0.00    +0.146 A 
ATOM      5  O   UNL     1       3.231  -5.516  -3.613  0.00  0.00    -0.463 OA
ENDROOT
BRANCH   1   6
ATOM      6  C   UNL     1       4.354  -4.343  -1.663  0.00  0.00    -0.002 C 
BRANCH   6   7
ATOM      7  N   UNL     1       3.722  -3.036  -1.435  0.00  0.00    +0.394 N 
ATOM      8  H   UNL     1       4.106  -2.360  -2.078  0.00  0.00    -0.080 HD
BRANCH   7   9
ATOM      9  C   UNL     1       2.273  -3.149  -1.651  0.00  0.00    -0.002 C 
BRANCH   9  14
ATOM     10  C   UNL     1       0.049   0.930   0.312  0.00  0.00    +0.086 C 
ATOM     11  C   UNL     1       0.673  -0.013  -0.685  0.00  0.00    +0.102 A 
ATOM     12  C   UNL     1       0.834   0.226  -1.999  0.00  0.00    +0.044 A 
ATOM     13  C   UNL     1       1.458  -0.918  -2.549  0.00  0.00    +0.043 A 
ATOM     14  C   UNL     1       1.641  -1.786  -1.538  0.00  0.00    +0.089 A 
ATOM     15  O   UNL     1       1.169  -1.230  -0.410  0.00  0.00    -0.467 OA
ENDBRANCH   9  14
ENDBRANCH   7   9
BRANCH   7  16
ATOM     16  C   UNL     1       3.979  -2.602  -0.056  0.00  0.00    -0.002 C 
BRANCH  16  17
ATOM     17  C   UNL     1       5.453  -2.341   0.123  0.00  0.00    +0.089 A 
ATOM     18  C   UNL     1       6.072  -1.162  -0.065  0.00  0.00    +0.042 A 
ATOM     19  C   UNL     1       7.443  -1.370   0.211  0.00  0.00    +0.041 A 
ATOM     20  C   UNL     1       7.580  -2.664   0.551  0.00  0.00    +0.195 A 
ATOM     21  O   UNL     1       6.370  -3.246   0.502  0.00  0.00    -0.470 OA
ENDBRANCH  16  17
ENDBRANCH   7  16
ENDBRANCH   6   7
ENDBRANCH   1   6
BRANCH   4  22
ATOM     22  C   UNL     1       2.522  -6.440  -5.868  0.00  0.00    +0.174 C 
BRANCH  22  23
ATOM     23  C   UNL     1       1.920  -7.600  -5.118  0.00  0.00    -0.002 A 
ATOM     24  C   UNL     1       2.287  -8.894  -5.437  0.00  0.00    +0.007 A 
ATOM     25  C   UNL     1       1.734  -9.959  -4.750  0.00  0.00    +0.003 A 
ATOM     26  C   UNL     1       0.815  -9.731  -3.744  0.00  0.00    +0.038 A 
ATOM     27  C   UNL     1       0.447  -8.435  -3.424  0.00  0.00    +0.124 A 
ATOM     28  C   UNL     1       1.005  -7.369  -4.109  0.00  0.00    +0.045 A 
ATOM     29  F   UNL     1      -0.452  -8.211  -2.441  0.00  0.00    -0.205 F 
ENDBRANCH  22  23
BRANCH  22  30
ATOM     30  C   UNL     1       1.421  -5.557  -6.398  0.00  0.00    -0.002 A 
ATOM     31  C   UNL     1       0.801  -4.649  -5.560  0.00  0.00    +0.007 A 
ATOM     32  C   UNL     1      -0.209  -3.839  -6.044  0.00  0.00    +0.003 A 
ATOM     33  C   UNL     1      -0.600  -3.937  -7.367  0.00  0.00    +0.038 A 
ATOM     34  C   UNL     1       0.021  -4.845  -8.206  0.00  0.00    +0.124 A 
ATOM     35  C   UNL     1       1.037  -5.652  -7.721  0.00  0.00    +0.045 A 
ATOM     36  F   UNL     1      -0.361  -4.942  -9.499  0.00  0.00    -0.205 F 
ENDBRANCH  22  30
BRANCH  22  37
ATOM     37  O   UNL     1       3.304  -6.932  -6.958  0.00  0.00    -0.372 OA
ATOM     38  H   UNL     1       3.723  -6.239  -7.487  0.00  0.00    +0.212 HD
ENDBRANCH  22  37
ENDBRANCH   4  22
TORSDOF 10
