REMARK  Name = ZINC64623125
REMARK  8 active torsions:
REMARK  status: ('A' for Active; 'I' for Inactive)
REMARK    1  A    between atoms: C_1  and  O_2
REMARK    2  A    between atoms: O_2  and  C_3
REMARK    3  A    between atoms: C_6  and  C_9
REMARK    4  A    between atoms: N_27  and  C_28
REMARK    5  A    between atoms: C_31  and  O_36
REMARK    6  A    between atoms: C_33  and  O_34
REMARK    7  A    between atoms: O_34  and  C_35
REMARK    8  A    between atoms: O_36  and  C_37
REMARK                            x       y       z     vdW  Elec       q    Type
REMARK                         _______ _______ _______ _____ _____    ______ ____
ROOT
ATOM      1  C   UNL     1       2.448  -2.956   4.803  0.00  0.00    +0.134 C 
ATOM      2  C   UNL     1       1.355  -3.672   5.604  0.00  0.00    +0.131 C 
ATOM      3  C   UNL     1       0.623  -4.580   4.625  0.00  0.00    -0.035 C 
ATOM      4  C   UNL     1      -0.660  -4.243   4.687  0.00  0.00    +0.001 A 
ATOM      5  C   UNL     1      -1.853  -4.803   4.032  0.00  0.00    +0.030 A 
ATOM      6  C   UNL     1      -3.035  -4.195   4.317  0.00  0.00    +0.042 A 
ATOM      7  C   UNL     1      -3.148  -3.098   5.179  0.00  0.00    +0.022 A 
ATOM      8  C   UNL     1      -2.104  -2.522   5.827  0.00  0.00    +0.027 A 
ATOM      9  C   UNL     1      -0.809  -3.077   5.610  0.00  0.00    +0.043 A 
ATOM     10  N   UNL     1       0.358  -2.734   6.124  0.00  0.00    -0.375 N 
ATOM     11 CL   UNL     1      -4.479  -4.810   3.575  0.00  0.00    -0.084 Cl
ATOM     12  C   UNL     1       1.343  -5.576   3.749  0.00  0.00    +0.052 C 
ATOM     13  C   UNL     1       2.479  -4.809   3.048  0.00  0.00    +0.114 C 
ATOM     14  N   UNL     1       3.179  -3.970   4.028  0.00  0.00    -0.276 N 
ATOM     15  C   UNL     1       4.503  -4.132   4.222  0.00  0.00    +0.307 C 
ATOM     16  O   UNL     1       5.073  -3.495   5.087  0.00  0.00    -0.252 OA
ATOM     17  N   UNL     1       5.195  -5.000   3.458  0.00  0.00    -0.266 N 
ATOM     18  H   UNL     1       4.746  -5.487   2.749  0.00  0.00    +0.156 HD
ATOM     19  H   UNL     1       0.535  -1.997   6.730  0.00  0.00    +0.160 HD
ENDROOT
BRANCH   1  23
ATOM     20  C   UNL     1       0.672  -0.115   2.151  0.00  0.00    +0.120 A 
ATOM     21  C   UNL     1       1.636   0.293   3.061  0.00  0.00    +0.046 A 
ATOM     22  C   UNL     1       2.208  -0.627   3.918  0.00  0.00    +0.009 A 
ATOM     23  C   UNL     1       1.821  -1.954   3.868  0.00  0.00    -0.024 A 
ATOM     24  C   UNL     1       0.861  -2.363   2.961  0.00  0.00    +0.009 A 
ATOM     25  C   UNL     1       0.281  -1.445   2.106  0.00  0.00    +0.046 A 
BRANCH  20  27
ATOM     26  C   UNL     1       0.557   2.141   1.409  0.00  0.00    +0.277 C 
ATOM     27  O   UNL     1       0.107   0.789   1.307  0.00  0.00    -0.495 OA
ENDBRANCH  20  27
ENDBRANCH   1  23
BRANCH  17  28
ATOM     28  C   UNL     1       6.566  -5.199   3.688  0.00  0.00    +0.077 A 
ATOM     29  C   UNL     1       7.303  -4.238   4.362  0.00  0.00    +0.030 A 
ATOM     30  C   UNL     1       8.652  -4.434   4.588  0.00  0.00    +0.047 A 
ATOM     31  C   UNL     1       9.272  -5.591   4.140  0.00  0.00    +0.124 A 
ATOM     32  C   UNL     1       8.539  -6.555   3.465  0.00  0.00    +0.093 A 
ATOM     33  C   UNL     1       7.185  -6.365   3.243  0.00  0.00    +0.145 A 
BRANCH  33  34
ATOM     34  O   UNL     1       6.462  -7.311   2.586  0.00  0.00    -0.493 OA
ATOM     35  C   UNL     1       7.163  -8.481   2.158  0.00  0.00    +0.277 C 
ENDBRANCH  33  34
BRANCH  31  36
ATOM     36  O   UNL     1      10.600  -5.781   4.363  0.00  0.00    -0.495 OA
ATOM     37  C   UNL     1      11.294  -4.747   5.065  0.00  0.00    +0.277 C 
ENDBRANCH  31  36
ENDBRANCH  17  28
TORSDOF 5
