REMARK  Name = ZINC63336159
REMARK  12 active torsions:
REMARK  status: ('A' for Active; 'I' for Inactive)
REMARK    1  A    between atoms: C_1  and  C_2
REMARK    2  A    between atoms: C_2  and  C_3
REMARK    3  A    between atoms: C_3  and  N_4
REMARK    4  A    between atoms: C_5  and  C_7
REMARK    5  A    between atoms: C_7  and  N_8
REMARK    6  A    between atoms: C_11  and  N_14
REMARK    7  A    between atoms: N_17  and  C_18
REMARK    8  A    between atoms: C_18  and  C_19
REMARK    9  A    between atoms: C_19  and  C_20
REMARK   10  A    between atoms: C_19  and  C_21
REMARK   11  A    between atoms: C_19  and  C_22
REMARK   12  A    between atoms: C_26  and  C_28
REMARK                            x       y       z     vdW  Elec       q    Type
REMARK                         _______ _______ _______ _____ _____    ______ ____
ROOT
ATOM      1  N   UNL     1       4.660  -6.533  -6.170  0.00  0.00    -0.297 N 
ATOM      2  C   UNL     1       5.163  -7.775  -6.314  0.00  0.00    +0.300 C 
ATOM      3  O   UNL     1       5.116  -8.562  -5.388  0.00  0.00    -0.253 OA
ATOM      4  N   UNL     1       5.717  -8.145  -7.486  0.00  0.00    -0.299 N 
ATOM      5  H   UNL     1       4.697  -5.906  -6.908  0.00  0.00    +0.151 HD
ATOM      6  H   UNL     1       5.755  -7.518  -8.225  0.00  0.00    +0.150 HD
ENDROOT
BRANCH   1  10
ATOM      7  N   UNL     1       2.029  -4.603  -3.502  0.00  0.00    +0.385 N 
ATOM      8  C   UNL     1       3.436  -4.188  -3.457  0.00  0.00    -0.076 C 
ATOM      9  C   UNL     1       4.138  -4.608  -4.750  0.00  0.00    +0.004 C 
ATOM     10  C   UNL     1       4.058  -6.131  -4.896  0.00  0.00    +0.071 C 
ATOM     11  C   UNL     1       2.588  -6.560  -4.867  0.00  0.00    +0.004 C 
ATOM     12  C   UNL     1       1.944  -6.067  -3.569  0.00  0.00    -0.076 C 
ATOM     13  H   UNL     1       1.588  -4.204  -4.317  0.00  0.00    -0.081 HD
BRANCH   7  14
ATOM     14  C   UNL     1       1.341  -4.130  -2.293  0.00  0.00    +0.019 C 
BRANCH  14  16
ATOM     15  N   UNL     1       0.738  -1.962  -1.265  0.00  0.00    -0.317 N 
ATOM     16  C   UNL     1       1.321  -2.623  -2.285  0.00  0.00    +0.196 C 
ATOM     17  O   UNL     1       1.829  -2.004  -3.196  0.00  0.00    -0.278 OA
ATOM     18  H   UNL     1       0.332  -2.457  -0.536  0.00  0.00    +0.149 HD
BRANCH  15  19
ATOM     19  C   UNL     1       0.718  -0.497  -1.257  0.00  0.00    +0.104 C 
BRANCH  19  21
ATOM     20  C   UNL     1      -0.019   1.526   0.010  0.00  0.00    +0.005 C 
ATOM     21  C   UNL     1       0.002  -0.004   0.002  0.00  0.00    +0.015 C 
ENDBRANCH  19  21
ENDBRANCH  15  19
ENDBRANCH  14  16
ENDBRANCH   7  14
ENDBRANCH   1  10
BRANCH   4  22
ATOM     22  C   UNL     1       6.264  -9.495  -7.643  0.00  0.00    +0.116 C 
BRANCH  22  23
ATOM     23  C   UNL     1       6.829  -9.655  -9.056  0.00  0.00    +0.006 C 
ATOM     24  C   UNL     1       5.713  -9.434 -10.079  0.00  0.00    +0.017 C 
ATOM     25  C   UNL     1       7.938  -8.627  -9.281  0.00  0.00    +0.017 C 
BRANCH  23  26
ATOM     26  C   UNL     1       7.391 -11.044  -9.218  0.00  0.00    -0.040 A 
ATOM     27  C   UNL     1       7.333 -11.941  -8.167  0.00  0.00    +0.004 A 
ATOM     28  C   UNL     1       7.848 -13.214  -8.315  0.00  0.00    +0.001 A 
ATOM     29  C   UNL     1       8.422 -13.592  -9.515  0.00  0.00    +0.003 A 
ATOM     30  C   UNL     1       8.479 -12.697 -10.566  0.00  0.00    -0.050 A 
ATOM     31  C   UNL     1       7.959 -11.424 -10.419  0.00  0.00    +0.007 A 
ATOM     32  C   UNL     1       9.104 -13.109 -11.874  0.00  0.00    +0.044 C 
ENDBRANCH  23  26
ENDBRANCH  22  23
ENDBRANCH   4  22
TORSDOF 8
