REMARK  Name = ZINC12241760
REMARK  8 active torsions:
REMARK  status: ('A' for Active; 'I' for Inactive)
REMARK    1  A    between atoms: C_1  and  N_2
REMARK    2  A    between atoms: C_4  and  C_11
REMARK    3  A    between atoms: C_11  and  C_13
REMARK    4  A    between atoms: C_11  and  O_30
REMARK    5  A    between atoms: C_13  and  N_55
REMARK    6  A    between atoms: C_16  and  C_19
REMARK    7  A    between atoms: C_16  and  O_29
REMARK    8  A    between atoms: C_22  and  C_25
REMARK                            x       y       z     vdW  Elec       q    Type
REMARK                         _______ _______ _______ _____ _____    ______ ____
ROOT
ATOM      1  C   UNL     1      -2.790   7.786   0.837  0.00  0.00    -0.076 C 
ATOM      2  C   UNL     1      -3.420   9.177   0.740  0.00  0.00    +0.021 C 
ATOM      3  C   UNL     1      -3.738   9.687   2.148  0.00  0.00    +0.088 C 
ATOM      4  C   UNL     1      -4.671   8.692   2.845  0.00  0.00    +0.021 C 
ATOM      5  C   UNL     1      -4.004   7.315   2.881  0.00  0.00    -0.076 C 
ATOM      6  N   UNL     1      -3.746   6.870   1.494  0.00  0.00    +0.382 N 
ATOM      7  H   UNL     1      -4.630   6.881   0.972  0.00  0.00    -0.082 HD
ENDROOT
BRANCH   3   8
ATOM      8  C   UNL     1      -4.413  11.031   2.058  0.00  0.00    -0.016 A 
ATOM      9  C   UNL     1      -5.790  11.108   1.959  0.00  0.00    +0.007 A 
ATOM     10  C   UNL     1      -6.410  12.341   1.880  0.00  0.00    +0.013 A 
ATOM     11  C   UNL     1      -5.652  13.497   1.892  0.00  0.00    +0.055 A 
ATOM     12  C   UNL     1      -4.275  13.420   1.985  0.00  0.00    +0.013 A 
ATOM     13  C   UNL     1      -3.656  12.187   2.068  0.00  0.00    +0.007 A 
BRANCH  11  14
ATOM     14  C   UNL     1      -6.328  14.841   1.802  0.00  0.00    +0.417 C 
ATOM     15  F   UNL     1      -6.450  15.213   0.459  0.00  0.00    -0.166 F 
ATOM     16  F   UNL     1      -7.598  14.765   2.382  0.00  0.00    -0.166 F 
ATOM     17  F   UNL     1      -5.562  15.794   2.482  0.00  0.00    -0.166 F 
ENDBRANCH  11  14
ENDBRANCH   3   8
BRANCH   3  18
ATOM     18  O   UNL     1      -2.527   9.810   2.897  0.00  0.00    -0.384 OA
ATOM     19  H   UNL     1      -1.888  10.427   2.512  0.00  0.00    +0.211 HD
ENDBRANCH   3  18
BRANCH   6  20
ATOM     20  C   UNL     1      -3.207   5.495   1.498  0.00  0.00    -0.042 C 
BRANCH  20  21
ATOM     21  C   UNL     1      -3.160   4.981   0.057  0.00  0.00    +0.130 C 
BRANCH  21  25
ATOM     22  C   UNL     1      -2.991  -0.043   0.031  0.00  0.00    +0.149 C 
ATOM     23  N   UNL     1      -2.541   1.351   0.033  0.00  0.00    -0.349 N 
ATOM     24  C   UNL     1      -3.365   2.443   0.046  0.00  0.00    +0.092 A 
ATOM     25  C   UNL     1      -2.633   3.569   0.045  0.00  0.00    +0.004 A 
ATOM     26  C   UNL     1      -1.225   3.164   0.030  0.00  0.00    +0.005 A 
ATOM     27  C   UNL     1      -1.225   1.757   0.017  0.00  0.00    +0.049 A 
ATOM     28  C   UNL     1      -0.013   1.076   0.008  0.00  0.00    +0.026 A 
ATOM     29  C   UNL     1       1.170   1.783   0.001  0.00  0.00    +0.002 A 
ATOM     30  C   UNL     1       1.165   3.171   0.007  0.00  0.00    +0.001 A 
ATOM     31  C   UNL     1      -0.015   3.861   0.022  0.00  0.00    +0.010 A 
ENDBRANCH  21  25
BRANCH  21  32
ATOM     32  O   UNL     1      -4.475   5.003  -0.500  0.00  0.00    -0.389 OA
ATOM     33  H   UNL     1      -5.114   4.456  -0.022  0.00  0.00    +0.210 HD
ENDBRANCH  21  32
ENDBRANCH  20  21
ENDBRANCH   6  20
TORSDOF 7
