REMARK  Name = ZINC36799261
REMARK  7 active torsions:
REMARK  status: ('A' for Active; 'I' for Inactive)
REMARK    1  A    between atoms: C_1  and  C_2
REMARK    2  A    between atoms: C_9  and  C_16
REMARK    3  A    between atoms: C_11  and  O_12
REMARK    4  A    between atoms: C_16  and  S_17
REMARK    5  A    between atoms: S_17  and  C_18
REMARK    6  A    between atoms: C_21  and  C_24
REMARK    7  A    between atoms: N_22  and  N_23
REMARK                            x       y       z     vdW  Elec       q    Type
REMARK                         _______ _______ _______ _____ _____    ______ ____
ROOT
ATOM      1  C   UNL     1      -2.551  -6.928  -0.592  0.00  0.00    +0.113 C 
ENDROOT
BRANCH   1  10
ATOM      2  C   UNL     1       0.327   1.417  -0.558  0.00  0.00    +0.109 C 
ATOM      3  C   UNL     1       0.208  -0.076  -0.726  0.00  0.00    +0.214 C 
ATOM      4  O   UNL     1       1.160  -0.722  -1.126  0.00  0.00    -0.276 OA
ATOM      5  N   UNL     1      -0.928  -0.683  -0.441  0.00  0.00    -0.286 N 
ATOM      6  C   UNL     1      -0.997  -2.043  -0.463  0.00  0.00    +0.037 A 
ATOM      7  C   UNL     1      -2.249  -2.679  -0.520  0.00  0.00    +0.024 A 
ATOM      8  C   UNL     1      -2.332  -4.035  -0.542  0.00  0.00    +0.013 A 
ATOM      9  C   UNL     1      -1.159  -4.809  -0.508  0.00  0.00    +0.022 A 
ATOM     10  C   UNL     1      -1.223  -6.218  -0.531  0.00  0.00    -0.020 A 
ATOM     11  C   UNL     1      -0.042  -6.933  -0.497  0.00  0.00    +0.092 A 
ATOM     12  C   UNL     1       1.171  -6.262  -0.441  0.00  0.00    +0.285 A 
ATOM     13  O   UNL     1       1.228  -4.926  -0.419  0.00  0.00    -0.425 OA
ATOM     14  C   UNL     1       0.105  -4.179  -0.451  0.00  0.00    +0.141 A 
ATOM     15  C   UNL     1       0.177  -2.798  -0.434  0.00  0.00    +0.070 A 
ATOM     16  H   UNL     1      -1.714  -0.161  -0.216  0.00  0.00    +0.155 HD
BRANCH  12  17
ATOM     17  O   UNL     1       2.316  -6.971  -0.408  0.00  0.00    -0.480 OA
ATOM     18  H   UNL     1       3.115  -6.426  -0.369  0.00  0.00    +0.295 HD
ENDBRANCH  12  17
ENDBRANCH   1  10
BRANCH   1  19
ATOM     19  S   UNL     1      -2.813  -7.579  -2.264  0.00  0.00    -0.080 S 
BRANCH  19  20
ATOM     20  C   UNL     1      -4.385  -8.370  -2.173  0.00  0.00    +0.209 A 
ATOM     21  N   UNL     1      -5.161  -8.441  -1.115  0.00  0.00    -0.121 NA
ATOM     22  N   UNL     1      -6.234  -9.089  -1.397  0.00  0.00    -0.127 NA
ATOM     23  C   UNL     1      -6.209  -9.471  -2.653  0.00  0.00    +0.183 A 
ATOM     24  N   UNL     1      -5.027  -9.017  -3.190  0.00  0.00    -0.224 N 
BRANCH  23  25
ATOM     25  C   UNL     1      -7.257 -10.239  -3.359  0.00  0.00    +0.039 A 
ATOM     26  C   UNL     1      -6.911 -11.343  -4.139  0.00  0.00    +0.014 A 
ATOM     27  C   UNL     1      -7.893 -12.056  -4.795  0.00  0.00    +0.021 A 
ATOM     28  C   UNL     1      -9.221 -11.678  -4.681  0.00  0.00    +0.042 A 
ATOM     29  C   UNL     1      -9.571 -10.584  -3.908  0.00  0.00    +0.040 A 
ATOM     30  C   UNL     1      -8.598  -9.866  -3.242  0.00  0.00    +0.053 A 
ATOM     31 CL   UNL     1      -9.040  -8.498  -2.268  0.00  0.00    -0.083 Cl
ATOM     32 CL   UNL     1     -10.451 -12.580  -5.510  0.00  0.00    -0.083 Cl
ENDBRANCH  23  25
BRANCH  24  33
ATOM     33  N   UNL     1      -4.585  -9.181  -4.472  0.00  0.00    -0.295 N 
ATOM     34  H   UNL     1      -3.989  -9.991  -4.548  0.00  0.00    +0.163 HD
ATOM     35  H   UNL     1      -5.360  -9.242  -5.116  0.00  0.00    +0.163 HD
ENDBRANCH  24  33
ENDBRANCH  19  20
ENDBRANCH   1  19
TORSDOF 6
