REMARK  Name = ZINC38651018
REMARK  12 active torsions:
REMARK  status: ('A' for Active; 'I' for Inactive)
REMARK    1  A    between atoms: C_1  and  O_2
REMARK    2  A    between atoms: O_2  and  C_3
REMARK    3  A    between atoms: C_5  and  C_13
REMARK    4  A    between atoms: C_7  and  O_11
REMARK    5  A    between atoms: C_8  and  O_9
REMARK    6  A    between atoms: O_9  and  C_10
REMARK    7  A    between atoms: O_11  and  C_12
REMARK    8  A    between atoms: C_13  and  O_15
REMARK    9  A    between atoms: O_15  and  C_16
REMARK   10  A    between atoms: C_23  and  N_36
REMARK   11  A    between atoms: C_24  and  C_34
REMARK   12  A    between atoms: C_25  and  C_27
REMARK                            x       y       z     vdW  Elec       q    Type
REMARK                         _______ _______ _______ _____ _____    ______ ____
ROOT
ATOM      1  C   UNL     1      -7.113   0.444   0.021  0.00  0.00    +0.135 A 
ATOM      2  C   UNL     1      -6.913   1.815  -0.056  0.00  0.00    +0.047 A 
ATOM      3  C   UNL     1      -7.998   2.670  -0.081  0.00  0.00    +0.012 A 
ATOM      4  C   UNL     1      -9.285   2.164  -0.030  0.00  0.00    +0.008 A 
ATOM      5  C   UNL     1      -9.490   0.796   0.047  0.00  0.00    +0.138 A 
ATOM      6  C   UNL     1      -8.400  -0.065   0.066  0.00  0.00    +0.093 A 
ATOM      7  O   UNL     1     -10.743   0.282   0.098  0.00  0.00    -0.441 OA
ATOM      8  C   UNL     1     -11.789   1.024  -0.304  0.00  0.00    +0.199 C 
ATOM      9  C   UNL     1     -11.716   2.372  -0.399  0.00  0.00    +0.098 C 
ATOM     10  C   UNL     1     -10.454   3.113  -0.057  0.00  0.00    +0.099 C 
ENDROOT
BRANCH  10  11
ATOM     11  C   UNL     1     -10.606   3.758   1.296  0.00  0.00    -0.016 A 
ATOM     12  C   UNL     1     -10.828   2.976   2.414  0.00  0.00    +0.006 A 
ATOM     13  C   UNL     1     -10.967   3.568   3.655  0.00  0.00    +0.000 A 
ATOM     14  C   UNL     1     -10.884   4.942   3.780  0.00  0.00    +0.001 A 
ATOM     15  C   UNL     1     -10.661   5.725   2.663  0.00  0.00    +0.020 A 
ATOM     16  C   UNL     1     -10.516   5.133   1.421  0.00  0.00    +0.045 A 
ATOM     17 CL   UNL     1     -10.230   6.115   0.019  0.00  0.00    -0.083 Cl
ENDBRANCH  10  11
BRANCH   8  18
ATOM     18  N   UNL     1     -12.966   0.395  -0.628  0.00  0.00    -0.328 N 
ATOM     19  H   UNL     1     -13.033  -0.570  -0.565  0.00  0.00    +0.145 HD
ATOM     20  H   UNL     1     -13.729   0.917  -0.920  0.00  0.00    +0.145 HD
ENDBRANCH   8  18
BRANCH   9  21
ATOM     21  C   UNL     1     -12.865   3.108  -0.835  0.00  0.00    +0.101 C 
ATOM     22  N   UNL     1     -13.777   3.691  -1.181  0.00  0.00    -0.191 NA
ENDBRANCH   9  21
BRANCH   1  23
ATOM     23  O   UNL     1      -6.046  -0.398   0.045  0.00  0.00    -0.422 OA
BRANCH  23  24
ATOM     24  C   UNL     1      -5.735  -1.058  -1.088  0.00  0.00    +0.345 C 
ATOM     25  O   UNL     1      -6.452  -0.961  -2.064  0.00  0.00    -0.245 OA
BRANCH  24  28
ATOM     26  C   UNL     1      -3.065  -3.370  -2.366  0.00  0.00    +0.166 A 
ATOM     27  C   UNL     1      -4.201  -2.583  -2.317  0.00  0.00    +0.064 A 
ATOM     28  C   UNL     1      -4.525  -1.899  -1.143  0.00  0.00    +0.067 A 
ATOM     29  C   UNL     1      -3.699  -2.012  -0.021  0.00  0.00    +0.064 A 
ATOM     30  C   UNL     1      -2.565  -2.800  -0.075  0.00  0.00    +0.166 A 
ATOM     31  C   UNL     1      -2.248  -3.485  -1.245  0.00  0.00    +0.204 A 
BRANCH  26  33
ATOM     32  C   UNL     1      -3.633  -3.874  -4.620  0.00  0.00    +0.277 C 
ATOM     33  O   UNL     1      -2.750  -4.037  -3.509  0.00  0.00    -0.491 OA
ENDBRANCH  26  33
BRANCH  31  34
ATOM     34  O   UNL     1      -1.135  -4.264  -1.294  0.00  0.00    -0.488 OA
ATOM     35  C   UNL     1       0.079  -3.636  -1.713  0.00  0.00    +0.277 C 
ENDBRANCH  31  34
BRANCH  30  36
ATOM     36  O   UNL     1      -1.761  -2.910   1.016  0.00  0.00    -0.491 OA
ATOM     37  C   UNL     1      -2.149  -2.183   2.184  0.00  0.00    +0.277 C 
ENDBRANCH  30  36
ENDBRANCH  24  28
ENDBRANCH  23  24
ENDBRANCH   1  23
TORSDOF 9
