REMARK  Name = ZINC14159209
REMARK  12 active torsions:
REMARK  status: ('A' for Active; 'I' for Inactive)
REMARK    1  A    between atoms: C_1  and  C_2
REMARK    2  A    between atoms: C_5  and  N_9
REMARK    3  A    between atoms: N_9  and  C_10
REMARK    4  A    between atoms: C_10  and  N_12
REMARK    5  A    between atoms: N_14  and  C_15
REMARK    6  A    between atoms: C_15  and  C_16
REMARK    7  A    between atoms: C_16  and  S_17
REMARK    8  A    between atoms: S_17  and  C_18
REMARK    9  A    between atoms: C_18  and  C_19
REMARK   10  A    between atoms: C_20  and  C_25
REMARK   11  A    between atoms: C_29  and  C_34
REMARK   12  A    between atoms: C_31  and  C_33
REMARK                            x       y       z     vdW  Elec       q    Type
REMARK                         _______ _______ _______ _____ _____    ______ ____
ROOT
ATOM      1  N   UNL     1       0.012  -6.172  -1.019  0.00  0.00    -0.159 NA
ATOM      2  C   UNL     1       0.023  -6.908  -2.117  0.00  0.00    +0.195 C 
ATOM      3  N   UNL     1      -0.025  -6.306  -3.342  0.00  0.00    -0.357 N 
ATOM      4  N   UNL     1       0.083  -8.272  -2.027  0.00  0.00    -0.297 N 
ATOM      5  C   UNL     1       0.011  -8.890  -0.785  0.00  0.00    +0.231 A 
ATOM      6  N   UNL     1      -0.227  -8.153   0.289  0.00  0.00    -0.217 NA
ATOM      7  C   UNL     1      -0.302  -8.710   1.487  0.00  0.00    +0.044 A 
ATOM      8  C   UNL     1      -0.129 -10.080   1.608  0.00  0.00    +0.046 A 
ATOM      9  C   UNL     1       0.118 -10.820   0.463  0.00  0.00    +0.044 A 
ATOM     10  N   UNL     1       0.175 -10.201  -0.705  0.00  0.00    -0.217 NA
ATOM     11  C   UNL     1       0.313 -12.312   0.546  0.00  0.00    +0.066 C 
ATOM     12  C   UNL     1      -0.573  -7.864   2.705  0.00  0.00    +0.066 C 
ATOM     13  H   UNL     1       0.009  -5.339  -3.409  0.00  0.00    +0.162 HD
ATOM     14  H   UNL     1       0.176  -8.808  -2.830  0.00  0.00    +0.171 HD
ENDROOT
BRANCH   1  15
ATOM     15  C   UNL     1      -0.035  -4.835  -1.108  0.00  0.00    +0.162 C 
ATOM     16  S   UNL     1      -1.406  -4.071  -1.793  0.00  0.00    -0.016 S 
BRANCH  15  17
ATOM     17  N   UNL     1       0.996  -4.093  -0.658  0.00  0.00    -0.294 N 
ATOM     18  H   UNL     1       1.790  -4.527  -0.308  0.00  0.00    +0.154 HD
BRANCH  17  23
ATOM     19  C   UNL     1       0.692   1.570  -0.807  0.00  0.00    +0.044 C 
ATOM     20  C   UNL     1       0.773   0.066  -0.767  0.00  0.00    -0.049 A 
ATOM     21  C   UNL     1      -0.344  -0.676  -0.432  0.00  0.00    +0.005 A 
ATOM     22  C   UNL     1      -0.274  -2.055  -0.395  0.00  0.00    +0.025 A 
ATOM     23  C   UNL     1       0.921  -2.697  -0.695  0.00  0.00    +0.051 A 
ATOM     24  C   UNL     1       2.042  -1.948  -1.032  0.00  0.00    +0.062 A 
ATOM     25  C   UNL     1       1.963  -0.569  -1.072  0.00  0.00    +0.025 A 
ATOM     26 CL   UNL     1       3.538  -2.744  -1.408  0.00  0.00    -0.082 Cl
ENDBRANCH  17  23
ENDBRANCH  15  17
ENDBRANCH   1  15
BRANCH   3  27
ATOM     27  C   UNL     1      -0.127  -7.121  -4.555  0.00  0.00    +0.126 C 
BRANCH  27  28
ATOM     28  C   UNL     1      -0.052  -6.216  -5.786  0.00  0.00    +0.090 C 
BRANCH  28  29
ATOM     29  S   UNL     1      -0.323  -7.205  -7.282  0.00  0.00    -0.153 S 
BRANCH  29  30
ATOM     30  C   UNL     1      -0.203  -6.000  -8.633  0.00  0.00    +0.126 C 
BRANCH  30  31
ATOM     31  C   UNL     1      -0.412  -6.701  -9.950  0.00  0.00    +0.072 A 
ATOM     32  C   UNL     1       0.549  -7.259 -10.711  0.00  0.00    +0.036 A 
ATOM     33  N   UNL     1      -0.072  -7.782 -11.813  0.00  0.00    -0.348 N 
ATOM     34  H   UNL     1       0.356  -8.250 -12.547  0.00  0.00    +0.166 HD
ATOM     35  C   UNL     1      -1.392  -7.525 -11.687  0.00  0.00    +0.197 A 
ATOM     36  N   UNL     1      -1.588  -6.883 -10.569  0.00  0.00    -0.240 NA
ATOM     37  C   UNL     1       2.025  -7.299 -10.407  0.00  0.00    +0.065 C 
ENDBRANCH  30  31
ENDBRANCH  29  30
ENDBRANCH  28  29
ENDBRANCH  27  28
ENDBRANCH   3  27
TORSDOF 8
