REMARK  Name = ZINC58627293
REMARK  4 active torsions:
REMARK  status: ('A' for Active; 'I' for Inactive)
REMARK    1  A    between atoms: C_3  and  C_8
REMARK    2  A    between atoms: C_8  and  N_9
REMARK    3  A    between atoms: N_9  and  C_10
REMARK    4  A    between atoms: C_15  and  N_16
REMARK                            x       y       z     vdW  Elec       q    Type
REMARK                         _______ _______ _______ _____ _____    ______ ____
ROOT
ATOM      1  C   UNL     1       5.289   3.130   1.604  0.00  0.00    +0.051 A 
ATOM      2  C   UNL     1       6.051   3.602   0.544  0.00  0.00    +0.074 A 
ATOM      3  C   UNL     1       7.223   4.300   0.789  0.00  0.00    +0.164 A 
ATOM      4  C   UNL     1       7.633   4.526   2.098  0.00  0.00    +0.164 A 
ATOM      5  C   UNL     1       6.871   4.051   3.155  0.00  0.00    +0.072 A 
ATOM      6  C   UNL     1       5.700   3.360   2.910  0.00  0.00    +0.034 A 
ATOM      7  O   UNL     1       8.778   5.217   2.360  0.00  0.00    -0.485 OA
ATOM      8  C   UNL     1       9.707   5.354   1.279  0.00  0.00    +0.270 C 
ATOM      9  C   UNL     1       8.928   5.771   0.025  0.00  0.00    +0.270 C 
ATOM     10  O   UNL     1       7.961   4.755  -0.260  0.00  0.00    -0.485 OA
ENDROOT
BRANCH   6  11
ATOM     11  N   UNL     1       4.931   2.888   3.978  0.00  0.00    -0.415 NA
ATOM     12  H   UNL     1       5.234   1.958   4.225  0.00  0.00    +0.121 HD
ATOM     13  H   UNL     1       5.045   3.501   4.771  0.00  0.00    +0.121 HD
ATOM     14  H   UNL     1       3.959   2.864   3.708  0.00  0.00    +0.121 HD
ENDBRANCH   6  11
BRANCH   1  15
ATOM     15  N   UNL     1       4.105   2.426   1.356  0.00  0.00    -0.338 N 
ATOM     16  H   UNL     1       3.571   2.099   2.097  0.00  0.00    +0.146 HD
BRANCH  15  17
ATOM     17  C   UNL     1       3.672   2.183  -0.022  0.00  0.00    +0.137 C 
BRANCH  17  20
ATOM     18  C   UNL     1      -0.017   1.378   0.010  0.00  0.00    +0.001 A 
ATOM     19  C   UNL     1       1.171   2.086   0.002  0.00  0.00    +0.005 A 
ATOM     20  C   UNL     1       2.378   1.411  -0.013  0.00  0.00    -0.029 A 
ATOM     21  C   UNL     1       2.397   0.029  -0.022  0.00  0.00    +0.020 A 
ATOM     22  C   UNL     1       1.210  -0.679  -0.014  0.00  0.00    +0.018 A 
ATOM     23  C   UNL     1       0.002  -0.004   0.002  0.00  0.00    +0.015 A 
ATOM     24 BR   UNL     1       1.236  -2.570  -0.025  0.00  0.00    -0.050 Br
ENDBRANCH  17  20
ENDBRANCH  15  17
ENDBRANCH   1  15
TORSDOF 4
