REMARK  Name = ZINC17046539
REMARK  12 active torsions:
REMARK  status: ('A' for Active; 'I' for Inactive)
REMARK    1  A    between atoms: C_1  and  C_2
REMARK    2  A    between atoms: C_2  and  C_4
REMARK    3  A    between atoms: C_4  and  O_34
REMARK    4  A    between atoms: C_8  and  O_25
REMARK    5  A    between atoms: C_11  and  O_12
REMARK    6  A    between atoms: C_19  and  O_23
REMARK    7  A    between atoms: O_23  and  C_24
REMARK    8  A    between atoms: C_26  and  O_29
REMARK    9  A    between atoms: O_29  and  C_30
REMARK   10  A    between atoms: C_30  and  C_32
REMARK   11  A    between atoms: C_32  and  C_33
REMARK   12  A    between atoms: C_33  and  N_57
REMARK                            x       y       z     vdW  Elec       q    Type
REMARK                         _______ _______ _______ _____ _____    ______ ____
ROOT
ATOM      1  C   UNL     1      -1.237   3.471  -0.396  0.00  0.00    +0.131 C 
ATOM      2  C   UNL     1      -1.333   2.008   0.030  0.00  0.00    +0.082 C 
ATOM      3  C   UNL     1       0.025   1.354  -0.003  0.00  0.00    +0.008 A 
ATOM      4  C   UNL     1       1.192   2.076  -0.016  0.00  0.00    +0.042 A 
ATOM      5  C   UNL     1       2.427   1.414  -0.032  0.00  0.00    +0.136 A 
ATOM      6  C   UNL     1       2.485   0.022  -0.040  0.00  0.00    +0.078 A 
ATOM      7  C   UNL     1       1.286  -0.719  -0.032  0.00  0.00    +0.078 A 
ATOM      8  C   UNL     1       0.066  -0.046  -0.014  0.00  0.00    +0.132 A 
ATOM      9  C   UNL     1       1.329  -2.192  -0.042  0.00  0.00    +0.198 C 
ATOM     10  O   UNL     1       0.296  -2.832  -0.036  0.00  0.00    -0.286 OA
ATOM     11  C   UNL     1       2.632  -2.889  -0.057  0.00  0.00    +0.037 A 
ATOM     12  C   UNL     1       2.683  -4.279  -0.064  0.00  0.00    +0.012 A 
ATOM     13  C   UNL     1       3.907  -4.928  -0.078  0.00  0.00    +0.004 A 
ATOM     14  C   UNL     1       5.083  -4.207  -0.087  0.00  0.00    +0.046 A 
ATOM     15  C   UNL     1       5.056  -2.816  -0.081  0.00  0.00    +0.132 A 
ATOM     16  C   UNL     1       3.828  -2.147  -0.066  0.00  0.00    +0.075 A 
ATOM     17  C   UNL     1       3.783  -0.674  -0.057  0.00  0.00    +0.202 C 
ATOM     18  O   UNL     1       4.817  -0.033  -0.065  0.00  0.00    -0.286 OA
ATOM     19  C   UNL     1       1.213   3.583  -0.022  0.00  0.00    +0.214 C 
ATOM     20  C   UNL     1      -0.134   4.143   0.430  0.00  0.00    +0.092 C 
ENDROOT
BRANCH   1  22
ATOM     21  C   UNL     1      -3.643   4.108  -1.181  0.00  0.00    +0.089 C 
ATOM     22  C   UNL     1      -2.553   4.161  -0.143  0.00  0.00    +0.162 C 
ATOM     23  O   UNL     1      -2.733   4.757   0.892  0.00  0.00    -0.295 OA
ENDBRANCH   1  22
BRANCH   8  24
ATOM     24  O   UNL     1      -1.092  -0.753  -0.007  0.00  0.00    -0.506 OA
ATOM     25  H   UNL     1      -1.437  -0.951  -0.888  0.00  0.00    +0.292 HD
ENDBRANCH   8  24
BRANCH  15  26
ATOM     26  O   UNL     1       6.215  -2.112  -0.091  0.00  0.00    -0.494 OA
ATOM     27  C   UNL     1       7.430  -2.863  -0.107  0.00  0.00    +0.277 C 
ENDBRANCH  15  26
BRANCH   5  28
ATOM     28  O   UNL     1       3.576   2.135  -0.038  0.00  0.00    -0.506 OA
ATOM     29  H   UNL     1       3.939   2.288  -0.921  0.00  0.00    +0.292 HD
ENDBRANCH   5  28
BRANCH   1  30
ATOM     30  O   UNL     1      -0.912   3.548  -1.785  0.00  0.00    -0.381 OA
ATOM     31  H   UNL     1      -1.570   3.141  -2.366  0.00  0.00    +0.211 HD
ENDBRANCH   1  30
BRANCH  19  32
ATOM     32  O   UNL     1       2.252   4.051   0.878  0.00  0.00    -0.456 OA
BRANCH  32  33
ATOM     33  C   UNL     1       2.781   5.258   0.624  0.00  0.00    +0.306 C 
ATOM     34  O   UNL     1       2.325   5.943  -0.261  0.00  0.00    -0.251 OA
BRANCH  33  35
ATOM     35  C   UNL     1       3.944   5.758   1.441  0.00  0.00    +0.101 C 
BRANCH  35  36
ATOM     36  C   UNL     1       4.352   7.149   0.950  0.00  0.00    -0.075 C 
BRANCH  36  39
ATOM     37  H   UNL     1       6.256   6.986   1.715  0.00  0.00    -0.090 HD
ATOM     38  H   UNL     1       5.774   8.554   1.442  0.00  0.00    -0.090 HD
ATOM     39  N   UNL     1       5.475   7.637   1.770  0.00  0.00    +0.378 N 
ATOM     40  H   UNL     1       5.170   7.714   2.747  0.00  0.00    -0.090 HD
ENDBRANCH  36  39
ENDBRANCH  35  36
ENDBRANCH  33  35
ENDBRANCH  32  33
ENDBRANCH  19  32
TORSDOF 10
