REMARK  Name = ZINC41585534
REMARK  10 active torsions:
REMARK  status: ('A' for Active; 'I' for Inactive)
REMARK    1  A    between atoms: C_1  and  C_2
REMARK    2  A    between atoms: C_4  and  O_37
REMARK    3  A    between atoms: C_5  and  C_23
REMARK    4  A    between atoms: C_11  and  C_12
REMARK    5  A    between atoms: C_15  and  O_20
REMARK    6  A    between atoms: C_16  and  O_18
REMARK    7  A    between atoms: O_18  and  C_19
REMARK    8  A    between atoms: O_20  and  C_21
REMARK    9  A    between atoms: C_23  and  N_24
REMARK   10  A    between atoms: N_27  and  C_30
REMARK                            x       y       z     vdW  Elec       q    Type
REMARK                         _______ _______ _______ _____ _____    ______ ____
ROOT
ATOM      1  C   UNL     1      -0.453   1.808   0.196  0.00  0.00    +0.045 C 
ATOM      2  C   UNL     1      -0.333   0.311   0.073  0.00  0.00    -0.033 A 
ATOM      3  C   UNL     1      -0.348  -0.278  -1.161  0.00  0.00    +0.050 A 
ATOM      4  C   UNL     1      -0.237  -1.660  -1.277  0.00  0.00    +0.122 A 
ATOM      5  C   UNL     1      -0.111  -2.455  -0.149  0.00  0.00    +0.020 A 
ATOM      6  C   UNL     1      -0.094  -1.873   1.112  0.00  0.00    +0.145 A 
ATOM      7  C   UNL     1      -0.201  -0.477   1.217  0.00  0.00    +0.071 A 
ATOM      8  C   UNL     1      -0.145  -0.162   2.656  0.00  0.00    +0.232 C 
ATOM      9  O   UNL     1      -0.208   0.935   3.183  0.00  0.00    -0.283 OA
ATOM     10  C   UNL     1       0.004  -1.469   3.313  0.00  0.00    +0.176 C 
ATOM     11  C   UNL     1       0.098  -1.688   4.650  0.00  0.00    +0.058 C 
ATOM     12  O   UNL     1       0.015  -2.415   2.345  0.00  0.00    -0.451 OA
ENDROOT
BRANCH  11  13
ATOM     13  C   UNL     1       0.133  -3.062   5.167  0.00  0.00    -0.018 A 
ATOM     14  C   UNL     1       0.206  -4.144   4.282  0.00  0.00    +0.012 A 
ATOM     15  C   UNL     1       0.239  -5.431   4.771  0.00  0.00    +0.050 A 
ATOM     16  C   UNL     1       0.200  -5.660   6.140  0.00  0.00    +0.162 A 
ATOM     17  C   UNL     1       0.126  -4.587   7.029  0.00  0.00    +0.162 A 
ATOM     18  C   UNL     1       0.099  -3.293   6.548  0.00  0.00    +0.057 A 
BRANCH  17  19
ATOM     19  O   UNL     1       0.087  -4.816   8.368  0.00  0.00    -0.491 OA
ATOM     20  C   UNL     1       0.012  -3.671   9.220  0.00  0.00    +0.277 C 
ENDBRANCH  17  19
BRANCH  16  21
ATOM     21  O   UNL     1       0.232  -6.931   6.616  0.00  0.00    -0.491 OA
ATOM     22  C   UNL     1       0.307  -7.983   5.651  0.00  0.00    +0.277 C 
ENDBRANCH  16  21
ENDBRANCH  11  13
BRANCH   4  23
ATOM     23  O   UNL     1      -0.253  -2.235  -2.507  0.00  0.00    -0.506 OA
ATOM     24  H   UNL     1       0.622  -2.327  -2.909  0.00  0.00    +0.292 HD
ENDBRANCH   4  23
BRANCH   5  25
ATOM     25  C   UNL     1       0.007  -3.951  -0.290  0.00  0.00    -0.035 C 
BRANCH  25  26
ATOM     26  N   UNL     1       1.424  -4.321  -0.409  0.00  0.00    +0.385 N 
ATOM     27  C   UNL     1       1.973  -3.759  -1.649  0.00  0.00    -0.059 C 
ATOM     28  C   UNL     1       3.476  -4.047  -1.718  0.00  0.00    +0.086 C 
ATOM     29  N   UNL     1       3.681  -5.495  -1.565  0.00  0.00    -0.333 N 
ATOM     30  C   UNL     1       3.028  -6.172  -0.434  0.00  0.00    +0.086 C 
ATOM     31  C   UNL     1       1.545  -5.784  -0.426  0.00  0.00    -0.059 C 
ATOM     32  H   UNL     1       1.933  -3.952   0.380  0.00  0.00    -0.081 HD
BRANCH  29  33
ATOM     33  C   UNL     1       4.475  -6.208  -2.468  0.00  0.00    +0.030 A 
ATOM     34  C   UNL     1       5.183  -5.534  -3.454  0.00  0.00    +0.026 A 
ATOM     35  C   UNL     1       5.967  -6.241  -4.345  0.00  0.00    +0.040 A 
ATOM     36  C   UNL     1       6.047  -7.620  -4.256  0.00  0.00    +0.124 A 
ATOM     37  C   UNL     1       5.341  -8.294  -3.274  0.00  0.00    +0.040 A 
ATOM     38  C   UNL     1       4.560  -7.592  -2.378  0.00  0.00    +0.026 A 
ATOM     39  F   UNL     1       6.814  -8.309  -5.129  0.00  0.00    -0.205 F 
ENDBRANCH  29  33
ENDBRANCH  25  26
ENDBRANCH   5  25
TORSDOF 7
