REMARK  Name = ZINC00958540
REMARK  11 active torsions:
REMARK  status: ('A' for Active; 'I' for Inactive)
REMARK    1  A    between atoms: C_1  and  C_2
REMARK    2  A    between atoms: C_2  and  O_3
REMARK    3  A    between atoms: O_3  and  C_4
REMARK    4  A    between atoms: C_4  and  C_6
REMARK    5  A    between atoms: C_10  and  N_11
REMARK    6  A    between atoms: C_12  and  C_14
REMARK    7  A    between atoms: C_17  and  O_20
REMARK    8  A    between atoms: O_20  and  C_21
REMARK    9  A    between atoms: C_21  and  C_23
REMARK   10  A    between atoms: C_21  and  C_24
REMARK   11  A    between atoms: N_26  and  N_27
REMARK                            x       y       z     vdW  Elec       q    Type
REMARK                         _______ _______ _______ _____ _____    ______ ____
ROOT
ATOM      1  N   UNL     1      -6.355   4.737  -1.244  0.00  0.00    -0.275 N 
ATOM      2  C   UNL     1      -5.334   5.486  -0.781  0.00  0.00    +0.249 C 
ATOM      3  O   UNL     1      -5.409   6.699  -0.809  0.00  0.00    -0.270 OA
ATOM      4  H   UNL     1      -6.295   3.769  -1.221  0.00  0.00    +0.156 HD
ENDROOT
BRANCH   1   9
ATOM      5  C   UNL     1      -8.630   4.755  -2.274  0.00  0.00    +0.091 A 
ATOM      6  C   UNL     1      -9.690   5.633  -2.741  0.00  0.00    -0.021 A 
ATOM      7  C   UNL     1      -9.436   6.955  -2.622  0.00  0.00    -0.004 A 
ATOM      8  S   UNL     1      -7.824   7.043  -1.895  0.00  0.00    -0.077 S 
ATOM      9  C   UNL     1      -7.489   5.349  -1.751  0.00  0.00    +0.087 A 
ATOM     10  C   UNL     1     -10.333   8.086  -3.022  0.00  0.00    +0.043 C 
ATOM     11  C   UNL     1     -11.435   7.530  -3.935  0.00  0.00    +0.005 C 
ATOM     12  C   UNL     1     -12.025   6.274  -3.288  0.00  0.00    +0.005 C 
ATOM     13  C   UNL     1     -11.003   5.136  -3.333  0.00  0.00    +0.037 C 
BRANCH   5  14
ATOM     14  C   UNL     1      -8.763   3.299  -2.347  0.00  0.00    +0.342 C 
ATOM     15  O   UNL     1      -9.253   2.685  -1.418  0.00  0.00    -0.245 OA
BRANCH  14  16
ATOM     16  O   UNL     1      -8.342   2.638  -3.445  0.00  0.00    -0.461 OA
BRANCH  16  18
ATOM     17  C   UNL     1      -7.973   0.625  -4.765  0.00  0.00    +0.048 C 
ATOM     18  C   UNL     1      -8.504   1.195  -3.448  0.00  0.00    +0.229 C 
ENDBRANCH  16  18
ENDBRANCH  14  16
ENDBRANCH   5  14
ENDBRANCH   1   9
BRANCH   2  19
ATOM     19  C   UNL     1      -4.126   4.833  -0.240  0.00  0.00    +0.037 A 
ATOM     20  C   UNL     1      -3.067   5.608   0.240  0.00  0.00    +0.016 A 
ATOM     21  C   UNL     1      -1.942   4.995   0.744  0.00  0.00    +0.046 A 
ATOM     22  C   UNL     1      -1.859   3.608   0.776  0.00  0.00    +0.122 A 
ATOM     23  C   UNL     1      -2.908   2.834   0.295  0.00  0.00    +0.046 A 
ATOM     24  C   UNL     1      -4.039   3.439  -0.206  0.00  0.00    +0.016 A 
BRANCH  22  25
ATOM     25  O   UNL     1      -0.748   3.008   1.275  0.00  0.00    -0.480 OA
BRANCH  25  26
ATOM     26  C   UNL     1       0.342   3.858   1.636  0.00  0.00    +0.257 C 
ATOM     27  C   UNL     1       0.130   4.382   3.058  0.00  0.00    +0.062 C 
BRANCH  26  28
ATOM     28  C   UNL     1       1.630   3.078   1.575  0.00  0.00    +0.267 C 
ATOM     29  O   UNL     1       1.607   1.888   1.342  0.00  0.00    -0.270 OA
ATOM     30  N   UNL     1       2.806   3.702   1.778  0.00  0.00    -0.251 N 
ATOM     31  H   UNL     1       2.825   4.654   1.965  0.00  0.00    +0.169 HD
BRANCH  30  32
ATOM     32  N   UNL     1       3.974   2.995   1.723  0.00  0.00    -0.254 NA
ATOM     33  H   UNL     1       4.065   2.518   0.839  0.00  0.00    +0.140 HD
ATOM     34  H   UNL     1       4.768   3.593   1.895  0.00  0.00    +0.140 HD
ENDBRANCH  30  32
ENDBRANCH  26  28
ENDBRANCH  25  26
ENDBRANCH  22  25
ENDBRANCH   2  19
TORSDOF 9
