REMARK  Name = ZINC39534194
REMARK  10 active torsions:
REMARK  status: ('A' for Active; 'I' for Inactive)
REMARK    1  A    between atoms: C_4  and  O_7
REMARK    2  A    between atoms: O_7  and  S_8
REMARK    3  A    between atoms: S_8  and  C_11
REMARK    4  A    between atoms: N_14  and  C_18
REMARK    5  A    between atoms: C_18  and  C_20
REMARK    6  A    between atoms: C_18  and  C_23
REMARK    7  A    between atoms: C_20  and  N_21
REMARK    8  A    between atoms: N_21  and  O_22
REMARK    9  A    between atoms: C_26  and  C_29
REMARK   10  A    between atoms: C_34  and  O_35
REMARK                            x       y       z     vdW  Elec       q    Type
REMARK                         _______ _______ _______ _____ _____    ______ ____
ROOT
ATOM      1  C   UNL     1       2.588  -4.106   5.170  0.00  0.00    +0.103 C 
ENDROOT
BRANCH   1   4
ATOM      2  C   UNL     1       2.168  -2.438   1.819  0.00  0.00    +0.130 C 
ATOM      3  C   UNL     1       2.843  -2.808   3.141  0.00  0.00    +0.095 C 
ATOM      4  N   UNL     1       1.951  -3.682   3.915  0.00  0.00    -0.296 NA
ATOM      5  C   UNL     1       0.666  -3.017   4.176  0.00  0.00    +0.066 C 
ATOM      6  C   UNL     1       0.009  -2.645   2.845  0.00  0.00    -0.064 C 
ATOM      7  N   UNL     1       0.899  -1.751   2.092  0.00  0.00    +0.398 N 
ATOM      8  H   UNL     1       1.077  -0.919   2.635  0.00  0.00    -0.083 HD
ATOM      9  H   UNL     1       0.460  -1.496   1.220  0.00  0.00    -0.083 HD
BRANCH   2  10
ATOM     10  S   UNL     1       3.257  -1.340   0.870  0.00  0.00    +0.109 S 
ATOM     11  O   UNL     1       4.400  -2.054   0.420  0.00  0.00    -0.138 OA
ATOM     12  O   UNL     1       3.398  -0.094   1.539  0.00  0.00    -0.138 OA
BRANCH  10  13
ATOM     13  O   UNL     1       2.478  -1.015  -0.396  0.00  0.00    -0.347 OA
BRANCH  13  17
ATOM     14  C   UNL     1       2.384  -4.090  -3.145  0.00  0.00    +0.000 A 
ATOM     15  C   UNL     1       1.431  -4.029  -2.144  0.00  0.00    +0.004 A 
ATOM     16  C   UNL     1       1.461  -3.000  -1.223  0.00  0.00    +0.048 A 
ATOM     17  C   UNL     1       2.447  -2.028  -1.302  0.00  0.00    +0.156 A 
ATOM     18  C   UNL     1       3.402  -2.092  -2.306  0.00  0.00    +0.048 A 
ATOM     19  C   UNL     1       3.368  -3.122  -3.225  0.00  0.00    +0.004 A 
ENDBRANCH  13  17
ENDBRANCH  10  13
ENDBRANCH   2  10
ENDBRANCH   1   4
BRANCH   1  20
ATOM     20  C   UNL     1       2.024  -5.438   5.594  0.00  0.00    -0.029 A 
ATOM     21  C   UNL     1       0.810  -5.865   5.086  0.00  0.00    +0.006 A 
ATOM     22  C   UNL     1       0.289  -7.084   5.471  0.00  0.00    +0.009 A 
ATOM     23  C   UNL     1       0.987  -7.884   6.374  0.00  0.00    -0.014 A 
ATOM     24  C   UNL     1       2.210  -7.448   6.882  0.00  0.00    +0.009 A 
ATOM     25  C   UNL     1       2.724  -6.230   6.486  0.00  0.00    +0.006 A 
BRANCH  23  26
ATOM     26  C   UNL     1       0.432  -9.194   6.792  0.00  0.00    +0.024 A 
ATOM     27  C   UNL     1      -0.887  -9.286   7.233  0.00  0.00    +0.012 A 
ATOM     28  C   UNL     1      -1.399 -10.507   7.621  0.00  0.00    +0.001 A 
ATOM     29  C   UNL     1      -0.608 -11.642   7.574  0.00  0.00    +0.004 A 
ATOM     30  C   UNL     1       0.702 -11.561   7.139  0.00  0.00    +0.046 A 
ATOM     31  C   UNL     1       1.227 -10.342   6.741  0.00  0.00    +0.125 A 
BRANCH  31  32
ATOM     32  O   UNL     1       2.512 -10.263   6.307  0.00  0.00    -0.506 OA
ATOM     33  H   UNL     1       3.154 -10.090   7.009  0.00  0.00    +0.292 HD
ENDBRANCH  31  32
ENDBRANCH  23  26
ENDBRANCH   1  20
BRANCH   1  34
ATOM     34  C   UNL     1       2.314  -3.066   6.258  0.00  0.00    +0.134 C 
BRANCH  34  35
ATOM     35  N   UNL     1       2.844  -1.763   5.835  0.00  0.00    -0.202 NA
ATOM     36  H   UNL     1       2.367  -1.429   5.011  0.00  0.00    +0.154 HD
BRANCH  35  37
ATOM     37  O   UNL     1       2.764  -0.786   6.921  0.00  0.00    -0.315 OA
ATOM     38  H   UNL     1       3.102   0.089   6.688  0.00  0.00    +0.236 HD
ENDBRANCH  35  37
ENDBRANCH  34  35
ENDBRANCH   1  34
TORSDOF 10
