REMARK  Name = ZINC60670571
REMARK  10 active torsions:
REMARK  status: ('A' for Active; 'I' for Inactive)
REMARK    1  A    between atoms: C_1  and  C_2
REMARK    2  A    between atoms: C_3  and  C_13
REMARK    3  A    between atoms: C_4  and  C_12
REMARK    4  A    between atoms: C_13  and  C_14
REMARK    5  A    between atoms: C_14  and  C_15
REMARK    6  A    between atoms: N_17  and  C_18
REMARK    7  A    between atoms: C_18  and  C_19
REMARK    8  A    between atoms: C_19  and  N_20
REMARK    9  A    between atoms: C_22  and  C_27
REMARK   10  A    between atoms: C_24  and  C_26
REMARK                            x       y       z     vdW  Elec       q    Type
REMARK                         _______ _______ _______ _____ _____    ______ ____
ROOT
ATOM      1  C   UNL     1      -2.898   0.362   1.456  0.00  0.00    +0.100 C 
ENDROOT
BRANCH   1   2
ATOM      2  C   UNL     1      -4.217   1.092   1.466  0.00  0.00    +0.213 C 
ATOM      3  O   UNL     1      -4.797   1.312   0.424  0.00  0.00    -0.276 OA
ATOM      4  N   UNL     1      -4.751   1.501   2.634  0.00  0.00    -0.317 N 
ATOM      5  H   UNL     1      -4.287   1.325   3.468  0.00  0.00    +0.149 HD
BRANCH   4   6
ATOM      6  C   UNL     1      -6.033   2.211   2.645  0.00  0.00    +0.085 C 
BRANCH   6   7
ATOM      7  C   UNL     1      -6.411   2.559   4.086  0.00  0.00    -0.060 C 
BRANCH   7   8
ATOM      8  N   UNL     1      -7.696   3.271   4.096  0.00  0.00    +0.381 N 
ATOM      9  C   UNL     1      -8.754   2.375   3.614  0.00  0.00    -0.076 C 
ATOM     10  C   UNL     1     -10.080   3.135   3.546  0.00  0.00    -0.031 C 
ATOM     11  C   UNL     1     -10.440   3.648   4.944  0.00  0.00    +0.003 C 
ATOM     12  C   UNL     1      -9.296   4.522   5.467  0.00  0.00    -0.031 C 
ATOM     13  C   UNL     1      -7.999   3.710   5.464  0.00  0.00    -0.076 C 
ATOM     14  C   UNL     1      -9.611   4.976   6.894  0.00  0.00    +0.005 C 
ATOM     15  C   UNL     1     -11.181   2.198   3.046  0.00  0.00    +0.005 C 
ATOM     16  H   UNL     1      -7.638   4.076   3.491  0.00  0.00    -0.082 HD
ENDBRANCH   7   8
ENDBRANCH   6   7
ENDBRANCH   4   6
ENDBRANCH   1   2
BRANCH   1  17
ATOM     17  C   UNL     1      -2.520   0.013   0.015  0.00  0.00    +0.048 C 
BRANCH  17  20
ATOM     18  C   UNL     1      -0.018   1.503   0.010  0.00  0.00    +0.066 C 
ATOM     19  C   UNL     1       0.002  -0.004   0.002  0.00  0.00    +0.047 A 
ATOM     20  C   UNL     1      -1.202  -0.717   0.004  0.00  0.00    -0.005 A 
ATOM     21  C   UNL     1      -1.169  -2.075  -0.004  0.00  0.00    +0.048 A 
ATOM     22  N   UNL     1       0.035  -2.706  -0.013  0.00  0.00    -0.199 N 
ATOM     23  C   UNL     1       1.192  -1.980  -0.014  0.00  0.00    +0.255 A 
ATOM     24  N   UNL     1       1.151  -0.643  -0.012  0.00  0.00    -0.216 NA
ATOM     25  N   UNL     1       2.202  -2.844  -0.023  0.00  0.00    -0.176 NA
ATOM     26  C   UNL     1       1.728  -4.088  -0.027  0.00  0.00    +0.234 A 
ATOM     27  N   UNL     1       0.411  -4.055  -0.021  0.00  0.00    -0.128 NA
ATOM     28  N   UNL     1       2.504  -5.244  -0.036  0.00  0.00    -0.326 N 
ATOM     29  C   UNL     1      -2.449  -2.871  -0.001  0.00  0.00    +0.066 C 
ATOM     30  H   UNL     1       3.471  -5.179  -0.040  0.00  0.00    +0.145 HD
ATOM     31  H   UNL     1       2.076  -6.115  -0.039  0.00  0.00    +0.145 HD
ENDBRANCH  17  20
ENDBRANCH   1  17
TORSDOF 6
