REMARK  Name = ZINC50462823
REMARK  3 active torsions:
REMARK  status: ('A' for Active; 'I' for Inactive)
REMARK    1  A    between atoms: C_6  and  N_7
REMARK    2  A    between atoms: C_13  and  C_15
REMARK    3  A    between atoms: C_18  and  N_20
REMARK                            x       y       z     vdW  Elec       q    Type
REMARK                         _______ _______ _______ _____ _____    ______ ____
ROOT
ATOM      1  C   UNL     1      -0.019   1.526   0.010  0.00  0.00    +0.041 C 
ATOM      2  C   UNL     1       1.420   2.052  -0.001  0.00  0.00    +0.109 C 
ATOM      3  N   UNL     1       2.130   1.465  -1.145  0.00  0.00    -0.301 N 
ATOM      4  C   UNL     1       2.135   0.004  -1.299  0.00  0.00    +0.109 C 
ATOM      5  C   UNL     1       0.688  -0.500  -1.273  0.00  0.00    +0.041 C 
ATOM      6  C   UNL     1       0.002  -0.004   0.002  0.00  0.00    +0.081 C 
ATOM      7  C   UNL     1       2.764   2.251  -2.037  0.00  0.00    +0.217 C 
ATOM      8  O   UNL     1       2.752   3.456  -1.899  0.00  0.00    -0.275 OA
ENDROOT
BRANCH   6   9
ATOM      9  N   UNL     1      -1.372  -0.511   0.046  0.00  0.00    -0.281 N 
ATOM     10  C   UNL     1      -1.930  -1.369   1.102  0.00  0.00    +0.128 C 
ATOM     11  C   UNL     1      -3.388  -1.599   0.658  0.00  0.00    +0.124 C 
ATOM     12  N   UNL     1      -3.496  -0.847  -0.601  0.00  0.00    -0.298 N 
ATOM     13  C   UNL     1      -2.320  -0.262  -0.867  0.00  0.00    +0.303 C 
ATOM     14  O   UNL     1      -2.130   0.428  -1.849  0.00  0.00    -0.253 OA
ATOM     15  H   UNL     1      -4.293  -0.781  -1.150  0.00  0.00    +0.150 HD
ENDBRANCH   6   9
BRANCH   7  16
ATOM     16  C   UNL     1       3.488   1.633  -3.205  0.00  0.00    +0.059 C 
ATOM     17  C   UNL     1       2.901   1.861  -4.600  0.00  0.00    -0.005 C 
ATOM     18  C   UNL     1       4.186   2.580  -4.184  0.00  0.00    -0.063 C 
BRANCH  18  19
ATOM     19  N   UNL     1       4.100   4.021  -3.913  0.00  0.00    +0.380 N 
ATOM     20  H   UNL     1       4.510   4.218  -3.012  0.00  0.00    -0.090 HD
ATOM     21  H   UNL     1       4.599   4.528  -4.628  0.00  0.00    -0.090 HD
ATOM     22  H   UNL     1       3.132   4.306  -3.911  0.00  0.00    -0.090 HD
ENDBRANCH  18  19
ENDBRANCH   7  16
TORSDOF 3
