REMARK  Name = ZINC05302065
REMARK  8 active torsions:
REMARK  status: ('A' for Active; 'I' for Inactive)
REMARK    1  A    between atoms: C_1  and  C_2
REMARK    2  A    between atoms: C_2  and  C_3
REMARK    3  A    between atoms: C_2  and  C_5
REMARK    4  A    between atoms: C_2  and  N_44
REMARK    5  A    between atoms: C_3  and  O_4
REMARK    6  A    between atoms: C_5  and  O_6
REMARK    7  A    between atoms: C_7  and  C_8
REMARK    8  A    between atoms: C_7  and  N_44
REMARK                            x       y       z     vdW  Elec       q    Type
REMARK                         _______ _______ _______ _____ _____    ______ ____
ROOT
ATOM      1  C   UNL     1       0.002  -0.004   0.002  0.00  0.00    -0.056 A 
ATOM      2  C   UNL     1       1.219  -0.729   0.424  0.00  0.00    +0.011 A 
ATOM      3  C   UNL     1       1.237  -2.041   0.417  0.00  0.00    -0.017 A 
ATOM      4  C   UNL     1       2.418  -2.821   0.825  0.00  0.00    +0.008 A 
ATOM      5  C   UNL     1       2.366  -4.136   0.793  0.00  0.00    +0.001 A 
ATOM      6  C   UNL     1       1.171  -4.873   0.364  0.00  0.00    +0.008 A 
ATOM      7  C   UNL     1       0.074  -4.261  -0.016  0.00  0.00    -0.017 A 
ATOM      8  C   UNL     1       0.040  -2.787  -0.013  0.00  0.00    -0.002 A 
ATOM      9  C   UNL     1      -1.035  -2.147  -0.385  0.00  0.00    -0.002 A 
ATOM     10  C   UNL     1      -1.062  -0.672  -0.375  0.00  0.00    -0.015 A 
ATOM     11  C   UNL     1      -2.307  -0.009  -0.802  0.00  0.00    +0.009 A 
ATOM     12  C   UNL     1      -3.336  -0.744  -1.167  0.00  0.00    +0.001 A 
ATOM     13  C   UNL     1      -3.305  -2.212  -1.170  0.00  0.00    +0.008 A 
ATOM     14  C   UNL     1      -2.235  -2.885  -0.816  0.00  0.00    -0.017 A 
ATOM     15  C   UNL     1      -2.208  -4.358  -0.822  0.00  0.00    +0.009 A 
ATOM     16  C   UNL     1      -1.122  -5.005  -0.446  0.00  0.00    +0.009 A 
ENDROOT
BRANCH   1  17
ATOM     17  C   UNL     1      -0.018   1.503   0.010  0.00  0.00    -0.045 C 
BRANCH  17  18
ATOM     18  N   UNL     1      -0.710   1.970   1.226  0.00  0.00    +0.388 N 
ATOM     19  H   UNL     1      -1.671   1.608   1.230  0.00  0.00    -0.084 HD
ATOM     20  H   UNL     1      -0.211   1.624   2.054  0.00  0.00    -0.084 HD
BRANCH  18  22
ATOM     21  C   UNL     1       0.683   3.993   1.262  0.00  0.00    -0.006 C 
ATOM     22  C   UNL     1      -0.745   3.444   1.261  0.00  0.00    -0.024 C 
BRANCH  22  23
ATOM     23  C   UNL     1      -1.492   3.970   0.034  0.00  0.00    +0.145 C 
BRANCH  23  24
ATOM     24  O   UNL     1      -2.826   3.458   0.033  0.00  0.00    -0.396 OA
ATOM     25  H   UNL     1      -3.359   3.751  -0.719  0.00  0.00    +0.209 HD
ENDBRANCH  23  24
ENDBRANCH  22  23
BRANCH  22  26
ATOM     26  C   UNL     1      -1.467   3.899   2.531  0.00  0.00    +0.145 C 
BRANCH  26  27
ATOM     27  O   UNL     1      -1.505   5.327   2.572  0.00  0.00    -0.396 OA
ATOM     28  H   UNL     1      -1.950   5.686   3.352  0.00  0.00    +0.209 HD
ENDBRANCH  26  27
ENDBRANCH  22  26
ENDBRANCH  18  22
ENDBRANCH  17  18
ENDBRANCH   1  17
TORSDOF 7
