REMARK  Name = ZINC33326888
REMARK  8 active torsions:
REMARK  status: ('A' for Active; 'I' for Inactive)
REMARK    1  A    between atoms: C_1  and  C_2
REMARK    2  A    between atoms: C_5  and  S_8
REMARK    3  A    between atoms: S_8  and  N_11
REMARK    4  A    between atoms: N_11  and  C_12
REMARK    5  A    between atoms: C_15  and  N_18
REMARK    6  A    between atoms: C_21  and  N_26
REMARK    7  A    between atoms: C_23  and  C_25
REMARK    8  A    between atoms: N_26  and  C_27
REMARK                            x       y       z     vdW  Elec       q    Type
REMARK                         _______ _______ _______ _____ _____    ______ ____
ROOT
ATOM      1  C   UNL     1       2.784   0.517  -1.396  0.00  0.00    +0.048 A 
ATOM      2  C   UNL     1       1.664  -0.106  -0.860  0.00  0.00    +0.026 A 
ATOM      3  C   UNL     1       0.503   0.614  -0.660  0.00  0.00    +0.025 A 
ATOM      4  C   UNL     1       0.455   1.961  -0.993  0.00  0.00    +0.032 A 
ATOM      5  C   UNL     1       1.575   2.584  -1.528  0.00  0.00    +0.025 A 
ATOM      6  C   UNL     1       2.735   1.864  -1.729  0.00  0.00    +0.026 A 
ENDROOT
BRANCH   4   7
ATOM      7  N   UNL     1      -0.725   2.690  -0.794  0.00  0.00    -0.301 N 
ATOM      8  C   UNL     1      -0.664   3.990  -0.315  0.00  0.00    +0.105 A 
ATOM      9  C   UNL     1       0.544   4.526   0.122  0.00  0.00    +0.085 A 
ATOM     10  C   UNL     1       0.552   5.835   0.593  0.00  0.00    +0.124 A 
ATOM     11  N   UNL     1      -0.588   6.524   0.608  0.00  0.00    -0.220 NA
ATOM     12  C   UNL     1      -1.712   5.981   0.185  0.00  0.00    +0.107 A 
ATOM     13  N   UNL     1      -1.760   4.746  -0.272  0.00  0.00    -0.332 N 
ATOM     14  C   UNL     1      -2.978   6.797   0.222  0.00  0.00    +0.086 C 
ATOM     15  H   UNL     1      -1.699   2.231  -1.018  0.00  0.00    +0.154 HD
ATOM     16  H   UNL     1      -2.721   4.342  -0.622  0.00  0.00    +0.168 HD
BRANCH  10  17
ATOM     17  N   UNL     1       1.730   6.415   1.039  0.00  0.00    -0.326 N 
ATOM     18  H   UNL     1       1.712   7.419   1.489  0.00  0.00    +0.148 HD
BRANCH  17  19
ATOM     19  C   UNL     1       2.997   5.691   0.912  0.00  0.00    +0.072 C 
ATOM     20  C   UNL     1       3.203   4.804   2.142  0.00  0.00    +0.022 C 
ATOM     21  C   UNL     1       4.526   4.048   2.009  0.00  0.00    +0.002 C 
ATOM     22  C   UNL     1       5.678   5.050   1.903  0.00  0.00    +0.000 C 
ATOM     23  C   UNL     1       5.471   5.936   0.673  0.00  0.00    +0.002 C 
ATOM     24  C   UNL     1       4.148   6.692   0.806  0.00  0.00    +0.022 C 
ENDBRANCH  17  19
ENDBRANCH  10  17
ENDBRANCH   4   7
BRANCH   1  25
ATOM     25  N   UNL     1       3.960  -0.213  -1.599  0.00  0.00    -0.216 N 
ATOM     26  H   UNL     1       4.823  -0.061  -0.935  0.00  0.00    +0.174 HD
BRANCH  25  27
ATOM     27  S   UNL     1       4.053  -1.304  -2.841  0.00  0.00    +0.072 S 
ATOM     28  O   UNL     1       5.388  -1.791  -2.855  0.00  0.00    -0.150 OA
ATOM     29  O   UNL     1       2.930  -2.165  -2.710  0.00  0.00    -0.150 OA
BRANCH  27  34
ATOM     30  C   UNL     1       3.284   1.766  -7.978  0.00  0.00    +0.044 C 
ATOM     31  C   UNL     1       3.477   0.999  -6.695  0.00  0.00    -0.050 A 
ATOM     32  C   UNL     1       4.731   0.916  -6.120  0.00  0.00    +0.005 A 
ATOM     33  C   UNL     1       4.907   0.212  -4.944  0.00  0.00    +0.029 A 
ATOM     34  C   UNL     1       3.829  -0.407  -4.341  0.00  0.00    +0.109 A 
ATOM     35  C   UNL     1       2.575  -0.329  -4.918  0.00  0.00    +0.029 A 
ATOM     36  C   UNL     1       2.398   0.379  -6.093  0.00  0.00    +0.005 A 
ENDBRANCH  27  34
ENDBRANCH  25  27
ENDBRANCH   1  25
TORSDOF 6
