REMARK  Name = ZINC64291414
REMARK  8 active torsions:
REMARK  status: ('A' for Active; 'I' for Inactive)
REMARK    1  A    between atoms: C_1  and  C_2
REMARK    2  A    between atoms: C_2  and  C_3
REMARK    3  A    between atoms: C_3  and  C_4
REMARK    4  A    between atoms: C_4  and  C_5
REMARK    5  A    between atoms: C_4  and  N_20
REMARK    6  A    between atoms: N_7  and  C_8
REMARK    7  A    between atoms: C_8  and  C_9
REMARK    8  A    between atoms: C_9  and  N_14
REMARK                            x       y       z     vdW  Elec       q    Type
REMARK                         _______ _______ _______ _____ _____    ______ ____
ROOT
ATOM      1  C   UNL     1      -3.068  -2.568  -0.104  0.00  0.00    +0.233 C 
ATOM      2  O   UNL     1      -3.620  -3.263  -0.931  0.00  0.00    -0.274 OA
ATOM      3  N   UNL     1      -3.696  -2.265   1.049  0.00  0.00    -0.315 N 
ATOM      4  H   UNL     1      -3.255  -1.710   1.710  0.00  0.00    +0.149 HD
ENDROOT
BRANCH   1   5
ATOM      5  C   UNL     1      -1.680  -2.043  -0.367  0.00  0.00    +0.160 C 
BRANCH   5   6
ATOM      6  N   UNL     1      -1.222  -2.509  -1.678  0.00  0.00    -0.288 N 
ATOM      7  C   UNL     1       0.098  -2.616  -1.931  0.00  0.00    +0.298 C 
ATOM      8  O   UNL     1       0.907  -2.326  -1.072  0.00  0.00    -0.253 OA
ATOM      9  N   UNL     1       0.520  -3.045  -3.137  0.00  0.00    -0.313 N 
ATOM     10  H   UNL     1      -1.867  -2.740  -2.363  0.00  0.00    +0.151 HD
ATOM     11  H   UNL     1      -0.126  -3.276  -3.823  0.00  0.00    +0.146 HD
ATOM     12  H   UNL     1       1.469  -3.122  -3.320  0.00  0.00    +0.146 HD
ENDBRANCH   5   6
BRANCH   5  13
ATOM     13  C   UNL     1      -1.701  -0.513  -0.347  0.00  0.00    +0.031 C 
BRANCH  13  15
ATOM     14  C   UNL     1      -0.295   1.548  -0.470  0.00  0.00    +0.004 C 
ATOM     15  C   UNL     1      -0.274   0.018  -0.489  0.00  0.00    -0.001 C 
ENDBRANCH  13  15
ENDBRANCH   5  13
ENDBRANCH   1   5
BRANCH   3  16
ATOM     16  C   UNL     1      -5.045  -2.776   1.304  0.00  0.00    +0.092 C 
BRANCH  16  17
ATOM     17  C   UNL     1      -5.524  -2.289   2.674  0.00  0.00    -0.050 C 
ATOM     18  C   UNL     1      -6.970  -2.764   2.927  0.00  0.00    -0.010 C 
ATOM     19  C   UNL     1      -6.804  -4.066   3.749  0.00  0.00    -0.001 C 
ATOM     20  C   UNL     1      -5.607  -3.735   4.675  0.00  0.00    -0.001 C 
ATOM     21  C   UNL     1      -4.658  -2.907   3.785  0.00  0.00    -0.010 C 
BRANCH  17  22
ATOM     22  N   UNL     1      -5.456  -0.823   2.739  0.00  0.00    +0.386 N 
ATOM     23  C   UNL     1      -5.889  -0.381   4.066  0.00  0.00    -0.067 C 
ATOM     24  C   UNL     1      -5.480   1.080   4.287  0.00  0.00    +0.050 C 
ATOM     25  S   UNL     1      -6.329   2.104   3.045  0.00  0.00    -0.164 S 
ATOM     26  C   UNL     1      -5.969   1.227   1.491  0.00  0.00    +0.050 C 
ATOM     27  C   UNL     1      -6.305  -0.256   1.688  0.00  0.00    -0.067 C 
ATOM     28  H   UNL     1      -4.503  -0.529   2.588  0.00  0.00    -0.081 HD
ENDBRANCH  17  22
ENDBRANCH  16  17
ENDBRANCH   3  16
TORSDOF 7
