REMARK  Name = ZINC00323322
REMARK  3 active torsions:
REMARK  status: ('A' for Active; 'I' for Inactive)
REMARK    1  A    between atoms: C_11  and  C_18
REMARK    2  A    between atoms: CA_13  and  C_16
REMARK    3  A    between atoms: C_22  and  O_24
REMARK                            x       y       z     vdW  Elec       q    Type
REMARK                         _______ _______ _______ _____ _____    ______ ____
ROOT
ATOM      1  C   UNL     1       1.413   7.909  -5.246  0.00  0.00    +0.001 A 
ATOM      2  C   UNL     1       0.547   6.959  -5.763  0.00  0.00    +0.002 A 
ATOM      3  C   UNL     1      -0.117   6.050  -4.958  0.00  0.00    +0.026 A 
ATOM      4  C   UNL     1       0.122   6.127  -3.588  0.00  0.00    +0.047 A 
ATOM      5  C   UNL     1       1.010   7.103  -3.063  0.00  0.00    +0.003 A 
ATOM      6  C   UNL     1       1.667   8.009  -3.901  0.00  0.00    +0.010 A 
ATOM      7  C   UNL     1       1.021   6.900  -1.631  0.00  0.00    -0.021 A 
ATOM      8  C   UNL     1       0.188   5.868  -1.367  0.00  0.00    +0.010 A 
ATOM      9  N   UNL     1      -0.355   5.402  -2.534  0.00  0.00    -0.359 N 
ATOM     10  H   UNL     1      -0.984   4.666  -2.602  0.00  0.00    +0.166 HD
ATOM     11  C   UNL     1      -0.065   5.351   0.029  0.00  0.00    +0.008 C 
ATOM     12  CA  UNL     1       1.153   7.309   0.793  0.00  0.00    +0.049 C 
ATOM     13  C   UNL     1       1.783   7.647  -0.566  0.00  0.00    +0.033 C 
ATOM     14  N   UNL     1       1.007   5.845   0.920  0.00  0.00    +0.396 N 
ATOM     15  H1  UNL     1       1.893   5.393   0.665  0.00  0.00    -0.083 HD
ATOM     16  H2  UNL     1       0.772   5.612   1.893  0.00  0.00    -0.083 HD
ENDROOT
BRANCH  11  17
ATOM     17  C   UNL     1      -0.049   3.844   0.022  0.00  0.00    -0.052 A 
ATOM     18  C   UNL     1       1.156   3.166   0.007  0.00  0.00    +0.002 A 
ATOM     19  C   UNL     1       1.174   1.783   0.000  0.00  0.00    +0.004 A 
ATOM     20  C   UNL     1      -0.013   1.076   0.008  0.00  0.00    +0.045 A 
ATOM     21  C   UNL     1      -1.223   1.754   0.017  0.00  0.00    +0.117 A 
ATOM     22  C   UNL     1      -1.238   3.141   0.030  0.00  0.00    +0.047 A 
BRANCH  21  23
ATOM     23  O   UNL     1      -2.391   1.060   0.019  0.00  0.00    -0.507 OA
ATOM     24  H   UNL     1      -2.725   0.854   0.903  0.00  0.00    +0.292 HD
ENDBRANCH  21  23
ENDBRANCH  11  17
BRANCH  12  25
ATOM     25  C   UNL     1       2.045   7.813   1.899  0.00  0.00    +0.343 C 
ATOM     26  O   UNL     1       2.785   7.050   2.473  0.00  0.00    -0.248 OA
ATOM     27  OXT UNL     1       2.016   9.109   2.246  0.00  0.00    -0.248 OA
ENDBRANCH  12  25
TORSDOF 3
