REMARK  Name = ZINC58691165
REMARK  10 active torsions:
REMARK  status: ('A' for Active; 'I' for Inactive)
REMARK    1  A    between atoms: C_1  and  C_2
REMARK    2  A    between atoms: C_7  and  C_8
REMARK    3  A    between atoms: C_8  and  C_10
REMARK    4  A    between atoms: C_8  and  N_26
REMARK    5  A    between atoms: C_10  and  C_11
REMARK    6  A    between atoms: N_13  and  C_14
REMARK    7  A    between atoms: C_16  and  S_22
REMARK    8  A    between atoms: C_19  and  O_20
REMARK    9  A    between atoms: O_20  and  C_21
REMARK   10  A    between atoms: S_22  and  N_25
REMARK                            x       y       z     vdW  Elec       q    Type
REMARK                         _______ _______ _______ _____ _____    ______ ____
ROOT
ATOM      1  C   UNL     1       1.474   1.691   3.840  0.00  0.00    +0.219 C 
ATOM      2  O   UNL     1       0.428   1.964   4.391  0.00  0.00    -0.275 OA
ATOM      3  N   UNL     1       2.599   2.359   4.161  0.00  0.00    -0.282 N 
ATOM      4  H   UNL     1       3.418   2.194   3.668  0.00  0.00    +0.155 HD
ENDROOT
BRANCH   3   5
ATOM      5  C   UNL     1       2.587   3.291   5.207  0.00  0.00    +0.077 A 
ATOM      6  C   UNL     1       1.627   3.204   6.205  0.00  0.00    +0.055 A 
ATOM      7  C   UNL     1       1.617   4.124   7.236  0.00  0.00    +0.107 A 
ATOM      8  C   UNL     1       2.561   5.134   7.275  0.00  0.00    +0.032 A 
ATOM      9  C   UNL     1       3.521   5.227   6.284  0.00  0.00    +0.049 A 
ATOM     10  C   UNL     1       3.541   4.305   5.251  0.00  0.00    +0.141 A 
BRANCH   7  11
ATOM     11  S   UNL     1       0.397   4.012   8.502  0.00  0.00    +0.056 S 
ATOM     12  O   UNL     1       0.267   5.314   9.057  0.00  0.00    -0.153 OA
ATOM     13  O   UNL     1      -0.704   3.308   7.944  0.00  0.00    -0.153 OA
BRANCH  11  14
ATOM     14  N   UNL     1       1.019   3.048   9.697  0.00  0.00    -0.204 NA
ATOM     15  H   UNL     1       0.753   3.186  10.619  0.00  0.00    +0.144 HD
ATOM     16  H   UNL     1       1.649   2.345   9.474  0.00  0.00    +0.144 HD
ENDBRANCH  11  14
ENDBRANCH   7  11
BRANCH  10  17
ATOM     17  O   UNL     1       4.488   4.392   4.278  0.00  0.00    -0.493 OA
ATOM     18  C   UNL     1       5.434   5.457   4.388  0.00  0.00    +0.277 C 
ENDBRANCH  10  17
ENDBRANCH   3   5
BRANCH   1  19
ATOM     19  C   UNL     1       1.514   0.605   2.796  0.00  0.00    +0.123 C 
BRANCH  19  20
ATOM     20  C   UNL     1       0.114   0.012   2.623  0.00  0.00    +0.114 C 
BRANCH  20  27
ATOM     21  C   UNL     1      -2.374  -0.895   1.467  0.00  0.00    +0.044 C 
ATOM     22  C   UNL     1      -1.063  -1.421   0.942  0.00  0.00    -0.045 A 
ATOM     23  C   UNL     1      -1.050  -2.333  -0.097  0.00  0.00    +0.004 A 
ATOM     24  C   UNL     1       0.152  -2.815  -0.579  0.00  0.00    +0.000 A 
ATOM     25  C   UNL     1       1.342  -2.385  -0.022  0.00  0.00    +0.000 A 
ATOM     26  C   UNL     1       1.330  -1.472   1.015  0.00  0.00    +0.006 A 
ATOM     27  C   UNL     1       0.127  -0.987   1.495  0.00  0.00    -0.024 A 
ENDBRANCH  20  27
BRANCH  20  28
ATOM     28  N   UNL     1      -0.290  -0.656   3.862  0.00  0.00    -0.292 N 
ATOM     29  C   UNL     1       0.442  -1.680   4.345  0.00  0.00    +0.298 C 
ATOM     30  O   UNL     1       1.491  -1.982   3.811  0.00  0.00    -0.253 OA
ATOM     31  N   UNL     1       0.010  -2.369   5.420  0.00  0.00    -0.313 N 
ATOM     32  H   UNL     1      -1.084  -0.362   4.335  0.00  0.00    +0.151 HD
ATOM     33  H   UNL     1      -0.827  -2.127   5.847  0.00  0.00    +0.146 HD
ATOM     34  H   UNL     1       0.537  -3.105   5.768  0.00  0.00    +0.146 HD
ENDBRANCH  20  28
ENDBRANCH  19  20
ENDBRANCH   1  19
TORSDOF 8
