REMARK  Name = ZINC45684264
REMARK  11 active torsions:
REMARK  status: ('A' for Active; 'I' for Inactive)
REMARK    1  A    between atoms: C_1  and  C_2
REMARK    2  A    between atoms: C_2  and  N_3
REMARK    3  A    between atoms: N_3  and  C_4
REMARK    4  A    between atoms: N_3  and  C_6
REMARK    5  A    between atoms: C_4  and  C_5
REMARK    6  A    between atoms: C_6  and  C_7
REMARK    7  A    between atoms: C_7  and  C_9
REMARK    8  A    between atoms: C_7  and  N_10
REMARK    9  A    between atoms: N_10  and  S_11
REMARK   10  A    between atoms: S_11  and  C_14
REMARK   11  A    between atoms: C_15  and  N_22
REMARK                            x       y       z     vdW  Elec       q    Type
REMARK                         _______ _______ _______ _____ _____    ______ ____
ROOT
ATOM      1  S   UNL     1      -5.478   0.010  -1.834  0.00  0.00    +0.061 S 
ATOM      2  O   UNL     1      -6.058   0.930  -2.748  0.00  0.00    -0.153 OA
ATOM      3  O   UNL     1      -6.199  -1.093  -1.303  0.00  0.00    -0.153 OA
ENDROOT
BRANCH   1   4
ATOM      4  C   UNL     1      -4.916   0.955  -0.457  0.00  0.00    +0.140 A 
ATOM      5  C   UNL     1      -4.840   0.371   0.801  0.00  0.00    +0.053 A 
ATOM      6  C   UNL     1      -4.396   1.119   1.885  0.00  0.00    +0.040 A 
ATOM      7  C   UNL     1      -4.032   2.440   1.707  0.00  0.00    +0.021 A 
ATOM      8  C   UNL     1      -4.109   3.018   0.453  0.00  0.00    +0.032 A 
ATOM      9  C   UNL     1      -4.545   2.274  -0.629  0.00  0.00    +0.047 A 
ATOM     10 BR   UNL     1      -4.641   3.067  -2.343  0.00  0.00    -0.048 Br
ATOM     11 BR   UNL     1      -3.427   3.459   3.181  0.00  0.00    -0.050 Br
BRANCH   5  12
ATOM     12  N   UNL     1      -5.210  -0.964   0.978  0.00  0.00    -0.356 N 
ATOM     13  H   UNL     1      -5.159  -1.583   0.233  0.00  0.00    +0.142 HD
ATOM     14  H   UNL     1      -5.517  -1.272   1.845  0.00  0.00    +0.142 HD
ENDBRANCH   5  12
ENDBRANCH   1   4
BRANCH   1  15
ATOM     15  N   UNL     1      -4.138  -0.616  -2.579  0.00  0.00    -0.189 NA
ATOM     16  H   UNL     1      -3.915  -0.345  -3.483  0.00  0.00    +0.148 HD
BRANCH  15  17
ATOM     17  C   UNL     1      -3.289  -1.577  -1.871  0.00  0.00    +0.057 C 
ATOM     18  C   UNL     1      -3.736  -3.000  -2.214  0.00  0.00    +0.024 C 
BRANCH  17  19
ATOM     19  C   UNL     1      -1.833  -1.383  -2.299  0.00  0.00    -0.059 C 
BRANCH  19  20
ATOM     20  N   UNL     1      -1.424   0.002  -2.030  0.00  0.00    +0.380 N 
ATOM     21  H   UNL     1      -2.075   0.636  -2.468  0.00  0.00    -0.082 HD
BRANCH  20  23
ATOM     22  C   UNL     1      -1.107   1.710  -0.304  0.00  0.00    -0.017 C 
ATOM     23  C   UNL     1      -1.411   0.236  -0.580  0.00  0.00    -0.082 C 
ENDBRANCH  20  23
BRANCH  20  24
ATOM     24  C   UNL     1      -0.078   0.229  -2.575  0.00  0.00    -0.082 C 
ATOM     25  C   UNL     1      -0.113   0.084  -4.098  0.00  0.00    -0.017 C 
ENDBRANCH  20  24
ENDBRANCH  19  20
ENDBRANCH  17  19
ENDBRANCH  15  17
ENDBRANCH   1  15
TORSDOF 8
