REMARK  Name = ZINC09670672
REMARK  10 active torsions:
REMARK  status: ('A' for Active; 'I' for Inactive)
REMARK    1  A    between atoms: C_1  and  C_2
REMARK    2  A    between atoms: C_5  and  N_8
REMARK    3  A    between atoms: N_8  and  C_9
REMARK    4  A    between atoms: N_8  and  S_26
REMARK    5  A    between atoms: C_9  and  C_10
REMARK    6  A    between atoms: C_10  and  C_11
REMARK    7  A    between atoms: N_13  and  C_14
REMARK    8  A    between atoms: C_19  and  N_20
REMARK    9  A    between atoms: C_25  and  N_67
REMARK   10  A    between atoms: S_26  and  C_29
REMARK                            x       y       z     vdW  Elec       q    Type
REMARK                         _______ _______ _______ _____ _____    ______ ____
ROOT
ATOM      1  C   UNL     1       4.845   1.602  -0.323  0.00  0.00    +0.117 C 
ENDROOT
BRANCH   1   2
ATOM      2  C   UNL     1       3.605   2.450  -0.197  0.00  0.00    +0.219 C 
ATOM      3  O   UNL     1       3.699   3.658  -0.145  0.00  0.00    -0.275 OA
ATOM      4  N   UNL     1       2.392   1.866  -0.143  0.00  0.00    -0.284 N 
ATOM      5  H   UNL     1       2.320   0.899  -0.116  0.00  0.00    +0.155 HD
BRANCH   4   6
ATOM      6  C   UNL     1       1.234   2.655  -0.127  0.00  0.00    +0.055 A 
ATOM      7  C   UNL     1       1.241   3.887   0.510  0.00  0.00    +0.025 A 
ATOM      8  C   UNL     1       0.098   4.665   0.525  0.00  0.00    +0.002 A 
ATOM      9  C   UNL     1      -1.055   4.218  -0.095  0.00  0.00    +0.002 A 
ATOM     10  C   UNL     1      -1.070   2.994  -0.736  0.00  0.00    +0.025 A 
ATOM     11  C   UNL     1       0.071   2.205  -0.751  0.00  0.00    +0.051 A 
BRANCH  11  12
ATOM     12  N   UNL     1       0.057   0.963  -1.396  0.00  0.00    -0.332 N 
ATOM     13  C   UNL     1      -0.175   1.122  -2.838  0.00  0.00    +0.086 C 
ATOM     14  C   UNL     1      -0.104  -0.248  -3.517  0.00  0.00    -0.060 C 
ATOM     15  C   UNL     1      -0.876  -1.299  -1.478  0.00  0.00    -0.060 C 
ATOM     16  C   UNL     1      -0.947   0.071  -0.799  0.00  0.00    +0.086 C 
ATOM     17  C   UNL     1      -1.123  -2.444  -3.598  0.00  0.00    -0.096 C 
ATOM     18  N   UNL     1      -1.133  -1.128  -2.923  0.00  0.00    +0.380 N 
ATOM     19  H   UNL     1      -2.055  -0.695  -3.050  0.00  0.00    -0.082 HD
ENDBRANCH  11  12
ENDBRANCH   4   6
ENDBRANCH   1   2
BRANCH   1  20
ATOM     20  C   UNL     1       6.079   2.506  -0.363  0.00  0.00    +0.141 C 
BRANCH  20  21
ATOM     21  N   UNL     1       7.284   1.682  -0.485  0.00  0.00    -0.203 N 
BRANCH  21  26
ATOM     22  C   UNL     1       9.705  -0.504   4.153  0.00  0.00    +0.044 C 
ATOM     23  C   UNL     1       9.062   0.076   2.920  0.00  0.00    -0.050 A 
ATOM     24  C   UNL     1       8.939   1.448   2.787  0.00  0.00    +0.005 A 
ATOM     25  C   UNL     1       8.350   1.983   1.659  0.00  0.00    +0.025 A 
ATOM     26  C   UNL     1       7.880   1.143   0.657  0.00  0.00    +0.051 A 
ATOM     27  C   UNL     1       8.000  -0.234   0.796  0.00  0.00    +0.025 A 
ATOM     28  C   UNL     1       8.595  -0.762   1.925  0.00  0.00    +0.005 A 
ENDBRANCH  21  26
BRANCH  21  29
ATOM     29  S   UNL     1       7.938   1.389  -1.978  0.00  0.00    +0.075 S 
ATOM     30  O   UNL     1       8.582   0.124  -1.898  0.00  0.00    -0.150 OA
ATOM     31  O   UNL     1       6.920   1.666  -2.930  0.00  0.00    -0.150 OA
BRANCH  29  32
ATOM     32  C   UNL     1       9.207   2.584  -2.234  0.00  0.00    +0.109 A 
ATOM     33  C   UNL     1       8.907   3.792  -2.836  0.00  0.00    +0.029 A 
ATOM     34  C   UNL     1       9.901   4.733  -3.032  0.00  0.00    +0.002 A 
ATOM     35  C   UNL     1      11.197   4.460  -2.637  0.00  0.00    +0.000 A 
ATOM     36  C   UNL     1      11.498   3.250  -2.041  0.00  0.00    +0.002 A 
ATOM     37  C   UNL     1      10.503   2.312  -1.839  0.00  0.00    +0.029 A 
ENDBRANCH  29  32
ENDBRANCH  21  29
ENDBRANCH  20  21
ENDBRANCH   1  20
TORSDOF 8
