REMARK  Name = ZINC44713652
REMARK  10 active torsions:
REMARK  status: ('A' for Active; 'I' for Inactive)
REMARK    1  A    between atoms: C_1  and  C_2
REMARK    2  A    between atoms: C_3  and  C_9
REMARK    3  A    between atoms: C_4  and  C_8
REMARK    4  A    between atoms: C_9  and  C_11
REMARK    5  A    between atoms: C_9  and  N_12
REMARK    6  A    between atoms: C_13  and  C_15
REMARK    7  A    between atoms: C_26  and  C_28
REMARK    8  A    between atoms: C_33  and  O_34
REMARK    9  A    between atoms: O_34  and  C_35
REMARK   10  A    between atoms: C_35  and  C_37
REMARK                            x       y       z     vdW  Elec       q    Type
REMARK                         _______ _______ _______ _____ _____    ______ ____
ROOT
ATOM      1  C   UNL     1       2.210  -0.943  -5.299  0.00  0.00    +0.100 C 
ATOM      2  C   UNL     1       1.753  -2.383  -5.623  0.00  0.00    +0.121 C 
ATOM      3  N   UNL     1       1.339  -2.333  -7.045  0.00  0.00    -0.296 N 
ATOM      4  C   UNL     1       2.342  -1.452  -7.690  0.00  0.00    +0.115 C 
ATOM      5  C   UNL     1       2.599  -0.336  -6.658  0.00  0.00    -0.004 C 
ATOM      6  C   UNL     1       4.074   0.055  -6.659  0.00  0.00    -0.010 C 
ATOM      7  C   UNL     1       4.423   0.709  -7.999  0.00  0.00    -0.082 C 
ATOM      8  N   UNL     1       3.581   1.894  -8.201  0.00  0.00    +0.379 N 
ATOM      9  C   UNL     1       2.171   1.497  -8.292  0.00  0.00    -0.082 C 
ATOM     10  C   UNL     1       1.726   0.877  -6.964  0.00  0.00    -0.010 C 
ATOM     11  C   UNL     1       0.289  -2.950  -7.622  0.00  0.00    +0.250 C 
ATOM     12  O   UNL     1       0.134  -2.887  -8.826  0.00  0.00    -0.270 OA
ATOM     13  H   UNL     1       3.702   2.527  -7.424  0.00  0.00    -0.086 HD
ATOM     14  H   UNL     1       3.854   2.357  -9.055  0.00  0.00    -0.086 HD
ENDROOT
BRANCH  11  15
ATOM     15  C   UNL     1      -0.672  -3.701  -6.792  0.00  0.00    +0.079 A 
ATOM     16  C   UNL     1      -0.232  -4.401  -5.667  0.00  0.00    +0.017 A 
ATOM     17  C   UNL     1      -1.135  -5.101  -4.895  0.00  0.00    +0.001 A 
ATOM     18  C   UNL     1      -2.478  -5.113  -5.231  0.00  0.00    +0.004 A 
ATOM     19  C   UNL     1      -2.927  -4.425  -6.341  0.00  0.00    +0.047 A 
ATOM     20  C   UNL     1      -2.033  -3.712  -7.125  0.00  0.00    +0.144 A 
BRANCH  20  21
ATOM     21  O   UNL     1      -2.474  -3.031  -8.213  0.00  0.00    -0.425 OA
BRANCH  21  22
ATOM     22  C   UNL     1      -2.784  -1.733  -8.062  0.00  0.00    +0.309 C 
ATOM     23  O   UNL     1      -2.583  -1.183  -7.005  0.00  0.00    -0.251 OA
ATOM     24  C   UNL     1      -3.383  -0.963  -9.210  0.00  0.00    +0.136 C 
ENDBRANCH  21  22
ENDBRANCH  20  21
ENDBRANCH  11  15
BRANCH   1  26
ATOM     25  N   UNL     1       1.346   0.832  -3.808  0.00  0.00    -0.308 N 
ATOM     26  C   UNL     1       1.080  -0.161  -4.680  0.00  0.00    +0.219 C 
ATOM     27  O   UNL     1      -0.068  -0.425  -4.966  0.00  0.00    -0.275 OA
ATOM     28  H   UNL     1       2.265   1.043  -3.579  0.00  0.00    +0.149 HD
BRANCH  25  29
ATOM     29  C   UNL     1       0.248   1.592  -3.206  0.00  0.00    +0.104 C 
ATOM     30  C   UNL     1      -0.272   0.848  -1.974  0.00  0.00    +0.033 C 
BRANCH  29  33
ATOM     31  C   UNL     1      -1.212   4.312  -3.710  0.00  0.00    +0.065 C 
ATOM     32  C   UNL     1       0.113   4.131  -3.015  0.00  0.00    +0.038 A 
ATOM     33  C   UNL     1       0.745   2.955  -2.797  0.00  0.00    +0.015 A 
ATOM     34  C   UNL     1       1.941   3.227  -2.125  0.00  0.00    +0.065 A 
ATOM     35  N   UNL     1       2.024   4.520  -1.946  0.00  0.00    -0.179 NA
ATOM     36  N   UNL     1       0.884   5.113  -2.504  0.00  0.00    -0.281 N 
ATOM     37  H   UNL     1       0.684   6.062  -2.518  0.00  0.00    +0.189 HD
ATOM     38  C   UNL     1       2.958   2.207  -1.683  0.00  0.00    +0.068 C 
ENDBRANCH  29  33
ENDBRANCH  25  29
ENDBRANCH   1  26
TORSDOF 6
