REMARK  Name = ZINC39623588
REMARK  8 active torsions:
REMARK  status: ('A' for Active; 'I' for Inactive)
REMARK    1  A    between atoms: C_4  and  C_7
REMARK    2  A    between atoms: C_7  and  C_8
REMARK    3  A    between atoms: C_8  and  C_9
REMARK    4  A    between atoms: C_9  and  N_10
REMARK    5  A    between atoms: C_11  and  C_13
REMARK    6  A    between atoms: C_24  and  C_26
REMARK    7  A    between atoms: C_26  and  C_27
REMARK    8  A    between atoms: C_27  and  C_28
REMARK                            x       y       z     vdW  Elec       q    Type
REMARK                         _______ _______ _______ _____ _____    ______ ____
ROOT
ATOM      1  C   UNL     1       7.559  -2.856   4.402  0.00  0.00    +0.100 C 
ATOM      2  C   UNL     1       7.931  -1.525   5.094  0.00  0.00    +0.121 C 
ATOM      3  N   UNL     1       9.106  -1.855   5.935  0.00  0.00    -0.300 N 
ATOM      4  C   UNL     1       9.905  -2.787   5.103  0.00  0.00    +0.115 C 
ATOM      5  C   UNL     1       8.857  -3.681   4.410  0.00  0.00    -0.004 C 
ATOM      6  C   UNL     1       9.293  -3.993   2.982  0.00  0.00    -0.010 C 
ATOM      7  C   UNL     1      10.553  -4.863   3.016  0.00  0.00    -0.082 C 
ATOM      8  N   UNL     1      10.272  -6.106   3.745  0.00  0.00    +0.379 N 
ATOM      9  C   UNL     1       9.944  -5.802   5.144  0.00  0.00    -0.082 C 
ATOM     10  C   UNL     1       8.659  -4.971   5.199  0.00  0.00    -0.010 C 
ATOM     11  C   UNL     1       9.384  -1.410   7.176  0.00  0.00    +0.216 C 
ATOM     12  O   UNL     1      10.395  -1.775   7.739  0.00  0.00    -0.276 OA
ATOM     13  H   UNL     1       9.492  -6.579   3.314  0.00  0.00    -0.086 HD
ATOM     14  H   UNL     1      11.084  -6.703   3.714  0.00  0.00    -0.086 HD
ENDROOT
BRANCH   1  16
ATOM     15  N   UNL     1       6.229  -3.442   2.401  0.00  0.00    -0.315 N 
ATOM     16  C   UNL     1       7.106  -2.603   2.988  0.00  0.00    +0.218 C 
ATOM     17  O   UNL     1       7.530  -1.645   2.377  0.00  0.00    -0.275 OA
ATOM     18  H   UNL     1       5.890  -4.209   2.890  0.00  0.00    +0.149 HD
BRANCH  15  19
ATOM     19  C   UNL     1       5.789  -3.197   1.026  0.00  0.00    +0.104 C 
BRANCH  19  20
ATOM     20  C   UNL     1       4.803  -4.288   0.604  0.00  0.00    +0.023 C 
BRANCH  20  21
ATOM     21  C   UNL     1       4.342  -4.032  -0.833  0.00  0.00    +0.036 C 
BRANCH  21  25
ATOM     22  C   UNL     1       1.588  -7.077  -2.012  0.00  0.00    +0.000 A 
ATOM     23  C   UNL     1       1.125  -5.921  -1.411  0.00  0.00    +0.000 A 
ATOM     24  C   UNL     1       2.017  -4.936  -1.029  0.00  0.00    +0.003 A 
ATOM     25  C   UNL     1       3.371  -5.107  -1.248  0.00  0.00    -0.047 A 
ATOM     26  C   UNL     1       3.834  -6.263  -1.848  0.00  0.00    +0.003 A 
ATOM     27  C   UNL     1       2.943  -7.247  -2.232  0.00  0.00    +0.000 A 
ENDBRANCH  21  25
ENDBRANCH  20  21
ENDBRANCH  19  20
ENDBRANCH  15  19
ENDBRANCH   1  16
BRANCH  11  28
ATOM     28  C   UNL     1       8.440  -0.458   7.865  0.00  0.00    +0.100 C 
BRANCH  28  29
ATOM     29  C   UNL     1       8.987  -0.112   9.251  0.00  0.00    +0.044 C 
BRANCH  29  30
ATOM     30  C   UNL     1       8.043   0.840   9.940  0.00  0.00    -0.047 A 
ATOM     31  C   UNL     1       8.201   2.204   9.784  0.00  0.00    +0.003 A 
ATOM     32  C   UNL     1       7.335   3.077  10.416  0.00  0.00    +0.000 A 
ATOM     33  C   UNL     1       6.311   2.586  11.203  0.00  0.00    +0.000 A 
ATOM     34  C   UNL     1       6.151   1.221  11.357  0.00  0.00    +0.000 A 
ATOM     35  C   UNL     1       7.015   0.348  10.722  0.00  0.00    +0.003 A 
ENDBRANCH  29  30
ENDBRANCH  28  29
ENDBRANCH  11  28
TORSDOF 8
