REMARK  Name = ZINC17213269
REMARK  9 active torsions:
REMARK  status: ('A' for Active; 'I' for Inactive)
REMARK    1  A    between atoms: C_1  and  C_2
REMARK    2  A    between atoms: C_1  and  C_23
REMARK    3  A    between atoms: N_6  and  N_7
REMARK    4  A    between atoms: C_10  and  C_16
REMARK    5  A    between atoms: N_14  and  N_15
REMARK    6  A    between atoms: C_16  and  C_17
REMARK    7  A    between atoms: C_17  and  O_18
REMARK    8  A    between atoms: N_19  and  N_22
REMARK    9  A    between atoms: C_23  and  O_24
REMARK                            x       y       z     vdW  Elec       q    Type
REMARK                         _______ _______ _______ _____ _____    ______ ____
ROOT
ATOM      1  C   UNL     1       0.002  -0.004   0.002  0.00  0.00    +0.144 C 
ATOM      2  S   UNL     1       0.608  -0.671   1.607  0.00  0.00    -0.074 S 
ATOM      3  C   UNL     1      -0.874  -1.550   2.078  0.00  0.00    +0.199 C 
ATOM      4  N   UNL     1      -1.086  -2.256   3.159  0.00  0.00    -0.123 NA
ATOM      5  N   UNL     1      -1.746  -1.310   1.028  0.00  0.00    -0.182 N 
ATOM      6  C   UNL     1      -1.407  -0.574  -0.018  0.00  0.00    +0.248 C 
ATOM      7  O   UNL     1      -2.173  -0.365  -0.935  0.00  0.00    -0.273 OA
ENDROOT
BRANCH   4   8
ATOM      8  N   UNL     1      -0.074  -2.388   4.119  0.00  0.00    -0.123 NA
ATOM      9  C   UNL     1      -0.287  -3.093   5.201  0.00  0.00    +0.199 C 
ATOM     10  S   UNL     1      -1.766  -3.979   5.668  0.00  0.00    -0.074 S 
ATOM     11  C   UNL     1      -1.162  -4.642   7.275  0.00  0.00    +0.144 C 
ATOM     12  C   UNL     1       0.245  -4.066   7.297  0.00  0.00    +0.248 C 
ATOM     13  O   UNL     1       1.010  -4.271   8.216  0.00  0.00    -0.273 OA
ATOM     14  N   UNL     1       0.585  -3.334   6.250  0.00  0.00    -0.182 N 
BRANCH  14  15
ATOM     15  N   UNL     1       1.839  -2.793   6.204  0.00  0.00    -0.245 NA
ATOM     16  H   UNL     1       1.970  -2.257   5.359  0.00  0.00    +0.141 HD
ATOM     17  H   UNL     1       2.020  -2.231   7.021  0.00  0.00    +0.141 HD
ENDBRANCH  14  15
BRANCH  11  18
ATOM     18  C   UNL     1      -1.136  -6.172   7.268  0.00  0.00    +0.052 C 
BRANCH  18  19
ATOM     19  C   UNL     1      -2.567  -6.706   7.183  0.00  0.00    +0.157 C 
BRANCH  19  20
ATOM     20  O   UNL     1      -2.542  -8.135   7.176  0.00  0.00    -0.395 OA
ATOM     21  H   UNL     1      -3.417  -8.543   7.123  0.00  0.00    +0.209 HD
ENDBRANCH  19  20
ENDBRANCH  18  19
ENDBRANCH  11  18
ENDBRANCH   4   8
BRANCH   5  22
ATOM     22  N   UNL     1      -2.999  -1.852   1.074  0.00  0.00    -0.245 NA
ATOM     23  H   UNL     1      -3.130  -2.389   1.918  0.00  0.00    +0.141 HD
ATOM     24  H   UNL     1      -3.706  -1.138   0.986  0.00  0.00    +0.141 HD
ENDBRANCH   5  22
BRANCH   1  25
ATOM     25  C   UNL     1      -0.019   1.526   0.010  0.00  0.00    +0.052 C 
BRANCH  25  26
ATOM     26  C   UNL     1       1.417   2.055  -0.000  0.00  0.00    +0.157 C 
BRANCH  26  27
ATOM     27  O   UNL     1       1.397   3.484   0.007  0.00  0.00    -0.395 OA
ATOM     28  H   UNL     1       2.275   3.889   0.001  0.00  0.00    +0.209 HD
ENDBRANCH  26  27
ENDBRANCH  25  26
ENDBRANCH   1  25
TORSDOF 9
