REMARK  Name = ZINC38658526
REMARK  13 active torsions:
REMARK  status: ('A' for Active; 'I' for Inactive)
REMARK    1  A    between atoms: C_1  and  O_2
REMARK    2  A    between atoms: O_2  and  C_3
REMARK    3  A    between atoms: C_6  and  C_11
REMARK    4  A    between atoms: C_8  and  O_9
REMARK    5  A    between atoms: O_9  and  C_10
REMARK    6  A    between atoms: C_16  and  O_25
REMARK    7  A    between atoms: C_20  and  N_24
REMARK    8  A    between atoms: C_21  and  C_22
REMARK    9  A    between atoms: O_25  and  C_26
REMARK   10  A    between atoms: C_26  and  C_28
REMARK   11  A    between atoms: C_31  and  O_34
REMARK   12  A    between atoms: O_34  and  C_35
REMARK   13  A    between atoms: C_35  and  C_36
REMARK                            x       y       z     vdW  Elec       q    Type
REMARK                         _______ _______ _______ _____ _____    ______ ____
ROOT
ATOM      1  C   UNL     1      -5.005  -2.571   0.008  0.00  0.00    +0.098 C 
ATOM      2  C   UNL     1      -5.758  -2.195   1.256  0.00  0.00    +0.008 A 
ATOM      3  C   UNL     1      -5.468  -2.837   2.446  0.00  0.00    +0.012 A 
ATOM      4  C   UNL     1      -6.149  -2.505   3.600  0.00  0.00    +0.047 A 
ATOM      5  C   UNL     1      -7.130  -1.523   3.569  0.00  0.00    +0.135 A 
ATOM      6  C   UNL     1      -7.423  -0.878   2.378  0.00  0.00    +0.093 A 
ATOM      7  C   UNL     1      -6.737  -1.213   1.218  0.00  0.00    +0.138 A 
ATOM      8  O   UNL     1      -7.035  -0.573   0.061  0.00  0.00    -0.441 OA
ATOM      9  C   UNL     1      -6.689  -1.119  -1.116  0.00  0.00    +0.199 C 
ATOM     10  C   UNL     1      -5.733  -2.070  -1.207  0.00  0.00    +0.098 C 
ENDROOT
BRANCH   1  14
ATOM     11  C   UNL     1      -1.101  -0.829   0.135  0.00  0.00    +0.162 A 
ATOM     12  C   UNL     1      -2.226  -0.019   0.165  0.00  0.00    +0.050 A 
ATOM     13  C   UNL     1      -3.486  -0.586   0.124  0.00  0.00    +0.008 A 
ATOM     14  C   UNL     1      -3.628  -1.959   0.052  0.00  0.00    -0.031 A 
ATOM     15  C   UNL     1      -2.510  -2.772   0.022  0.00  0.00    +0.054 A 
ATOM     16  C   UNL     1      -1.244  -2.211   0.057  0.00  0.00    +0.162 A 
BRANCH  11  18
ATOM     17  C   UNL     1       0.210   1.152   0.254  0.00  0.00    +0.277 C 
ATOM     18  O   UNL     1       0.140  -0.273   0.175  0.00  0.00    -0.491 OA
ENDBRANCH  11  18
BRANCH  16  19
ATOM     19  O   UNL     1      -0.143  -3.009   0.021  0.00  0.00    -0.491 OA
ATOM     20  C   UNL     1      -0.366  -4.418  -0.058  0.00  0.00    +0.277 C 
ENDBRANCH  16  19
ENDBRANCH   1  14
BRANCH   9  21
ATOM     21  N   UNL     1      -7.323  -0.698  -2.258  0.00  0.00    -0.328 N 
ATOM     22  H   UNL     1      -8.011  -0.016  -2.208  0.00  0.00    +0.145 HD
ATOM     23  H   UNL     1      -7.084  -1.083  -3.116  0.00  0.00    +0.145 HD
ENDBRANCH   9  21
BRANCH  10  24
ATOM     24  C   UNL     1      -5.410  -2.611  -2.493  0.00  0.00    +0.101 C 
ATOM     25  N   UNL     1      -5.153  -3.041  -3.512  0.00  0.00    -0.191 NA
ENDBRANCH  10  24
BRANCH   5  26
ATOM     26  O   UNL     1      -7.801  -1.195   4.704  0.00  0.00    -0.422 OA
BRANCH  26  27
ATOM     27  C   UNL     1      -9.104  -1.530   4.788  0.00  0.00    +0.344 C 
ATOM     28  O   UNL     1      -9.616  -2.200   3.913  0.00  0.00    -0.245 OA
BRANCH  27  29
ATOM     29  C   UNL     1      -9.906  -1.086   5.942  0.00  0.00    +0.060 A 
ATOM     30  C   UNL     1      -9.320  -0.311   6.947  0.00  0.00    +0.018 A 
ATOM     31  C   UNL     1     -10.073   0.102   8.023  0.00  0.00    +0.046 A 
ATOM     32  C   UNL     1     -11.415  -0.249   8.111  0.00  0.00    +0.121 A 
ATOM     33  C   UNL     1     -12.002  -1.020   7.114  0.00  0.00    +0.046 A 
ATOM     34  C   UNL     1     -11.258  -1.433   6.032  0.00  0.00    +0.018 A 
BRANCH  32  35
ATOM     35  O   UNL     1     -12.154   0.160   9.173  0.00  0.00    -0.488 OA
BRANCH  35  36
ATOM     36  C   UNL     1     -13.527  -0.237   9.200  0.00  0.00    +0.256 C 
BRANCH  36  37
ATOM     37  C   UNL     1     -14.182   0.306  10.444  0.00  0.00    +0.006 C 
ATOM     38  C   UNL     1     -15.362   0.871  10.369  0.00  0.00    +0.007 C 
ENDBRANCH  36  37
ENDBRANCH  35  36
ENDBRANCH  32  35
ENDBRANCH  27  29
ENDBRANCH  26  27
ENDBRANCH   5  26
TORSDOF 11
