REMARK  Name = ZINC36641360
REMARK  10 active torsions:
REMARK  status: ('A' for Active; 'I' for Inactive)
REMARK    1  A    between atoms: C_1  and  C_2
REMARK    2  A    between atoms: C_2  and  N_3
REMARK    3  A    between atoms: N_3  and  C_4
REMARK    4  A    between atoms: N_3  and  C_6
REMARK    5  A    between atoms: C_4  and  C_5
REMARK    6  A    between atoms: C_6  and  C_7
REMARK    7  A    between atoms: C_7  and  N_8
REMARK    8  A    between atoms: C_12  and  C_19
REMARK    9  A    between atoms: C_20  and  C_22
REMARK   10  A    between atoms: N_27  and  C_29
REMARK                            x       y       z     vdW  Elec       q    Type
REMARK                         _______ _______ _______ _____ _____    ______ ____
ROOT
ATOM      1  N   UNL     1       1.196  -4.253  -2.466  0.00  0.00    -0.252 N 
ATOM      2  C   UNL     1       0.313  -5.056  -3.170  0.00  0.00    +0.168 A 
ATOM      3  N   UNL     1       0.492  -6.275  -3.623  0.00  0.00    -0.224 NA
ATOM      4  C   UNL     1      -0.466  -6.945  -4.301  0.00  0.00    +0.085 A 
ATOM      5  C   UNL     1      -0.403  -8.251  -4.839  0.00  0.00    -0.006 A 
ATOM      6  C   UNL     1      -1.475  -8.787  -5.505  0.00  0.00    +0.046 A 
ATOM      7  C   UNL     1      -2.653  -8.072  -5.676  0.00  0.00    +0.021 A 
ATOM      8  C   UNL     1      -2.749  -6.793  -5.161  0.00  0.00    +0.019 A 
ATOM      9  C   UNL     1      -1.681  -6.249  -4.493  0.00  0.00    +0.041 A 
ATOM     10  S   UNL     1      -1.360  -4.699  -3.685  0.00  0.00    -0.052 S 
ATOM     11 CL   UNL     1      -1.356 -10.394  -6.152  0.00  0.00    -0.083 Cl
ATOM     12  C   UNL     1       0.857  -9.063  -4.679  0.00  0.00    +0.047 C 
ATOM     13  C   UNL     1       2.430  -4.707  -2.169  0.00  0.00    +0.226 C 
ATOM     14  O   UNL     1       2.801  -5.779  -2.599  0.00  0.00    -0.275 OA
ENDROOT
BRANCH  13  15
ATOM     15  C   UNL     1       3.347  -3.884  -1.302  0.00  0.00    +0.102 C 
ATOM     16  C   UNL     1       4.125  -2.849  -2.148  0.00  0.00    +0.110 C 
ATOM     17  C   UNL     1       5.496  -2.804  -1.511  0.00  0.00    +0.221 C 
ATOM     18  O   UNL     1       6.317  -1.929  -1.688  0.00  0.00    -0.275 OA
ATOM     19  N   UNL     1       5.673  -3.877  -0.720  0.00  0.00    -0.271 N 
ATOM     20  C   UNL     1       4.492  -4.749  -0.731  0.00  0.00    +0.127 C 
BRANCH  19  21
ATOM     21  C   UNL     1       6.835  -4.129   0.021  0.00  0.00    +0.036 A 
ATOM     22  C   UNL     1       7.853  -3.186   0.060  0.00  0.00    +0.026 A 
ATOM     23  C   UNL     1       8.997  -3.437   0.791  0.00  0.00    +0.040 A 
ATOM     24  C   UNL     1       9.130  -4.628   1.484  0.00  0.00    +0.124 A 
ATOM     25  C   UNL     1       8.117  -5.571   1.445  0.00  0.00    +0.040 A 
ATOM     26  C   UNL     1       6.968  -5.321   0.721  0.00  0.00    +0.026 A 
ATOM     27  F   UNL     1      10.251  -4.872   2.197  0.00  0.00    -0.205 F 
ENDBRANCH  19  21
ENDBRANCH  13  15
BRANCH   1  28
ATOM     28  C   UNL     1       0.788  -2.911  -2.044  0.00  0.00    +0.097 C 
BRANCH  28  29
ATOM     29  C   UNL     1       0.195  -2.977  -0.636  0.00  0.00    -0.059 C 
BRANCH  29  30
ATOM     30  N   UNL     1      -0.101  -1.617  -0.165  0.00  0.00    +0.380 N 
ATOM     31  H   UNL     1       0.728  -1.047  -0.243  0.00  0.00    -0.082 HD
BRANCH  30  33
ATOM     32  C   UNL     1      -1.396   0.420  -0.575  0.00  0.00    -0.017 C 
ATOM     33  C   UNL     1      -1.174  -1.038  -0.983  0.00  0.00    -0.082 C 
ENDBRANCH  30  33
BRANCH  30  34
ATOM     34  C   UNL     1      -0.528  -1.668   1.240  0.00  0.00    -0.082 C 
ATOM     35  C   UNL     1       0.627  -2.172   2.107  0.00  0.00    -0.017 C 
ENDBRANCH  30  34
ENDBRANCH  29  30
ENDBRANCH  28  29
ENDBRANCH   1  28
TORSDOF 7
