REMARK  Name = ZINC61886955
REMARK  5 active torsions:
REMARK  status: ('A' for Active; 'I' for Inactive)
REMARK    1  A    between atoms: C_5  and  S_7
REMARK    2  A    between atoms: S_7  and  N_10
REMARK    3  A    between atoms: N_10  and  C_11
REMARK    4  A    between atoms: C_16  and  C_18
REMARK    5  A    between atoms: C_18  and  N_20
REMARK                            x       y       z     vdW  Elec       q    Type
REMARK                         _______ _______ _______ _____ _____    ______ ____
ROOT
ATOM      1  S   UNL     1       0.289  -2.107  -0.894  0.00  0.00    +0.061 S 
ATOM      2  O   UNL     1      -0.971  -2.531  -1.394  0.00  0.00    -0.153 OA
ATOM      3  O   UNL     1       0.579  -0.743  -0.618  0.00  0.00    -0.153 OA
ENDROOT
BRANCH   1   8
ATOM      4  C   UNL     1       1.181  -3.001   2.921  0.00  0.00    +0.004 A 
ATOM      5  C   UNL     1       1.014  -4.340   3.028  0.00  0.00    +0.031 A 
ATOM      6  C   UNL     1       0.601  -5.099   1.900  0.00  0.00    +0.102 A 
ATOM      7  C   UNL     1       0.366  -4.400   0.642  0.00  0.00    +0.126 A 
ATOM      8  C   UNL     1       0.561  -2.993   0.604  0.00  0.00    +0.133 A 
ATOM      9  C   UNL     1       0.956  -2.332   1.718  0.00  0.00    +0.031 A 
ATOM     10  N   UNL     1      -0.018  -5.211  -0.345  0.00  0.00    -0.189 NA
ATOM     11  S   UNL     1      -0.061  -6.686   0.296  0.00  0.00    +0.117 S 
ATOM     12  N   UNL     1       0.387  -6.413   1.817  0.00  0.00    -0.191 NA
ENDBRANCH   1   8
BRANCH   1  13
ATOM     13  N   UNL     1       1.427  -2.622  -1.981  0.00  0.00    -0.186 NA
ATOM     14  H   UNL     1       1.154  -3.102  -2.779  0.00  0.00    +0.148 HD
BRANCH  13  15
ATOM     15  C   UNL     1       2.847  -2.352  -1.739  0.00  0.00    +0.086 C 
ATOM     16  C   UNL     1       3.525  -3.597  -1.132  0.00  0.00    +0.021 C 
ATOM     17  C   UNL     1       4.149  -4.321  -2.350  0.00  0.00    +0.002 C 
ATOM     18  C   UNL     1       4.653  -3.147  -3.225  0.00  0.00    +0.011 C 
ATOM     19  C   UNL     1       3.563  -2.064  -3.070  0.00  0.00    +0.059 C 
BRANCH  19  20
ATOM     20  C   UNL     1       4.195  -0.697  -3.031  0.00  0.00    +0.051 C 
ATOM     21  S   UNL     1       4.606  -0.045  -1.630  0.00  0.00    -0.040 S 
BRANCH  20  22
ATOM     22  N   UNL     1       4.413  -0.023  -4.178  0.00  0.00    -0.355 N 
ATOM     23  H   UNL     1       4.164  -0.418  -5.028  0.00  0.00    +0.143 HD
ATOM     24  H   UNL     1       4.820   0.858  -4.153  0.00  0.00    +0.143 HD
ENDBRANCH  20  22
ENDBRANCH  19  20
ENDBRANCH  13  15
ENDBRANCH   1  13
TORSDOF 5
