REMARK  Name = ZINC63361861
REMARK  13 active torsions:
REMARK  status: ('A' for Active; 'I' for Inactive)
REMARK    1  A    between atoms: C_1  and  C_2
REMARK    2  A    between atoms: C_2  and  C_4
REMARK    3  A    between atoms: C_2  and  N_10
REMARK    4  A    between atoms: C_4  and  C_5
REMARK    5  A    between atoms: C_5  and  C_6
REMARK    6  A    between atoms: C_6  and  C_7
REMARK    7  A    between atoms: C_7  and  C_8
REMARK    8  A    between atoms: C_7  and  C_9
REMARK    9  A    between atoms: C_11  and  C_13
REMARK   10  A    between atoms: C_18  and  N_19
REMARK   11  A    between atoms: C_22  and  C_40
REMARK   12  A    between atoms: C_28  and  O_33
REMARK   13  A    between atoms: O_33  and  C_34
REMARK                            x       y       z     vdW  Elec       q    Type
REMARK                         _______ _______ _______ _____ _____    ______ ____
ROOT
ATOM      1  N   UNL     1       4.864  -0.846  -1.313  0.00  0.00    -0.192 N 
ATOM      2  C   UNL     1       5.190  -1.718  -0.336  0.00  0.00    +0.253 C 
ATOM      3  O   UNL     1       4.874  -2.886  -0.261  0.00  0.00    -0.272 OA
ATOM      4  C   UNL     1       6.032  -0.934   0.646  0.00  0.00    +0.137 C 
ATOM      5  C   UNL     1       5.386  -0.936   2.031  0.00  0.00    +0.139 C 
ATOM      6  C   UNL     1       4.900   0.479   2.307  0.00  0.00    -0.034 C 
ATOM      7  C   UNL     1       3.601   0.380   2.577  0.00  0.00    +0.003 A 
ATOM      8  C   UNL     1       2.605   1.384   2.979  0.00  0.00    +0.055 A 
ATOM      9  C   UNL     1       1.333   0.938   3.170  0.00  0.00    +0.121 A 
ATOM     10  C   UNL     1       0.936  -0.397   3.006  0.00  0.00    +0.047 A 
ATOM     11  C   UNL     1       1.773  -1.403   2.642  0.00  0.00    +0.029 A 
ATOM     12  C   UNL     1       3.179  -1.045   2.412  0.00  0.00    +0.043 A 
ATOM     13  N   UNL     1       4.203  -1.798   2.079  0.00  0.00    -0.375 N 
ATOM     14  C   UNL     1       5.778   1.701   2.196  0.00  0.00    +0.052 C 
ATOM     15  C   UNL     1       6.462   1.640   0.815  0.00  0.00    +0.115 C 
ATOM     16  N   UNL     1       5.970   0.446   0.122  0.00  0.00    -0.268 N 
ATOM     17  C   UNL     1       5.349   0.378  -1.064  0.00  0.00    +0.317 C 
ATOM     18  O   UNL     1       5.236   1.319  -1.825  0.00  0.00    -0.252 OA
ATOM     19  C   UNL     1       7.471  -1.453   0.684  0.00  0.00    +0.044 C 
ATOM     20  H   UNL     1       4.186  -2.750   1.892  0.00  0.00    +0.160 HD
ENDROOT
BRANCH   1  26
ATOM     21  C   UNL     1       2.722  -1.063  -2.429  0.00  0.00    +0.059 A 
ATOM     22  C   UNL     1       1.988  -1.394  -3.570  0.00  0.00    +0.015 A 
ATOM     23  C   UNL     1       2.639  -1.838  -4.701  0.00  0.00    +0.001 A 
ATOM     24  C   UNL     1       4.019  -1.957  -4.712  0.00  0.00    +0.002 A 
ATOM     25  C   UNL     1       4.757  -1.633  -3.591  0.00  0.00    +0.025 A 
ATOM     26  C   UNL     1       4.119  -1.179  -2.446  0.00  0.00    +0.058 A 
BRANCH  21  28
ATOM     27  N   UNL     1       0.688  -0.476  -1.203  0.00  0.00    -0.309 N 
ATOM     28  C   UNL     1       2.031  -0.587  -1.215  0.00  0.00    +0.246 C 
ATOM     29  O   UNL     1       2.674  -0.294  -0.225  0.00  0.00    -0.270 OA
ATOM     30  H   UNL     1       0.175  -0.710  -1.993  0.00  0.00    +0.149 HD
BRANCH  27  32
ATOM     31  C   UNL     1      -0.019   1.526   0.010  0.00  0.00    +0.028 C 
ATOM     32  C   UNL     1       0.002  -0.004   0.002  0.00  0.00    +0.070 C 
BRANCH  32  33
ATOM     33  C   UNL     1      -1.433  -0.534   0.013  0.00  0.00    +0.022 C 
BRANCH  33  34
ATOM     34  C   UNL     1      -1.413  -2.059   0.130  0.00  0.00    +0.002 C 
BRANCH  34  35
ATOM     35  C   UNL     1      -2.849  -2.589   0.141  0.00  0.00    +0.003 C 
BRANCH  35  36
ATOM     36  C   UNL     1      -2.829  -4.114   0.258  0.00  0.00    -0.017 C 
ATOM     37  C   UNL     1      -4.261  -4.634   0.395  0.00  0.00    +0.007 C 
ATOM     38  C   UNL     1      -2.186  -4.713  -0.994  0.00  0.00    +0.007 C 
ENDBRANCH  35  36
ENDBRANCH  34  35
ENDBRANCH  33  34
ENDBRANCH  32  33
ENDBRANCH  27  32
ENDBRANCH  21  28
ENDBRANCH   1  26
BRANCH   9  39
ATOM     39  O   UNL     1       0.389   1.843   3.543  0.00  0.00    -0.495 OA
ATOM     40  C   UNL     1      -0.939   1.352   3.738  0.00  0.00    +0.277 C 
ENDBRANCH   9  39
TORSDOF 8
