REMARK  Name = ZINC39920072
REMARK  11 active torsions:
REMARK  status: ('A' for Active; 'I' for Inactive)
REMARK    1  A    between atoms: C_1  and  C_2
REMARK    2  A    between atoms: C_7  and  O_8
REMARK    3  A    between atoms: O_8  and  C_9
REMARK    4  A    between atoms: C_9  and  C_10
REMARK    5  A    between atoms: C_10  and  C_11
REMARK    6  A    between atoms: C_11  and  C_12
REMARK    7  A    between atoms: N_14  and  N_15
REMARK    8  A    between atoms: C_16  and  C_27
REMARK    9  A    between atoms: C_30  and  N_33
REMARK   10  A    between atoms: N_33  and  C_34
REMARK   11  A    between atoms: N_33  and  C_35
REMARK                            x       y       z     vdW  Elec       q    Type
REMARK                         _______ _______ _______ _____ _____    ______ ____
ROOT
ATOM      1  N   UNL     1       0.089   0.497   9.630  0.00  0.00    -0.191 N 
ATOM      2  C   UNL     1       1.326   0.689  10.386  0.00  0.00    +0.212 C 
ATOM      3  N   UNL     1       1.362   2.035  10.971  0.00  0.00    -0.320 N 
ATOM      4  C   UNL     1       0.215   2.523  11.585  0.00  0.00    +0.041 A 
ATOM      5  C   UNL     1       0.272   3.426  12.633  0.00  0.00    +0.024 A 
ATOM      6  C   UNL     1      -0.899   3.877  13.211  0.00  0.00    +0.002 A 
ATOM      7  C   UNL     1      -2.129   3.433  12.750  0.00  0.00    +0.001 A 
ATOM      8  C   UNL     1      -2.203   2.535  11.706  0.00  0.00    +0.015 A 
ATOM      9  C   UNL     1      -1.031   2.074  11.113  0.00  0.00    +0.059 A 
ATOM     10  C   UNL     1      -1.052   1.125   9.986  0.00  0.00    +0.266 C 
ATOM     11  O   UNL     1      -2.086   0.906   9.385  0.00  0.00    -0.268 OA
ATOM     12  H   UNL     1       2.169   2.572  10.929  0.00  0.00    +0.148 HD
ENDROOT
BRANCH   2  13
ATOM     13  C   UNL     1       1.399  -0.333  11.492  0.00  0.00    -0.008 A 
ATOM     14  C   UNL     1       0.808  -1.572  11.325  0.00  0.00    +0.009 A 
ATOM     15  C   UNL     1       0.873  -2.511  12.336  0.00  0.00    +0.023 A 
ATOM     16  C   UNL     1       1.533  -2.209  13.521  0.00  0.00    +0.029 A 
ATOM     17  C   UNL     1       2.126  -0.964  13.684  0.00  0.00    +0.023 A 
ATOM     18  C   UNL     1       2.062  -0.032  12.667  0.00  0.00    +0.009 A 
BRANCH  16  19
ATOM     19  N   UNL     1       1.601  -3.156  14.545  0.00  0.00    -0.336 N 
ATOM     20  C   UNL     1       0.975  -4.470  14.371  0.00  0.00    +0.129 C 
ATOM     21  C   UNL     1       2.297  -2.837  15.794  0.00  0.00    +0.129 C 
ENDBRANCH  16  19
ENDBRANCH   2  13
BRANCH   1  24
ATOM     22  C   UNL     1       0.070   0.174   7.272  0.00  0.00    +0.229 C 
ATOM     23  O   UNL     1       0.053   1.377   7.121  0.00  0.00    -0.274 OA
ATOM     24  N   UNL     1       0.089  -0.349   8.514  0.00  0.00    -0.230 N 
ATOM     25  H   UNL     1       0.103  -1.311   8.635  0.00  0.00    +0.173 HD
BRANCH  22  26
ATOM     26  C   UNL     1       0.071  -0.736   6.071  0.00  0.00    +0.100 C 
BRANCH  26  27
ATOM     27  C   UNL     1       0.047   0.106   4.793  0.00  0.00    +0.050 C 
BRANCH  27  28
ATOM     28  C   UNL     1       0.048  -0.819   3.574  0.00  0.00    +0.229 C 
BRANCH  28  29
ATOM     29  O   UNL     1       0.025  -0.033   2.381  0.00  0.00    -0.492 OA
BRANCH  29  36
ATOM     30  C   UNL     1      -0.018   1.503   0.010  0.00  0.00    +0.047 C 
ATOM     31  C   UNL     1       0.002  -0.004   0.002  0.00  0.00    -0.007 A 
ATOM     32  C   UNL     1       0.006  -0.689  -1.198  0.00  0.00    +0.027 A 
ATOM     33  C   UNL     1       0.024  -2.072  -1.206  0.00  0.00    +0.041 A 
ATOM     34  C   UNL     1       0.040  -2.773  -0.013  0.00  0.00    +0.023 A 
ATOM     35  C   UNL     1       0.036  -2.092   1.189  0.00  0.00    +0.047 A 
ATOM     36  C   UNL     1       0.023  -0.704   1.199  0.00  0.00    +0.123 A 
ATOM     37 CL   UNL     1       0.028  -2.930  -2.715  0.00  0.00    -0.084 Cl
ENDBRANCH  29  36
ENDBRANCH  28  29
ENDBRANCH  27  28
ENDBRANCH  26  27
ENDBRANCH  22  26
ENDBRANCH   1  24
TORSDOF 8
