REMARK  Name = ZINC43465456
REMARK  11 active torsions:
REMARK  status: ('A' for Active; 'I' for Inactive)
REMARK    1  A    between atoms: C_3  and  O_37
REMARK    2  A    between atoms: C_4  and  O_36
REMARK    3  A    between atoms: C_6  and  C_7
REMARK    4  A    between atoms: C_14  and  O_19
REMARK    5  A    between atoms: C_15  and  O_18
REMARK    6  A    between atoms: O_19  and  C_20
REMARK    7  A    between atoms: C_22  and  O_35
REMARK    8  A    between atoms: C_24  and  O_34
REMARK    9  A    between atoms: C_26  and  O_33
REMARK   10  A    between atoms: C_28  and  C_31
REMARK   11  A    between atoms: C_31  and  O_32
REMARK                            x       y       z     vdW  Elec       q    Type
REMARK                         _______ _______ _______ _____ _____    ______ ____
ROOT
ATOM      1  C   UNL     1      -1.294  -0.774   0.010  0.00  0.00    +0.274 C 
ATOM      2  C   UNL     1      -1.868  -0.814   1.410  0.00  0.00    +0.211 C 
ATOM      3  O   UNL     1      -1.366  -1.292   2.405  0.00  0.00    -0.288 OA
ATOM      4  C   UNL     1      -3.171  -0.143   1.295  0.00  0.00    +0.067 A 
ATOM      5  C   UNL     1      -4.166   0.130   2.242  0.00  0.00    +0.019 A 
ATOM      6  C   UNL     1      -5.306   0.780   1.868  0.00  0.00    +0.050 A 
ATOM      7  C   UNL     1      -5.485   1.175   0.546  0.00  0.00    +0.169 A 
ATOM      8  C   UNL     1      -4.509   0.913  -0.406  0.00  0.00    +0.202 A 
ATOM      9  C   UNL     1      -3.339   0.250  -0.042  0.00  0.00    +0.177 A 
ATOM     10  O   UNL     1      -2.268  -0.107  -0.794  0.00  0.00    -0.472 OA
ENDROOT
BRANCH   1  16
ATOM     11  C   UNL     1      -0.017   1.378   0.010  0.00  0.00    +0.011 A 
ATOM     12  C   UNL     1       1.170   2.089   0.002  0.00  0.00    +0.049 A 
ATOM     13  C   UNL     1       2.380   1.415  -0.013  0.00  0.00    +0.158 A 
ATOM     14  C   UNL     1       2.399   0.024  -0.021  0.00  0.00    +0.159 A 
ATOM     15  C   UNL     1       1.207  -0.682  -0.013  0.00  0.00    +0.056 A 
ATOM     16  C   UNL     1       0.002  -0.004   0.002  0.00  0.00    +0.004 A 
BRANCH  14  17
ATOM     17  O   UNL     1       3.585  -0.642  -0.036  0.00  0.00    -0.503 OA
ATOM     18  H   UNL     1       3.937  -0.839   0.843  0.00  0.00    +0.292 HD
ENDBRANCH  14  17
BRANCH  13  19
ATOM     19  O   UNL     1       3.548   2.113  -0.021  0.00  0.00    -0.503 OA
ATOM     20  H   UNL     1       3.894   2.310   0.860  0.00  0.00    +0.292 HD
ENDBRANCH  13  19
ENDBRANCH   1  16
BRANCH   8  21
ATOM     21  O   UNL     1      -4.696   1.303  -1.697  0.00  0.00    -0.501 OA
ATOM     22  H   UNL     1      -4.366   2.191  -1.890  0.00  0.00    +0.292 HD
ENDBRANCH   8  21
BRANCH   7  23
ATOM     23  O   UNL     1      -6.623   1.821   0.184  0.00  0.00    -0.457 OA
BRANCH  23  24
ATOM     24  C   UNL     1      -7.588   2.060   1.210  0.00  0.00    +0.339 C 
ATOM     25  C   UNL     1      -8.890   2.564   0.580  0.00  0.00    +0.214 C 
ATOM     26  C   UNL     1      -9.898   2.875   1.690  0.00  0.00    +0.180 C 
ATOM     27  C   UNL     1      -9.284   3.897   2.651  0.00  0.00    +0.177 C 
ATOM     28  C   UNL     1      -7.968   3.342   3.201  0.00  0.00    +0.179 C 
ATOM     29  O   UNL     1      -7.087   3.045   2.116  0.00  0.00    -0.331 OA
BRANCH  27  30
ATOM     30  O   UNL     1     -10.188   4.141   3.731  0.00  0.00    -0.386 OA
ATOM     31  H   UNL     1     -11.046   4.491   3.453  0.00  0.00    +0.210 HD
ENDBRANCH  27  30
BRANCH  26  32
ATOM     32  O   UNL     1     -11.091   3.413   1.115  0.00  0.00    -0.386 OA
ATOM     33  H   UNL     1     -11.529   2.819   0.491  0.00  0.00    +0.210 HD
ENDBRANCH  26  32
BRANCH  25  34
ATOM     34  O   UNL     1      -9.423   1.558  -0.283  0.00  0.00    -0.383 OA
ATOM     35  H   UNL     1      -8.833   1.308  -1.008  0.00  0.00    +0.210 HD
ENDBRANCH  25  34
BRANCH  28  36
ATOM     36  C   UNL     1      -7.318   4.382   4.116  0.00  0.00    +0.190 C 
BRANCH  36  37
ATOM     37  O   UNL     1      -6.150   3.821   4.721  0.00  0.00    -0.392 OA
ATOM     38  H   UNL     1      -5.686   4.426   5.315  0.00  0.00    +0.210 HD
ENDBRANCH  36  37
ENDBRANCH  28  36
ENDBRANCH  23  24
ENDBRANCH   7  23
TORSDOF 11
