REMARK  Name = ZINC35427150
REMARK  8 active torsions:
REMARK  status: ('A' for Active; 'I' for Inactive)
REMARK    1  A    between atoms: C_1  and  C_2
REMARK    2  A    between atoms: C_2  and  O_3
REMARK    3  A    between atoms: O_3  and  C_4
REMARK    4  A    between atoms: C_9  and  N_10
REMARK    5  A    between atoms: C_25  and  C_27
REMARK    6  A    between atoms: C_30  and  O_33
REMARK    7  A    between atoms: O_33  and  C_34
REMARK    8  A    between atoms: N_36  and  C_39
REMARK                            x       y       z     vdW  Elec       q    Type
REMARK                         _______ _______ _______ _____ _____    ______ ____
ROOT
ATOM      1  N   UNL     1      -3.901  -1.601   0.033  0.00  0.00    -0.266 N 
ATOM      2  C   UNL     1      -5.141  -2.121  -0.062  0.00  0.00    +0.308 C 
ATOM      3  O   UNL     1      -5.295  -3.327  -0.073  0.00  0.00    -0.252 OA
ATOM      4  N   UNL     1      -6.209  -1.304  -0.146  0.00  0.00    -0.268 N 
ATOM      5  C   UNL     1      -6.062   0.163  -0.142  0.00  0.00    +0.148 C 
ATOM      6  C   UNL     1      -7.136   0.857   0.666  0.00  0.00    +0.004 A 
ATOM      7  C   UNL     1      -6.879   1.512   1.885  0.00  0.00    -0.034 A 
ATOM      8  C   UNL     1      -7.923   2.115   2.514  0.00  0.00    -0.021 A 
ATOM      9  S   UNL     1      -9.301   1.801   1.443  0.00  0.00    -0.077 S 
ATOM     10  C   UNL     1      -8.423   0.868   0.225  0.00  0.00    +0.090 A 
ATOM     11  N   UNL     1      -8.856   0.234  -0.932  0.00  0.00    -0.312 N 
ATOM     12  C   UNL     1      -9.659   0.652  -1.937  0.00  0.00    +0.092 A 
ATOM     13  C   UNL     1      -9.708  -0.327  -2.869  0.00  0.00    +0.020 A 
ATOM     14  C   UNL     1      -8.915  -1.397  -2.403  0.00  0.00    +0.025 A 
ATOM     15  C   UNL     1      -8.424  -1.043  -1.207  0.00  0.00    +0.049 A 
ATOM     16  C   UNL     1      -7.588  -1.837  -0.252  0.00  0.00    +0.155 C 
ATOM     17  C   UNL     1      -7.882   2.858   3.808  0.00  0.00    -0.036 C 
ATOM     18  N   UNL     1      -6.616   2.529   4.491  0.00  0.00    +0.381 N 
ATOM     19  C   UNL     1      -5.497   2.701   3.557  0.00  0.00    -0.074 C 
ATOM     20  C   UNL     1      -5.491   1.575   2.519  0.00  0.00    +0.018 C 
ATOM     21  C   UNL     1      -6.434   3.421   5.644  0.00  0.00    -0.096 C 
ATOM     22  H   UNL     1      -3.781  -0.641   0.103  0.00  0.00    +0.156 HD
ATOM     23  H   UNL     1      -6.645   1.571   4.809  0.00  0.00    -0.082 HD
ENDROOT
BRANCH   1  29
ATOM     24  C   UNL     1      -1.598  -2.039  -0.574  0.00  0.00    +0.142 A 
ATOM     25  C   UNL     1      -0.495  -2.878  -0.569  0.00  0.00    +0.047 A 
ATOM     26  C   UNL     1      -0.576  -4.121   0.031  0.00  0.00    +0.004 A 
ATOM     27  C   UNL     1      -1.754  -4.531   0.626  0.00  0.00    +0.002 A 
ATOM     28  C   UNL     1      -2.858  -3.699   0.625  0.00  0.00    +0.027 A 
ATOM     29  C   UNL     1      -2.784  -2.448   0.031  0.00  0.00    +0.077 A 
BRANCH  24  30
ATOM     30  O   UNL     1      -1.521  -0.816  -1.164  0.00  0.00    -0.490 OA
BRANCH  30  32
ATOM     31  C   UNL     1      -0.378   0.938  -2.372  0.00  0.00    +0.048 C 
ATOM     32  C   UNL     1      -0.273  -0.463  -1.764  0.00  0.00    +0.226 C 
ENDBRANCH  30  32
ENDBRANCH  24  30
ENDBRANCH   1  29
BRANCH  16  33
ATOM     33  C   UNL     1      -8.236  -1.798   1.108  0.00  0.00    -0.021 A 
ATOM     34  C   UNL     1      -9.606  -1.651   1.217  0.00  0.00    +0.009 A 
ATOM     35  C   UNL     1     -10.202  -1.615   2.463  0.00  0.00    +0.046 A 
ATOM     36  C   UNL     1      -9.424  -1.728   3.606  0.00  0.00    +0.120 A 
ATOM     37  C   UNL     1      -8.049  -1.877   3.494  0.00  0.00    +0.046 A 
ATOM     38  C   UNL     1      -7.458  -1.917   2.246  0.00  0.00    +0.009 A 
BRANCH  36  39
ATOM     39  O   UNL     1     -10.007  -1.693   4.833  0.00  0.00    -0.495 OA
ATOM     40  C   UNL     1      -9.144  -1.815   5.965  0.00  0.00    +0.277 C 
ENDBRANCH  36  39
ENDBRANCH  16  33
TORSDOF 5
