REMARK  Name = ZINC40801229
REMARK  5 active torsions:
REMARK  status: ('A' for Active; 'I' for Inactive)
REMARK    1  A    between atoms: C_1  and  N_2
REMARK    2  A    between atoms: C_3  and  C_5
REMARK    3  A    between atoms: C_9  and  N_10
REMARK    4  A    between atoms: C_11  and  C_13
REMARK    5  A    between atoms: C_13  and  C_14
REMARK                            x       y       z     vdW  Elec       q    Type
REMARK                         _______ _______ _______ _____ _____    ______ ____
ROOT
ATOM      1  N   UNL     1      -1.157  -2.379  -2.480  0.00  0.00    -0.279 N 
ATOM      2  C   UNL     1      -1.156  -3.228  -3.527  0.00  0.00    +0.222 C 
ATOM      3  O   UNL     1      -1.138  -4.425  -3.337  0.00  0.00    -0.275 OA
ATOM      4  H   UNL     1      -1.172  -1.421  -2.632  0.00  0.00    +0.155 HD
ENDROOT
BRANCH   1   9
ATOM      5  C   UNL     1      -1.136  -2.160   0.001  0.00  0.00    +0.069 A 
ATOM      6  C   UNL     1      -1.119  -2.923   1.237  0.00  0.00    -0.023 A 
ATOM      7  C   UNL     1      -1.102  -4.262   1.059  0.00  0.00    -0.004 A 
ATOM      8  S   UNL     1      -1.109  -4.481  -0.696  0.00  0.00    -0.077 S 
ATOM      9  C   UNL     1      -1.138  -2.875  -1.186  0.00  0.00    +0.084 A 
ATOM     10  C   UNL     1      -1.081  -5.311   2.127  0.00  0.00    +0.043 C 
ATOM     11  C   UNL     1      -0.702  -4.639   3.455  0.00  0.00    +0.005 C 
ATOM     12  C   UNL     1      -1.554  -3.380   3.635  0.00  0.00    +0.005 C 
ATOM     13  C   UNL     1      -1.121  -2.310   2.630  0.00  0.00    +0.037 C 
BRANCH   5  16
ATOM     14  C   UNL     1      -0.018   1.461   0.010  0.00  0.00    +0.128 C 
ATOM     15  N   UNL     1       0.002  -0.004   0.002  0.00  0.00    -0.314 N 
ATOM     16  C   UNL     1      -1.156  -0.694   0.009  0.00  0.00    +0.246 C 
ATOM     17  O   UNL     1      -2.218  -0.100   0.023  0.00  0.00    -0.270 OA
ATOM     18  H   UNL     1       0.849  -0.478  -0.009  0.00  0.00    +0.149 HD
ENDBRANCH   5  16
ENDBRANCH   1   9
BRANCH   2  19
ATOM     19  C   UNL     1      -1.177  -2.688  -4.934  0.00  0.00    +0.150 C 
BRANCH  19  20
ATOM     20  C   UNL     1      -1.171  -3.853  -5.927  0.00  0.00    +0.268 C 
ATOM     21  C   UNL     1      -1.319  -3.317  -7.329  0.00  0.00    +0.259 C 
ATOM     22  O   UNL     1      -2.418  -3.224  -7.833  0.00  0.00    -0.271 OA
ATOM     23  N   UNL     1      -0.222  -2.942  -8.021  0.00  0.00    -0.280 N 
ATOM     24  C   UNL     1       1.046  -3.174  -7.471  0.00  0.00    +0.076 A 
ATOM     25  C   UNL     1       2.175  -2.604  -8.037  0.00  0.00    +0.027 A 
ATOM     26  C   UNL     1       3.417  -2.833  -7.475  0.00  0.00    +0.002 A 
ATOM     27  C   UNL     1       3.535  -3.626  -6.349  0.00  0.00    +0.004 A 
ATOM     28  C   UNL     1       2.413  -4.202  -5.781  0.00  0.00    +0.047 A 
ATOM     29  C   UNL     1       1.167  -3.983  -6.343  0.00  0.00    +0.143 A 
ATOM     30  O   UNL     1       0.060  -4.569  -5.813  0.00  0.00    -0.477 OA
ATOM     31  H   UNL     1      -0.311  -2.517  -8.888  0.00  0.00    +0.155 HD
ENDBRANCH  19  20
ENDBRANCH   2  19
TORSDOF 4
