REMARK  Name = ZINC34750220
REMARK  8 active torsions:
REMARK  status: ('A' for Active; 'I' for Inactive)
REMARK    1  A    between atoms: C_1  and  C_2
REMARK    2  A    between atoms: C_2  and  N_3
REMARK    3  A    between atoms: C_16  and  S_18
REMARK    4  A    between atoms: S_18  and  C_19
REMARK    5  A    between atoms: C_19  and  C_20
REMARK    6  A    between atoms: N_22  and  C_23
REMARK    7  A    between atoms: C_31  and  C_33
REMARK    8  A    between atoms: C_31  and  C_34
REMARK                            x       y       z     vdW  Elec       q    Type
REMARK                         _______ _______ _______ _____ _____    ______ ____
ROOT
ATOM      1  N   UNL     1       1.152   0.425  -2.081  0.00  0.00    +0.382 N 
ATOM      2  C   UNL     1       1.739   0.271  -3.418  0.00  0.00    -0.060 C 
ATOM      3  C   UNL     1       1.841  -1.218  -3.762  0.00  0.00    +0.088 C 
ATOM      4  N   UNL     1       2.587  -1.895  -2.691  0.00  0.00    -0.318 N 
ATOM      5  C   UNL     1       2.166  -1.665  -1.300  0.00  0.00    +0.088 C 
ATOM      6  C   UNL     1       2.049  -0.154  -1.072  0.00  0.00    -0.060 C 
ATOM      7  C   UNL     1       3.655  -2.724  -2.982  0.00  0.00    +0.134 A 
ATOM      8  C   UNL     1       3.464  -4.131  -3.091  0.00  0.00    +0.051 A 
ATOM      9  C   UNL     1       2.234  -4.904  -2.932  0.00  0.00    -0.020 A 
ATOM     10  C   UNL     1       2.325  -6.242  -3.089  0.00  0.00    +0.021 A 
ATOM     11  S   UNL     1       4.029  -6.550  -3.453  0.00  0.00    -0.071 S 
ATOM     12  C   UNL     1       4.621  -4.878  -3.392  0.00  0.00    +0.115 A 
ATOM     13  N   UNL     1       5.795  -4.299  -3.558  0.00  0.00    -0.214 NA
ATOM     14  C   UNL     1       5.913  -2.983  -3.443  0.00  0.00    +0.191 A 
ATOM     15  N   UNL     1       4.862  -2.219  -3.167  0.00  0.00    -0.206 NA
ATOM     16  C   UNL     1       1.202  -7.226  -2.971  0.00  0.00    +0.203 C 
ATOM     17  O   UNL     1       0.090  -6.556  -2.356  0.00  0.00    -0.368 OA
ATOM     18  C   UNL     1      -0.211  -5.290  -2.948  0.00  0.00    +0.068 C 
ATOM     19  C   UNL     1       0.882  -4.274  -2.605  0.00  0.00    +0.071 C 
ATOM     20  C   UNL     1      -0.297  -5.449  -4.468  0.00  0.00    +0.041 C 
ATOM     21  C   UNL     1      -1.555  -4.788  -2.417  0.00  0.00    +0.041 C 
ATOM     22  H   UNL     1       0.263  -0.050  -2.050  0.00  0.00    -0.082 HD
ENDROOT
BRANCH   1  24
ATOM     23  C   UNL     1      -0.076   2.428  -2.770  0.00  0.00    -0.017 C 
ATOM     24  C   UNL     1       0.954   1.852  -1.796  0.00  0.00    -0.082 C 
ENDBRANCH   1  24
BRANCH  14  25
ATOM     25  S   UNL     1       7.492  -2.234  -3.668  0.00  0.00    -0.077 S 
BRANCH  25  26
ATOM     26  C   UNL     1       8.593  -3.630  -4.026  0.00  0.00    +0.173 C 
BRANCH  26  27
ATOM     27  C   UNL     1       9.995  -3.122  -4.242  0.00  0.00    +0.224 C 
ATOM     28  O   UNL     1      10.228  -1.934  -4.163  0.00  0.00    -0.275 OA
ATOM     29  N   UNL     1      10.990  -3.987  -4.524  0.00  0.00    -0.312 N 
ATOM     30  H   UNL     1      10.803  -4.936  -4.588  0.00  0.00    +0.149 HD
BRANCH  29  31
ATOM     31  C   UNL     1      12.352  -3.492  -4.735  0.00  0.00    +0.073 C 
ATOM     32  C   UNL     1      12.517  -3.056  -6.192  0.00  0.00    +0.022 C 
ATOM     33  C   UNL     1      13.941  -2.540  -6.412  0.00  0.00    +0.002 C 
ATOM     34  C   UNL     1      14.941  -3.653  -6.096  0.00  0.00    +0.000 C 
ATOM     35  C   UNL     1      14.777  -4.090  -4.639  0.00  0.00    +0.002 C 
ATOM     36  C   UNL     1      13.353  -4.606  -4.419  0.00  0.00    +0.022 C 
ENDBRANCH  29  31
ENDBRANCH  26  27
ENDBRANCH  25  26
ENDBRANCH  14  25
TORSDOF 5
