REMARK  Name = ZINC13959767
REMARK  6 active torsions:
REMARK  status: ('A' for Active; 'I' for Inactive)
REMARK    1  A    between atoms: C_4  and  N_7
REMARK    2  A    between atoms: C_10  and  C_12
REMARK    3  A    between atoms: C_12  and  C_13
REMARK    4  A    between atoms: C_19  and  C_27
REMARK    5  A    between atoms: C_21  and  C_25
REMARK    6  A    between atoms: C_22  and  N_24
REMARK                            x       y       z     vdW  Elec       q    Type
REMARK                         _______ _______ _______ _____ _____    ______ ____
ROOT
ATOM      1  N   UNL     1      -4.892   2.325   2.455  0.00  0.00    -0.199 N 
ATOM      2  C   UNL     1      -4.429   2.189   1.193  0.00  0.00    +0.230 A 
ATOM      3  C   UNL     1      -3.317   1.397   1.247  0.00  0.00    +0.056 A 
ATOM      4  C   UNL     1      -3.103   1.043   2.572  0.00  0.00    +0.148 A 
ATOM      5  N   UNL     1      -4.042   1.596   3.302  0.00  0.00    -0.162 NA
ATOM      6  C   UNL     1      -2.524   1.026   0.020  0.00  0.00    +0.103 C 
ATOM      7  C   UNL     1      -3.329   1.410  -1.196  0.00  0.00    +0.098 C 
ATOM      8  C   UNL     1      -4.428   2.194  -1.120  0.00  0.00    +0.200 C 
ATOM      9  O   UNL     1      -4.910   2.701   0.034  0.00  0.00    -0.423 OA
ENDROOT
BRANCH   1  13
ATOM     10  C   UNL     1      -8.240   4.516   3.625  0.00  0.00    +0.000 A 
ATOM     11  C   UNL     1      -7.920   3.341   4.281  0.00  0.00    +0.002 A 
ATOM     12  C   UNL     1      -6.812   2.613   3.896  0.00  0.00    +0.028 A 
ATOM     13  C   UNL     1      -6.018   3.062   2.848  0.00  0.00    +0.069 A 
ATOM     14  C   UNL     1      -6.338   4.244   2.195  0.00  0.00    +0.028 A 
ATOM     15  C   UNL     1      -7.451   4.966   2.582  0.00  0.00    +0.002 A 
ENDBRANCH   1  13
BRANCH   6  16
ATOM     16  C   UNL     1      -1.213   1.769   0.017  0.00  0.00    -0.016 A 
ATOM     17  C   UNL     1      -0.013   1.076   0.008  0.00  0.00    +0.007 A 
ATOM     18  C   UNL     1       1.169   1.802   0.001  0.00  0.00    +0.020 A 
ATOM     19  C   UNL     1       1.111   3.183   0.008  0.00  0.00    +0.111 A 
ATOM     20  N   UNL     1      -0.050   3.809   0.022  0.00  0.00    -0.263 NA
ATOM     21  C   UNL     1      -1.193   3.151   0.030  0.00  0.00    +0.115 A 
ENDBRANCH   6  16
BRANCH   4  22
ATOM     22  C   UNL     1      -1.983   0.174   3.084  0.00  0.00    +0.385 C 
ATOM     23  F   UNL     1      -2.062  -1.088   2.487  0.00  0.00    -0.189 F 
ATOM     24  F   UNL     1      -0.754   0.763   2.769  0.00  0.00    -0.189 F 
BRANCH  22  25
ATOM     25  C   UNL     1      -2.104   0.029   4.603  0.00  0.00    +0.460 C 
ATOM     26  F   UNL     1      -3.333  -0.560   4.918  0.00  0.00    -0.165 F 
ATOM     27  F   UNL     1      -1.065  -0.778   5.078  0.00  0.00    -0.165 F 
ATOM     28  F   UNL     1      -2.025   1.291   5.200  0.00  0.00    -0.165 F 
ENDBRANCH  22  25
ENDBRANCH   4  22
BRANCH   8  29
ATOM     29  N   UNL     1      -5.092   2.492  -2.284  0.00  0.00    -0.328 N 
ATOM     30  H   UNL     1      -5.883   3.053  -2.261  0.00  0.00    +0.145 HD
ATOM     31  H   UNL     1      -4.769   2.142  -3.129  0.00  0.00    +0.145 HD
ENDBRANCH   8  29
BRANCH   7  32
ATOM     32  C   UNL     1      -2.915   0.925  -2.478  0.00  0.00    +0.101 C 
ATOM     33  N   UNL     1      -2.586   0.541  -3.496  0.00  0.00    -0.191 NA
ENDBRANCH   7  32
TORSDOF 6
