REMARK  Name = ZINC12560650
REMARK  11 active torsions:
REMARK  status: ('A' for Active; 'I' for Inactive)
REMARK    1  A    between atoms: C_1  and  C_2
REMARK    2  A    between atoms: C_2  and  C_36
REMARK    3  A    between atoms: N_9  and  C_35
REMARK    4  A    between atoms: C_11  and  C_12
REMARK    5  A    between atoms: N_13  and  N_14
REMARK    6  A    between atoms: C_15  and  C_17
REMARK    7  A    between atoms: C_21  and  S_23
REMARK    8  A    between atoms: S_23  and  N_26
REMARK    9  A    between atoms: N_26  and  C_27
REMARK   10  A    between atoms: C_32  and  O_33
REMARK   11  A    between atoms: O_33  and  C_34
REMARK                            x       y       z     vdW  Elec       q    Type
REMARK                         _______ _______ _______ _____ _____    ______ ____
ROOT
ATOM      1  N   UNL     1       1.742   8.339  -0.238  0.00  0.00    -0.203 N 
ATOM      2  C   UNL     1       2.111   9.634  -0.282  0.00  0.00    +0.263 C 
ATOM      3  O   UNL     1       3.285   9.929  -0.392  0.00  0.00    -0.268 OA
ATOM      4  H   UNL     1       0.805   8.104  -0.151  0.00  0.00    +0.178 HD
ENDROOT
BRANCH   2   5
ATOM      5  C   UNL     1       1.087  10.697  -0.198  0.00  0.00    +0.040 A 
ATOM      6  C   UNL     1      -0.263  10.362  -0.072  0.00  0.00    +0.013 A 
ATOM      7  C   UNL     1      -1.213  11.359   0.006  0.00  0.00    +0.003 A 
ATOM      8  C   UNL     1      -0.831  12.688  -0.039  0.00  0.00    +0.029 A 
ATOM      9  C   UNL     1       0.505  13.027  -0.163  0.00  0.00    +0.109 A 
ATOM     10  C   UNL     1       1.466  12.040  -0.237  0.00  0.00    +0.042 A 
BRANCH   9  11
ATOM     11  S   UNL     1       0.980  14.723  -0.220  0.00  0.00    +0.072 S 
ATOM     12  O   UNL     1       2.233  14.771  -0.888  0.00  0.00    -0.150 OA
ATOM     13  O   UNL     1      -0.154  15.447  -0.676  0.00  0.00    -0.150 OA
BRANCH  11  14
ATOM     14  N   UNL     1       1.256  15.207   1.339  0.00  0.00    -0.213 N 
ATOM     15  H   UNL     1       0.731  15.926   1.724  0.00  0.00    +0.174 HD
BRANCH  14  16
ATOM     16  C   UNL     1       2.246  14.577   2.102  0.00  0.00    +0.090 A 
ATOM     17  C   UNL     1       3.419  14.145   1.500  0.00  0.00    +0.028 A 
ATOM     18  C   UNL     1       4.397  13.528   2.257  0.00  0.00    +0.002 A 
ATOM     19  C   UNL     1       4.206  13.331   3.612  0.00  0.00    +0.004 A 
ATOM     20  C   UNL     1       3.038  13.755   4.218  0.00  0.00    +0.047 A 
ATOM     21  C   UNL     1       2.055  14.379   3.468  0.00  0.00    +0.142 A 
BRANCH  21  22
ATOM     22  O   UNL     1       0.905  14.795   4.063  0.00  0.00    -0.493 OA
ATOM     23  C   UNL     1       0.778  14.558   5.466  0.00  0.00    +0.277 C 
ENDBRANCH  21  22
ENDBRANCH  14  16
ENDBRANCH  11  14
ENDBRANCH   9  11
ENDBRANCH   2   5
BRANCH   1  25
ATOM     24  C   UNL     1       2.356   6.079  -0.276  0.00  0.00    +0.132 C 
ATOM     25  N   UNL     1       2.712   7.331  -0.318  0.00  0.00    -0.188 NA
BRANCH  24  36
ATOM     26  C   UNL     1       4.654   2.484   0.956  0.00  0.00    +0.022 C 
ATOM     27  C   UNL     1       3.904   2.530  -0.377  0.00  0.00    +0.030 C 
ATOM     28  C   UNL     1       2.964   1.352  -0.496  0.00  0.00    -0.015 A 
ATOM     29  C   UNL     1       3.178  -0.009  -0.511  0.00  0.00    +0.006 A 
ATOM     30  C   UNL     1       2.107  -0.876  -0.635  0.00  0.00    +0.000 A 
ATOM     31  C   UNL     1       0.823  -0.372  -0.742  0.00  0.00    +0.002 A 
ATOM     32  C   UNL     1       0.605   0.989  -0.727  0.00  0.00    +0.024 A 
ATOM     33  C   UNL     1       1.680   1.869  -0.602  0.00  0.00    +0.038 A 
ATOM     34  N   UNL     1       1.710   3.262  -0.562  0.00  0.00    -0.306 N 
ATOM     35  C   UNL     1       2.994   3.739  -0.429  0.00  0.00    +0.022 C 
ATOM     36  C   UNL     1       3.368   5.028  -0.359  0.00  0.00    +0.041 C 
ATOM     37  C   UNL     1       0.521   4.113  -0.651  0.00  0.00    +0.135 C 
ATOM     38  C   UNL     1       4.889   2.549  -1.547  0.00  0.00    +0.022 C 
ENDBRANCH  24  36
ENDBRANCH   1  25
TORSDOF 7
