REMARK  Name = ZINC20533602
REMARK  9 active torsions:
REMARK  status: ('A' for Active; 'I' for Inactive)
REMARK    1  A    between atoms: C_1  and  N_2
REMARK    2  A    between atoms: C_6  and  N_25
REMARK    3  A    between atoms: C_10  and  C_11
REMARK    4  A    between atoms: C_11  and  C_12
REMARK    5  A    between atoms: C_12  and  N_13
REMARK    6  A    between atoms: C_26  and  C_28
REMARK    7  A    between atoms: C_28  and  O_29
REMARK    8  A    between atoms: O_29  and  C_30
REMARK    9  A    between atoms: C_33  and  N_36
REMARK                            x       y       z     vdW  Elec       q    Type
REMARK                         _______ _______ _______ _____ _____    ______ ____
ROOT
ATOM      1  C   UNL     1      -0.012   1.858   0.113  0.00  0.00    +0.150 C 
ATOM      2  N   UNL     1       0.140   0.403   0.041  0.00  0.00    -0.331 N 
ATOM      3  C   UNL     1       0.115  -0.367  -1.107  0.00  0.00    +0.069 A 
ATOM      4  C   UNL     1      -0.045  -0.082  -2.456  0.00  0.00    +0.030 A 
ATOM      5  C   UNL     1      -0.021  -1.101  -3.382  0.00  0.00    +0.025 A 
ATOM      6  C   UNL     1       0.161  -2.421  -2.972  0.00  0.00    +0.036 A 
ATOM      7  C   UNL     1       0.321  -2.721  -1.633  0.00  0.00    +0.053 A 
ATOM      8  C   UNL     1       0.300  -1.695  -0.686  0.00  0.00    +0.091 A 
ATOM      9  N   UNL     1       0.425  -1.667   0.666  0.00  0.00    -0.232 NA
ATOM     10  C   UNL     1       0.337  -0.440   1.089  0.00  0.00    +0.112 A 
ENDROOT
BRANCH   6  11
ATOM     11  N   UNL     1       0.182  -3.449  -3.924  0.00  0.00    -0.283 N 
ATOM     12  C   UNL     1       0.688  -3.220  -5.152  0.00  0.00    +0.255 C 
ATOM     13  O   UNL     1       1.208  -2.154  -5.405  0.00  0.00    -0.272 OA
ATOM     14  H   UNL     1      -0.166  -4.326  -3.699  0.00  0.00    +0.155 HD
BRANCH  12  15
ATOM     15  C   UNL     1       0.605  -4.288  -6.213  0.00  0.00    +0.324 C 
BRANCH  15  16
ATOM     16  O   UNL     1       1.204  -3.809  -7.418  0.00  0.00    -0.483 OA
BRANCH  16  17
ATOM     17  C   UNL     1       1.213  -4.656  -8.481  0.00  0.00    +0.121 A 
ATOM     18  C   UNL     1       0.652  -5.920  -8.367  0.00  0.00    +0.048 A 
ATOM     19  C   UNL     1       0.662  -6.779  -9.449  0.00  0.00    +0.036 A 
ATOM     20  C   UNL     1       1.231  -6.380 -10.645  0.00  0.00    +0.126 A 
ATOM     21  C   UNL     1       1.792  -5.122 -10.761  0.00  0.00    +0.036 A 
ATOM     22  C   UNL     1       1.779  -4.257  -9.683  0.00  0.00    +0.048 A 
BRANCH  20  23
ATOM     23  N   UNL     1       1.240  -7.302 -11.802  0.00  0.00    +0.056 N 
ATOM     24  O   UNL     1       0.750  -8.403 -11.702  0.00  0.00    -0.126 OA
ATOM     25  O   UNL     1       1.737  -6.955 -12.848  0.00  0.00    -0.126 OA
ENDBRANCH  20  23
ENDBRANCH  16  17
ENDBRANCH  15  16
ENDBRANCH  12  15
ENDBRANCH   6  11
BRANCH  10  26
ATOM     26  C   UNL     1       0.436  -0.015   2.532  0.00  0.00    +0.090 C 
BRANCH  26  27
ATOM     27  C   UNL     1      -0.958  -0.027   3.163  0.00  0.00    +0.092 C 
BRANCH  27  28
ATOM     28  N   UNL     1      -0.861   0.387   4.570  0.00  0.00    -0.299 NA
ATOM     29  C   UNL     1      -0.104  -0.595   5.357  0.00  0.00    +0.103 C 
ATOM     30  C   UNL     1       0.129  -0.043   6.768  0.00  0.00    +0.122 C 
ATOM     31  N   UNL     1      -1.170   0.343   7.339  0.00  0.00    -0.314 N 
ATOM     32  C   UNL     1      -2.047   1.218   6.545  0.00  0.00    +0.122 C 
ATOM     33  C   UNL     1      -2.194   0.617   5.143  0.00  0.00    +0.103 C 
ATOM     34  C   UNL     1      -1.560  -0.105   8.595  0.00  0.00    +0.099 A 
ATOM     35  C   UNL     1      -0.660  -0.820   9.381  0.00  0.00    +0.042 A 
ATOM     36  C   UNL     1      -1.061  -1.260  10.630  0.00  0.00    +0.005 A 
ATOM     37  C   UNL     1      -2.352  -0.971  11.052  0.00  0.00    +0.018 A 
ATOM     38  C   UNL     1      -3.191  -0.258  10.220  0.00  0.00    +0.084 A 
ATOM     39  N   UNL     1      -2.780   0.155   9.036  0.00  0.00    -0.350 N 
ATOM     40  H   UNL     1      -3.389   0.658   8.473  0.00  0.00    +0.166 HD
ENDBRANCH  27  28
ENDBRANCH  26  27
ENDBRANCH  10  26
TORSDOF 8
