REMARK  Name = ZINC27522359
REMARK  12 active torsions:
REMARK  status: ('A' for Active; 'I' for Inactive)
REMARK    1  A    between atoms: C_1  and  C_2
REMARK    2  A    between atoms: C_2  and  O_3
REMARK    3  A    between atoms: O_3  and  C_4
REMARK    4  A    between atoms: C_7  and  N_10
REMARK    5  A    between atoms: N_12  and  C_30
REMARK    6  A    between atoms: C_16  and  C_19
REMARK    7  A    between atoms: N_21  and  C_22
REMARK    8  A    between atoms: C_27  and  O_28
REMARK    9  A    between atoms: O_28  and  C_29
REMARK   10  A    between atoms: C_30  and  C_31
REMARK   11  A    between atoms: C_34  and  O_37
REMARK   12  A    between atoms: O_37  and  C_38
REMARK                            x       y       z     vdW  Elec       q    Type
REMARK                         _______ _______ _______ _____ _____    ______ ____
ROOT
ATOM      1  N   UNL     1      -4.017   7.431   2.591  0.00  0.00    -0.226 NA
ATOM      2  C   UNL     1      -2.979   7.613   1.811  0.00  0.00    +0.164 C 
ATOM      3  N   UNL     1      -3.006   8.562   0.808  0.00  0.00    -0.246 N 
ATOM      4  C   UNL     1      -2.162   8.587  -0.216  0.00  0.00    +0.223 C 
ATOM      5  O   UNL     1      -2.363   9.435  -1.059  0.00  0.00    -0.275 OA
ATOM      6  C   UNL     1      -0.994   7.688  -0.445  0.00  0.00    +0.120 C 
ATOM      7  C   UNL     1      -1.158   6.341   0.261  0.00  0.00    +0.149 C 
ATOM      8  S   UNL     1      -1.510   6.650   2.015  0.00  0.00    -0.077 S 
ENDROOT
BRANCH   1  12
ATOM      9  C   UNL     1      -3.882   4.568   5.582  0.00  0.00    +0.121 A 
ATOM     10  C   UNL     1      -4.393   5.830   5.854  0.00  0.00    +0.048 A 
ATOM     11  C   UNL     1      -4.439   6.786   4.862  0.00  0.00    +0.031 A 
ATOM     12  C   UNL     1      -3.972   6.484   3.581  0.00  0.00    +0.067 A 
ATOM     13  C   UNL     1      -3.464   5.212   3.311  0.00  0.00    +0.031 A 
ATOM     14  C   UNL     1      -3.417   4.263   4.311  0.00  0.00    +0.048 A 
BRANCH   9  15
ATOM     15  O   UNL     1      -3.839   3.628   6.564  0.00  0.00    -0.492 OA
BRANCH  15  17
ATOM     16  C   UNL     1      -3.334   1.433   7.439  0.00  0.00    +0.048 C 
ATOM     17  C   UNL     1      -3.301   2.351   6.215  0.00  0.00    +0.225 C 
ENDBRANCH  15  17
ENDBRANCH   9  15
ENDBRANCH   1  12
BRANCH   7  18
ATOM     18  C   UNL     1       0.113   5.543   0.132  0.00  0.00    +0.231 C 
ATOM     19  O   UNL     1       1.186   6.109   0.125  0.00  0.00    -0.274 OA
ATOM     20  N   UNL     1       0.059   4.201   0.023  0.00  0.00    -0.282 N 
ATOM     21  H   UNL     1      -0.914   3.695  -0.063  0.00  0.00    +0.155 HD
BRANCH  20  22
ATOM     22  C   UNL     1       1.241   3.449   0.020  0.00  0.00    +0.076 A 
ATOM     23  C   UNL     1       2.387   3.953   0.620  0.00  0.00    +0.027 A 
ATOM     24  C   UNL     1       3.552   3.210   0.615  0.00  0.00    +0.002 A 
ATOM     25  C   UNL     1       3.580   1.965   0.013  0.00  0.00    +0.004 A 
ATOM     26  C   UNL     1       2.441   1.455  -0.582  0.00  0.00    +0.047 A 
ATOM     27  C   UNL     1       1.270   2.195  -0.586  0.00  0.00    +0.141 A 
BRANCH  27  28
ATOM     28  O   UNL     1       0.150   1.697  -1.175  0.00  0.00    -0.493 OA
ATOM     29  C   UNL     1       0.254   0.405  -1.776  0.00  0.00    +0.277 C 
ENDBRANCH  27  28
ENDBRANCH  20  22
ENDBRANCH   7  18
BRANCH   3  30
ATOM     30  C   UNL     1      -4.029   9.608   0.880  0.00  0.00    +0.150 C 
BRANCH  30  31
ATOM     31  C   UNL     1      -3.493  10.784   1.654  0.00  0.00    -0.029 A 
ATOM     32  C   UNL     1      -3.670  10.847   3.024  0.00  0.00    +0.009 A 
ATOM     33  C   UNL     1      -3.175  11.921   3.737  0.00  0.00    +0.046 A 
ATOM     34  C   UNL     1      -2.509  12.943   3.077  0.00  0.00    +0.120 A 
ATOM     35  C   UNL     1      -2.337  12.880   1.701  0.00  0.00    +0.046 A 
ATOM     36  C   UNL     1      -2.830  11.801   0.993  0.00  0.00    +0.009 A 
BRANCH  34  37
ATOM     37  O   UNL     1      -2.025  14.003   3.775  0.00  0.00    -0.495 OA
ATOM     38  C   UNL     1      -2.238  14.001   5.188  0.00  0.00    +0.277 C 
ENDBRANCH  34  37
ENDBRANCH  30  31
ENDBRANCH   3  30
TORSDOF 9
