REMARK  Name = ZINC34852011
REMARK  15 active torsions:
REMARK  status: ('A' for Active; 'I' for Inactive)
REMARK    1  A    between atoms: C_1  and  C_2
REMARK    2  A    between atoms: C_2  and  O_3
REMARK    3  A    between atoms: O_3  and  C_4
REMARK    4  A    between atoms: C_4  and  C_6
REMARK    5  A    between atoms: C_10  and  N_11
REMARK    6  A    between atoms: C_12  and  C_14
REMARK    7  A    between atoms: C_14  and  C_16
REMARK    8  A    between atoms: C_14  and  N_17
REMARK    9  A    between atoms: N_17  and  C_18
REMARK   10  A    between atoms: N_17  and  C_19
REMARK   11  A    between atoms: C_19  and  C_20
REMARK   12  A    between atoms: N_22  and  C_23
REMARK   13  A    between atoms: C_26  and  O_29
REMARK   14  A    between atoms: O_29  and  C_30
REMARK   15  A    between atoms: C_32  and  C_36
REMARK                            x       y       z     vdW  Elec       q    Type
REMARK                         _______ _______ _______ _____ _____    ______ ____
ROOT
ATOM      1  N   UNL     1      -3.064  -3.245   2.507  0.00  0.00    -0.281 N 
ATOM      2  C   UNL     1      -3.898  -2.906   3.510  0.00  0.00    +0.204 C 
ATOM      3  O   UNL     1      -5.089  -2.812   3.303  0.00  0.00    -0.277 OA
ATOM      4  H   UNL     1      -2.111  -3.320   2.673  0.00  0.00    +0.155 HD
ENDROOT
BRANCH   1   9
ATOM      5  C   UNL     1      -2.867  -3.841   0.096  0.00  0.00    +0.091 A 
ATOM      6  C   UNL     1      -3.638  -4.044  -1.119  0.00  0.00    -0.021 A 
ATOM      7  C   UNL     1      -4.965  -3.848  -0.970  0.00  0.00    -0.004 A 
ATOM      8  S   UNL     1      -5.167  -3.410   0.732  0.00  0.00    -0.077 S 
ATOM      9  C   UNL     1      -3.568  -3.485   1.238  0.00  0.00    +0.086 A 
ATOM     10  C   UNL     1      -6.018  -3.977  -2.028  0.00  0.00    +0.046 C 
ATOM     11  C   UNL     1      -5.325  -3.998  -3.398  0.00  0.00    -0.009 C 
ATOM     12  C   UNL     1      -4.161  -4.992  -3.350  0.00  0.00    +0.008 C 
ATOM     13  C   UNL     1      -3.043  -4.443  -2.462  0.00  0.00    +0.037 C 
ATOM     14  C   UNL     1      -6.326  -4.428  -4.472  0.00  0.00    +0.008 C 
BRANCH   5  15
ATOM     15  C   UNL     1      -1.413  -4.011   0.114  0.00  0.00    +0.342 C 
ATOM     16  O   UNL     1      -0.931  -5.099   0.364  0.00  0.00    -0.245 OA
BRANCH  15  17
ATOM     17  O   UNL     1      -0.608  -2.961  -0.146  0.00  0.00    -0.461 OA
BRANCH  17  19
ATOM     18  C   UNL     1       1.546  -1.901  -0.429  0.00  0.00    +0.048 C 
ATOM     19  C   UNL     1       0.801  -3.199  -0.111  0.00  0.00    +0.229 C 
ENDBRANCH  17  19
ENDBRANCH  15  17
ENDBRANCH   5  15
ENDBRANCH   1   9
BRANCH   2  20
ATOM     20  C   UNL     1      -3.350  -2.644   4.890  0.00  0.00    +0.017 C 
ATOM     21  C   UNL     1      -2.946  -1.173   5.008  0.00  0.00    -0.004 C 
BRANCH  20  22
ATOM     22  N   UNL     1      -4.379  -2.951   5.892  0.00  0.00    +0.391 N 
ATOM     23  C   UNL     1      -4.722  -4.378   5.820  0.00  0.00    -0.094 C 
ATOM     24  H   UNL     1      -5.202  -2.398   5.709  0.00  0.00    -0.080 HD
BRANCH  22  25
ATOM     25  C   UNL     1      -3.866  -2.638   7.232  0.00  0.00    +0.020 C 
BRANCH  25  26
ATOM     26  C   UNL     1      -4.962  -2.836   8.248  0.00  0.00    +0.201 C 
ATOM     27  O   UNL     1      -6.061  -3.202   7.891  0.00  0.00    -0.278 OA
ATOM     28  N   UNL     1      -4.719  -2.606   9.554  0.00  0.00    -0.287 N 
ATOM     29  H   UNL     1      -3.824  -2.378   9.848  0.00  0.00    +0.155 HD
BRANCH  28  30
ATOM     30  C   UNL     1      -5.762  -2.694  10.486  0.00  0.00    +0.034 A 
ATOM     31  C   UNL     1      -5.808  -1.818  11.562  0.00  0.00    +0.027 A 
ATOM     32  C   UNL     1      -6.836  -1.906  12.480  0.00  0.00    +0.047 A 
ATOM     33  C   UNL     1      -7.822  -2.870  12.328  0.00  0.00    +0.120 A 
ATOM     34  C   UNL     1      -7.776  -3.746  11.253  0.00  0.00    +0.047 A 
ATOM     35  C   UNL     1      -6.752  -3.655  10.331  0.00  0.00    +0.027 A 
BRANCH  33  36
ATOM     36  O   UNL     1      -8.833  -2.956  13.232  0.00  0.00    -0.495 OA
ATOM     37  C   UNL     1      -9.814  -3.972  13.014  0.00  0.00    +0.277 C 
ENDBRANCH  33  36
ENDBRANCH  28  30
ENDBRANCH  25  26
ENDBRANCH  22  25
ENDBRANCH  20  22
ENDBRANCH   2  20
TORSDOF 10
