REMARK  Name = ZINC40631346
REMARK  4 active torsions:
REMARK  status: ('A' for Active; 'I' for Inactive)
REMARK    1  A    between atoms: C_1  and  O_2
REMARK    2  A    between atoms: O_2  and  C_3
REMARK    3  A    between atoms: C_6  and  C_10
REMARK    4  A    between atoms: N_12  and  C_13
REMARK                            x       y       z     vdW  Elec       q    Type
REMARK                         _______ _______ _______ _____ _____    ______ ____
ROOT
ATOM      1  C   UNL     1       1.849  -3.951  -0.847  0.00  0.00    +0.203 C 
ATOM      2  O   UNL     1       1.262  -4.375   0.127  0.00  0.00    -0.277 OA
ATOM      3  N   UNL     1       2.374  -4.810  -1.743  0.00  0.00    -0.285 N 
ATOM      4  H   UNL     1       2.779  -4.473  -2.558  0.00  0.00    +0.155 HD
ENDROOT
BRANCH   3   5
ATOM      5  C   UNL     1       2.335  -6.188  -1.498  0.00  0.00    +0.062 A 
ATOM      6  C   UNL     1       1.261  -6.945  -1.948  0.00  0.00    +0.041 A 
ATOM      7  C   UNL     1       1.226  -8.305  -1.706  0.00  0.00    +0.032 A 
ATOM      8  C   UNL     1       2.259  -8.913  -1.014  0.00  0.00    +0.020 A 
ATOM      9  C   UNL     1       3.330  -8.162  -0.565  0.00  0.00    +0.032 A 
ATOM     10  C   UNL     1       3.374  -6.802  -0.810  0.00  0.00    +0.041 A 
ATOM     11 BR   UNL     1       4.842  -5.778  -0.202  0.00  0.00    -0.048 Br
ATOM     12 BR   UNL     1       2.207 -10.774  -0.684  0.00  0.00    -0.050 Br
ATOM     13 BR   UNL     1      -0.152  -6.116  -2.892  0.00  0.00    -0.048 Br
ENDBRANCH   3   5
BRANCH   1  16
ATOM     14  C   UNL     1       3.137  -0.492  -0.301  0.00  0.00    +0.100 C 
ATOM     15  C   UNL     1       3.396  -1.990  -0.610  0.00  0.00    +0.023 C 
ATOM     16  C   UNL     1       1.990  -2.466  -1.055  0.00  0.00    +0.019 C 
ATOM     17  N   UNL     1       1.049  -1.730  -0.183  0.00  0.00    +0.388 N 
ATOM     18  C   UNL     1       1.710  -0.495   0.288  0.00  0.00    -0.050 C 
ATOM     19  H   UNL     1       0.220  -1.490  -0.705  0.00  0.00    -0.085 HD
ATOM     20  H   UNL     1       0.797  -2.305   0.606  0.00  0.00    -0.085 HD
BRANCH  14  22
ATOM     21  C   UNL     1       4.341   1.397   0.551  0.00  0.00    +0.194 C 
ATOM     22  O   UNL     1       4.078  -0.003   0.657  0.00  0.00    -0.382 OA
ENDBRANCH  14  22
ENDBRANCH   1  16
TORSDOF 3
