REMARK  Name = ZINC09348052
REMARK  4 active torsions:
REMARK  status: ('A' for Active; 'I' for Inactive)
REMARK    1  A    between atoms: C_11  and  C_15
REMARK    2  A    between atoms: C_16  and  O_30
REMARK    3  A    between atoms: C_18  and  O_29
REMARK    4  A    between atoms: N_19  and  C_22
REMARK                            x       y       z     vdW  Elec       q    Type
REMARK                         _______ _______ _______ _____ _____    ______ ____
ROOT
ATOM      1  C   UNL     1       4.890   4.351   0.929  0.00  0.00    +0.071 A 
ATOM      2  C   UNL     1       6.071   4.940   0.514  0.00  0.00    +0.224 A 
ATOM      3  N   UNL     1       6.962   5.354   1.421  0.00  0.00    -0.161 NA
ATOM      4  C   UNL     1       6.743   5.203   2.708  0.00  0.00    +0.306 A 
ATOM      5  N   UNL     1       5.601   4.625   3.170  0.00  0.00    -0.231 N 
ATOM      6  C   UNL     1       4.663   4.193   2.301  0.00  0.00    +0.267 A 
ATOM      7  O   UNL     1       3.635   3.673   2.706  0.00  0.00    -0.267 OA
ENDROOT
BRANCH   1  18
ATOM      8  C   UNL     1       2.601  -2.067   0.164  0.00  0.00    +0.001 A 
ATOM      9  C   UNL     1       3.982  -2.193   0.235  0.00  0.00    +0.002 A 
ATOM     10  C   UNL     1       4.790  -1.078   0.217  0.00  0.00    +0.026 A 
ATOM     11  C   UNL     1       4.221   0.188   0.127  0.00  0.00    +0.047 A 
ATOM     12  C   UNL     1       2.820   0.312   0.054  0.00  0.00    +0.003 A 
ATOM     13  C   UNL     1       2.021  -0.834   0.075  0.00  0.00    +0.010 A 
ATOM     14  C   UNL     1       2.553   1.742  -0.034  0.00  0.00    -0.022 A 
ATOM     15  C   UNL     1       3.741   2.378  -0.009  0.00  0.00    +0.011 A 
ATOM     16  N   UNL     1       4.748   1.462   0.087  0.00  0.00    -0.359 N 
ATOM     17  H   UNL     1       5.694   1.675   0.122  0.00  0.00    +0.166 HD
ATOM     18  C   UNL     1       3.870   3.882  -0.077  0.00  0.00    +0.018 C 
ATOM     19  C   UNL     1       1.494   3.890  -0.595  0.00  0.00    -0.076 C 
ATOM     20  C   UNL     1       1.226   2.450  -0.137  0.00  0.00    +0.018 C 
ATOM     21  N   UNL     1       2.557   4.485   0.242  0.00  0.00    +0.388 N 
ATOM     22  H   UNL     1       2.599   5.496   0.067  0.00  0.00    -0.084 HD
ATOM     23  H   UNL     1       2.341   4.318   1.232  0.00  0.00    -0.084 HD
ENDBRANCH   1  18
BRANCH   5  24
ATOM     24  C   UNL     1       5.399   4.479   4.549  0.00  0.00    +0.056 A 
ATOM     25  C   UNL     1       4.771   5.485   5.270  0.00  0.00    +0.026 A 
ATOM     26  C   UNL     1       4.569   5.337   6.628  0.00  0.00    +0.003 A 
ATOM     27  C   UNL     1       5.000   4.191   7.272  0.00  0.00    +0.020 A 
ATOM     28  C   UNL     1       5.631   3.189   6.557  0.00  0.00    +0.043 A 
ATOM     29  C   UNL     1       5.832   3.330   5.197  0.00  0.00    +0.046 A 
ATOM     30 CL   UNL     1       6.171   1.752   7.369  0.00  0.00    -0.083 Cl
ENDBRANCH   5  24
BRANCH   4  31
ATOM     31  O   UNL     1       7.671   5.630   3.590  0.00  0.00    -0.479 OA
ATOM     32  H   UNL     1       8.469   6.035   3.225  0.00  0.00    +0.295 HD
ENDBRANCH   4  31
BRANCH   2  33
ATOM     33  O   UNL     1       6.322   5.102  -0.806  0.00  0.00    -0.492 OA
ATOM     34  H   UNL     1       7.171   5.523  -0.997  0.00  0.00    +0.294 HD
ENDBRANCH   2  33
TORSDOF 4
