REMARK  Name = ZINC20916129
REMARK  7 active torsions:
REMARK  status: ('A' for Active; 'I' for Inactive)
REMARK    1  A    between atoms: C_9  and  O_30
REMARK    2  A    between atoms: C_10  and  C_11
REMARK    3  A    between atoms: N_12  and  N_13
REMARK    4  A    between atoms: C_17  and  S_20
REMARK    5  A    between atoms: N_18  and  N_19
REMARK    6  A    between atoms: S_20  and  C_21
REMARK    7  A    between atoms: C_21  and  C_22
REMARK                            x       y       z     vdW  Elec       q    Type
REMARK                         _______ _______ _______ _____ _____    ______ ____
ROOT
ATOM      1  N   UNL     1       0.812   0.513  -6.241  0.00  0.00    -0.204 N 
ATOM      2  C   UNL     1       0.730   0.570  -4.858  0.00  0.00    +0.254 A 
ATOM      3  N   UNL     1       1.557   0.003  -4.013  0.00  0.00    -0.109 NA
ATOM      4  N   UNL     1       1.127   0.307  -2.715  0.00  0.00    -0.119 NA
ATOM      5  C   UNL     1       0.045   1.043  -2.809  0.00  0.00    +0.210 A 
ATOM      6  N   UNL     1      -0.226   1.228  -4.135  0.00  0.00    -0.211 N 
ATOM      7  H   UNL     1       0.061   1.028  -6.858  0.00  0.00    +0.177 HD
ENDROOT
BRANCH   6   8
ATOM      8  N   UNL     1      -1.270   1.943  -4.649  0.00  0.00    -0.294 N 
ATOM      9  H   UNL     1      -1.985   2.435  -3.974  0.00  0.00    +0.163 HD
ATOM     10  H   UNL     1      -1.395   2.027  -5.739  0.00  0.00    +0.163 HD
ENDBRANCH   6   8
BRANCH   1  12
ATOM     11  C   UNL     1       1.926  -0.255  -8.150  0.00  0.00    +0.142 C 
ATOM     12  N   UNL     1       1.850  -0.202  -6.853  0.00  0.00    -0.187 NA
BRANCH  11  22
ATOM     13  C   UNL     1       3.352  -1.261 -13.002  0.00  0.00    +0.001 A 
ATOM     14  C   UNL     1       2.306  -0.541 -12.431  0.00  0.00    +0.001 A 
ATOM     15  C   UNL     1       2.179  -0.446 -11.077  0.00  0.00    +0.009 A 
ATOM     16  C   UNL     1       3.113  -1.080 -10.248  0.00  0.00    -0.006 A 
ATOM     17  C   UNL     1       4.181  -1.809 -10.826  0.00  0.00    -0.017 A 
ATOM     18  C   UNL     1       4.283  -1.881 -12.226  0.00  0.00    +0.008 A 
ATOM     19  C   UNL     1       5.114  -2.449  -9.993  0.00  0.00    +0.012 A 
ATOM     20  C   UNL     1       5.006  -2.373  -8.639  0.00  0.00    +0.046 A 
ATOM     21  C   UNL     1       3.976  -1.663  -8.024  0.00  0.00    +0.126 A 
ATOM     22  C   UNL     1       3.016  -1.004  -8.792  0.00  0.00    +0.044 A 
BRANCH  21  23
ATOM     23  O   UNL     1       3.906  -1.614  -6.669  0.00  0.00    -0.506 OA
ATOM     24  H   UNL     1       3.095  -1.055  -6.180  0.00  0.00    +0.292 HD
ENDBRANCH  21  23
ENDBRANCH  11  22
ENDBRANCH   1  12
BRANCH   5  25
ATOM     25  S   UNL     1      -0.890   1.687  -1.462  0.00  0.00    -0.075 S 
BRANCH  25  26
ATOM     26  C   UNL     1      -0.013   1.086   0.008  0.00  0.00    +0.173 C 
BRANCH  26  27
ATOM     27  C   UNL     1      -0.718   1.572   1.248  0.00  0.00    +0.229 C 
ATOM     28  O   UNL     1      -1.715   2.256   1.150  0.00  0.00    -0.275 OA
ATOM     29  N   UNL     1      -0.242   1.246   2.466  0.00  0.00    -0.263 N 
ATOM     30  C   UNL     1      -0.892   1.694   3.610  0.00  0.00    +0.187 A 
ATOM     31  N   UNL     1      -1.978   2.440   3.724  0.00  0.00    -0.126 NA
ATOM     32  N   UNL     1      -2.449   2.765   4.849  0.00  0.00    -0.148 NA
ATOM     33  C   UNL     1      -1.866   2.366   5.962  0.00  0.00    +0.183 A 
ATOM     34  S   UNL     1      -0.506   1.422   5.284  0.00  0.00    -0.039 S 
ATOM     35  H   UNL     1       0.662   0.625   2.555  0.00  0.00    +0.157 HD
ENDBRANCH  26  27
ENDBRANCH  25  26
ENDBRANCH   5  25
TORSDOF 7
