REMARK  Name = ZINC16633236
REMARK  9 active torsions:
REMARK  status: ('A' for Active; 'I' for Inactive)
REMARK    1  A    between atoms: C_1  and  N_55
REMARK    2  A    between atoms: C_2  and  C_3
REMARK    3  A    between atoms: C_2  and  N_55
REMARK    4  A    between atoms: C_3  and  C_4
REMARK    5  A    between atoms: N_6  and  C_7
REMARK    6  A    between atoms: C_8  and  C_17
REMARK    7  A    between atoms: C_19  and  C_20
REMARK    8  A    between atoms: C_19  and  N_55
REMARK    9  A    between atoms: N_22  and  C_23
REMARK                            x       y       z     vdW  Elec       q    Type
REMARK                         _______ _______ _______ _____ _____    ______ ____
ROOT
ATOM      1  C   UNL     1      -0.031   1.052   0.012  0.00  0.00    +0.077 C 
ENDROOT
BRANCH   1   2
ATOM      2  C   UNL     1      -0.741   1.528   1.253  0.00  0.00    +0.216 C 
ATOM      3  O   UNL     1      -1.740   2.209   1.156  0.00  0.00    -0.276 OA
ATOM      4  N   UNL     1      -0.267   1.196   2.470  0.00  0.00    -0.279 N 
ATOM      5  H   UNL     1       0.532   0.652   2.547  0.00  0.00    +0.155 HD
BRANCH   4   6
ATOM      6  C   UNL     1      -0.922   1.635   3.613  0.00  0.00    +0.090 A 
ATOM      7  C   UNL     1      -0.595   1.396   4.938  0.00  0.00    +0.084 A 
ATOM      8  C   UNL     1      -1.448   1.980   5.963  0.00  0.00    -0.018 A 
ATOM      9  C   UNL     1      -2.496   2.692   5.494  0.00  0.00    -0.004 A 
ATOM     10  S   UNL     1      -2.350   2.606   3.729  0.00  0.00    -0.077 S 
ATOM     11  C   UNL     1      -3.558   3.388   6.286  0.00  0.00    +0.043 C 
ATOM     12  C   UNL     1      -2.898   4.235   7.382  0.00  0.00    +0.005 C 
ATOM     13  C   UNL     1      -2.739   3.371   8.630  0.00  0.00    +0.001 C 
ATOM     14  C   UNL     1      -2.482   1.919   8.234  0.00  0.00    +0.005 C 
ATOM     15  C   UNL     1      -1.178   1.802   7.452  0.00  0.00    +0.037 C 
BRANCH   7  16
ATOM     16  C   UNL     1       0.547   0.604   5.287  0.00  0.00    +0.102 C 
ATOM     17  N   UNL     1       1.452  -0.024   5.564  0.00  0.00    -0.191 NA
ENDBRANCH   7  16
ENDBRANCH   4   6
ENDBRANCH   1   2
BRANCH   1  18
ATOM     18  C   UNL     1      -0.769   1.564  -1.226  0.00  0.00    -0.069 C 
BRANCH  18  20
ATOM     19  C   UNL     1       1.255   1.710  -2.546  0.00  0.00    -0.096 C 
ATOM     20  N   UNL     1      -0.073   1.071  -2.434  0.00  0.00    +0.384 N 
ATOM     21  H   UNL     1       0.051   0.055  -2.356  0.00  0.00    -0.082 HD
BRANCH  20  22
ATOM     22  C   UNL     1      -0.879   1.367  -3.637  0.00  0.00    +0.018 C 
BRANCH  22  23
ATOM     23  C   UNL     1      -0.261   0.666  -4.820  0.00  0.00    +0.201 C 
ATOM     24  O   UNL     1       0.749   0.010  -4.676  0.00  0.00    -0.278 OA
ATOM     25  N   UNL     1      -0.830   0.770  -6.037  0.00  0.00    -0.286 N 
ATOM     26  H   UNL     1      -1.672   1.240  -6.141  0.00  0.00    +0.155 HD
BRANCH  25  27
ATOM     27  C   UNL     1      -0.206   0.199  -7.152  0.00  0.00    +0.047 A 
ATOM     28  C   UNL     1       0.501  -0.990  -7.021  0.00  0.00    +0.024 A 
ATOM     29  C   UNL     1       1.112  -1.553  -8.124  0.00  0.00    +0.002 A 
ATOM     30  C   UNL     1       1.029  -0.930  -9.357  0.00  0.00    +0.001 A 
ATOM     31  C   UNL     1       0.330   0.255  -9.490  0.00  0.00    +0.017 A 
ATOM     32  C   UNL     1      -0.287   0.822  -8.391  0.00  0.00    +0.039 A 
ATOM     33 BR   UNL     1      -1.242   2.444  -8.574  0.00  0.00    -0.048 Br
ENDBRANCH  25  27
ENDBRANCH  22  23
ENDBRANCH  20  22
ENDBRANCH  18  20
ENDBRANCH   1  18
TORSDOF 8
