REMARK  Name = ZINC28058680
REMARK  6 active torsions:
REMARK  status: ('A' for Active; 'I' for Inactive)
REMARK    1  A    between atoms: C_1  and  O_2
REMARK    2  A    between atoms: O_2  and  C_3
REMARK    3  A    between atoms: C_6  and  C_11
REMARK    4  A    between atoms: C_7  and  O_9
REMARK    5  A    between atoms: O_9  and  C_10
REMARK    6  A    between atoms: C_22  and  C_24
REMARK                            x       y       z     vdW  Elec       q    Type
REMARK                         _______ _______ _______ _____ _____    ______ ____
ROOT
ATOM      1  C   UNL     1      -2.516   0.795   0.010  0.00  0.00    +0.177 C 
ATOM      2  C   UNL     1      -2.563   0.011   1.299  0.00  0.00    +0.026 C 
ATOM      3  C   UNL     1      -2.391  -1.312   1.337  0.00  0.00    +0.050 C 
ATOM      4  C   UNL     1      -2.434  -1.992   2.653  0.00  0.00    +0.038 A 
ATOM      5  C   UNL     1      -2.596  -3.368   2.756  0.00  0.00    +0.013 A 
ATOM      6  C   UNL     1      -2.629  -3.958   4.004  0.00  0.00    +0.001 A 
ATOM      7  C   UNL     1      -2.501  -3.187   5.146  0.00  0.00    +0.004 A 
ATOM      8  C   UNL     1      -2.339  -1.816   5.053  0.00  0.00    +0.046 A 
ATOM      9  C   UNL     1      -2.305  -1.212   3.810  0.00  0.00    +0.131 A 
ATOM     10  O   UNL     1      -2.150   0.130   3.677  0.00  0.00    -0.479 OA
ATOM     11  C   UNL     1      -2.826   0.757   2.587  0.00  0.00    +0.234 C 
ATOM     12  N   UNL     1      -2.180  -2.072   0.180  0.00  0.00    -0.282 N 
ATOM     13  C   UNL     1      -2.416  -1.455  -1.038  0.00  0.00    +0.240 A 
ATOM     14  N   UNL     1      -2.580  -0.109  -1.129  0.00  0.00    -0.201 N 
ATOM     15  N   UNL     1      -2.803   0.147  -2.481  0.00  0.00    -0.042 NA
ATOM     16  N   UNL     1      -2.755  -0.996  -3.086  0.00  0.00    -0.021 NA
ATOM     17  N   UNL     1      -2.526  -1.942  -2.240  0.00  0.00    -0.092 NA
ATOM     18  H   UNL     1      -1.842  -3.115   0.261  0.00  0.00    +0.155 HD
ENDROOT
BRANCH  11  19
ATOM     19  C   UNL     1      -4.308   0.768   2.861  0.00  0.00    -0.002 A 
ATOM     20  C   UNL     1      -5.042   1.919   2.644  0.00  0.00    +0.007 A 
ATOM     21  C   UNL     1      -6.402   1.928   2.889  0.00  0.00    +0.001 A 
ATOM     22  C   UNL     1      -7.027   0.790   3.364  0.00  0.00    +0.015 A 
ATOM     23  C   UNL     1      -6.292  -0.360   3.587  0.00  0.00    +0.018 A 
ATOM     24  C   UNL     1      -4.931  -0.370   3.335  0.00  0.00    +0.022 A 
ATOM     25 BR   UNL     1      -7.145  -1.917   4.236  0.00  0.00    -0.050 Br
ENDBRANCH  11  19
BRANCH   1  29
ATOM     26  C   UNL     1       1.126   3.030  -0.163  0.00  0.00    +0.124 A 
ATOM     27  C   UNL     1       1.161   1.646  -0.071  0.00  0.00    +0.046 A 
ATOM     28  C   UNL     1      -0.017   0.927  -0.011  0.00  0.00    +0.013 A 
ATOM     29  C   UNL     1      -1.233   1.583  -0.049  0.00  0.00    +0.023 A 
ATOM     30  C   UNL     1      -1.273   2.967  -0.136  0.00  0.00    +0.129 A 
ATOM     31  C   UNL     1      -0.092   3.691  -0.196  0.00  0.00    +0.091 A 
BRANCH  26  33
ATOM     32  C   UNL     1       3.503   2.991  -0.184  0.00  0.00    +0.277 C 
ATOM     33  O   UNL     1       2.285   3.737  -0.222  0.00  0.00    -0.495 OA
ENDBRANCH  26  33
BRANCH  30  34
ATOM     34  O   UNL     1      -2.468   3.612  -0.168  0.00  0.00    -0.495 OA
ATOM     35  C   UNL     1      -2.434   5.038  -0.264  0.00  0.00    +0.277 C 
ENDBRANCH  30  34
ENDBRANCH   1  29
TORSDOF 4
