REMARK  Name = ZINC08869031
REMARK  8 active torsions:
REMARK  status: ('A' for Active; 'I' for Inactive)
REMARK    1  A    between atoms: C_1  and  C_2
REMARK    2  A    between atoms: C_2  and  C_3
REMARK    3  A    between atoms: C_3  and  N_60
REMARK    4  A    between atoms: C_9  and  N_14
REMARK    5  A    between atoms: C_10  and  C_11
REMARK    6  A    between atoms: C_15  and  C_17
REMARK    7  A    between atoms: N_22  and  S_23
REMARK    8  A    between atoms: S_23  and  C_26
REMARK                            x       y       z     vdW  Elec       q    Type
REMARK                         _______ _______ _______ _____ _____    ______ ____
ROOT
ATOM      1  N   UNL     1      -0.141  -0.249   2.973  0.00  0.00    -0.278 N 
ATOM      2  C   UNL     1      -1.160   0.300   2.282  0.00  0.00    +0.236 C 
ATOM      3  O   UNL     1      -2.290  -0.108   2.442  0.00  0.00    -0.274 OA
ATOM      4  H   UNL     1       0.764   0.077   2.845  0.00  0.00    +0.155 HD
ENDROOT
BRANCH   1  10
ATOM      5  C   UNL     1      -0.080  -4.524   7.479  0.00  0.00    -0.074 C 
ATOM      6  C   UNL     1       0.852  -3.866   6.457  0.00  0.00    +0.018 C 
ATOM      7  C   UNL     1       0.003  -3.015   5.519  0.00  0.00    -0.027 A 
ATOM      8  C   UNL     1      -1.333  -3.211   5.447  0.00  0.00    -0.021 A 
ATOM      9  S   UNL     1      -1.899  -2.026   4.262  0.00  0.00    -0.079 S 
ATOM     10  C   UNL     1      -0.385  -1.281   3.867  0.00  0.00    +0.084 A 
ATOM     11  C   UNL     1       0.524  -1.971   4.657  0.00  0.00    +0.068 A 
ATOM     12  C   UNL     1      -2.125  -4.222   6.215  0.00  0.00    -0.035 C 
ATOM     13  N   UNL     1      -1.175  -5.217   6.769  0.00  0.00    +0.383 N 
ATOM     14  H   UNL     1      -0.779  -5.766   5.998  0.00  0.00    -0.081 HD
BRANCH  11  15
ATOM     15  C   UNL     1       1.955  -1.653   4.626  0.00  0.00    +0.244 C 
ATOM     16  O   UNL     1       2.410  -0.819   5.386  0.00  0.00    -0.270 OA
ATOM     17  N   UNL     1       2.767  -2.285   3.755  0.00  0.00    -0.325 N 
ATOM     18  H   UNL     1       2.404  -2.950   3.149  0.00  0.00    +0.145 HD
ATOM     19  H   UNL     1       3.713  -2.075   3.734  0.00  0.00    +0.145 HD
ENDBRANCH  11  15
BRANCH  13  20
ATOM     20  C   UNL     1      -1.881  -6.129   7.696  0.00  0.00    -0.079 C 
BRANCH  20  22
ATOM     21  C   UNL     1      -3.577  -7.958   7.835  0.00  0.00    +0.002 C 
ATOM     22  C   UNL     1      -2.854  -6.994   6.892  0.00  0.00    -0.022 C 
ENDBRANCH  20  22
ENDBRANCH  13  20
ENDBRANCH   1  10
BRANCH   2  23
ATOM     23  C   UNL     1      -0.894   1.421   1.311  0.00  0.00    +0.166 C 
ATOM     24  C   UNL     1      -0.523   0.841  -0.071  0.00  0.00    +0.031 C 
ATOM     25  C   UNL     1      -1.224   1.812  -1.058  0.00  0.00    +0.019 C 
ATOM     26  C   UNL     1      -2.522   2.156  -0.287  0.00  0.00    +0.110 C 
ATOM     27  N   UNL     1      -2.113   2.230   1.127  0.00  0.00    -0.165 NA
BRANCH  27  28
ATOM     28  S   UNL     1      -2.894   3.080   2.315  0.00  0.00    +0.062 S 
ATOM     29  O   UNL     1      -4.269   3.108   1.957  0.00  0.00    -0.153 OA
ATOM     30  O   UNL     1      -2.440   2.556   3.555  0.00  0.00    -0.153 OA
BRANCH  28  31
ATOM     31  C   UNL     1      -2.317   4.743   2.229  0.00  0.00    +0.106 A 
ATOM     32  C   UNL     1      -1.150   5.104   2.877  0.00  0.00    +0.030 A 
ATOM     33  C   UNL     1      -0.695   6.407   2.806  0.00  0.00    +0.022 A 
ATOM     34  C   UNL     1      -1.413   7.353   2.096  0.00  0.00    +0.041 A 
ATOM     35  C   UNL     1      -2.583   6.992   1.453  0.00  0.00    +0.022 A 
ATOM     36  C   UNL     1      -3.035   5.688   1.520  0.00  0.00    +0.030 A 
ATOM     37 CL   UNL     1      -0.845   8.991   2.013  0.00  0.00    -0.084 Cl
ENDBRANCH  28  31
ENDBRANCH  27  28
ENDBRANCH   2  23
TORSDOF 7
