REMARK  Name = ZINC43537003
REMARK  17 active torsions:
REMARK  status: ('A' for Active; 'I' for Inactive)
REMARK    1  A    between atoms: C_1  and  C_2
REMARK    2  A    between atoms: C_2  and  C_3
REMARK    3  A    between atoms: C_2  and  C_4
REMARK    4  A    between atoms: C_4  and  C_5
REMARK    5  A    between atoms: C_5  and  C_7
REMARK    6  A    between atoms: C_5  and  N_10
REMARK    7  A    between atoms: C_11  and  C_13
REMARK    8  A    between atoms: C_13  and  O_34
REMARK    9  A    between atoms: C_15  and  N_24
REMARK   10  A    between atoms: C_17  and  O_23
REMARK   11  A    between atoms: C_19  and  O_22
REMARK   12  A    between atoms: C_25  and  C_27
REMARK   13  A    between atoms: C_27  and  C_29
REMARK   14  A    between atoms: C_27  and  N_32
REMARK   15  A    between atoms: C_29  and  C_30
REMARK   16  A    between atoms: C_29  and  C_31
REMARK   17  A    between atoms: N_32  and  C_33
REMARK                            x       y       z     vdW  Elec       q    Type
REMARK                         _______ _______ _______ _____ _____    ______ ____
ROOT
ATOM      1  C   UNL     1      -1.026  -1.713  -5.543  0.00  0.00    +0.146 C 
ATOM      2  C   UNL     1      -1.881  -1.176  -6.692  0.00  0.00    +0.069 C 
ATOM      3  C   UNL     1      -1.712   0.342  -6.787  0.00  0.00    +0.107 C 
ATOM      4  C   UNL     1      -0.242   0.676  -7.046  0.00  0.00    +0.163 C 
ATOM      5  C   UNL     1       0.613   0.139  -5.897  0.00  0.00    +0.148 C 
ATOM      6  C   UNL     1       0.444  -1.379  -5.801  0.00  0.00    +0.078 C 
ENDROOT
BRANCH   1   8
ATOM      7  N   UNL     1      -2.558  -1.537  -3.608  0.00  0.00    -0.302 N 
ATOM      8  C   UNL     1      -1.466  -1.076  -4.249  0.00  0.00    +0.245 C 
ATOM      9  O   UNL     1      -0.837  -0.149  -3.785  0.00  0.00    -0.273 OA
ATOM     10  H   UNL     1      -3.062  -2.279  -3.979  0.00  0.00    +0.150 HD
BRANCH   7  11
ATOM     11  C   UNL     1      -2.986  -0.918  -2.351  0.00  0.00    +0.159 C 
BRANCH  11  12
ATOM     12  C   UNL     1      -3.845   0.283  -2.649  0.00  0.00    +0.231 C 
ATOM     13  O   UNL     1      -4.078   0.592  -3.799  0.00  0.00    -0.274 OA
ATOM     14  N   UNL     1      -4.355   1.014  -1.639  0.00  0.00    -0.328 N 
ATOM     15  H   UNL     1      -4.169   0.767  -0.719  0.00  0.00    +0.145 HD
ATOM     16  H   UNL     1      -4.909   1.787  -1.831  0.00  0.00    +0.145 HD
ENDBRANCH  11  12
BRANCH  11  17
ATOM     17  C   UNL     1      -3.790  -1.930  -1.532  0.00  0.00    +0.034 C 
BRANCH  17  19
ATOM     18  C   UNL     1      -1.793  -2.580  -0.178  0.00  0.00    +0.007 C 
ATOM     19  C   UNL     1      -2.882  -3.092  -1.123  0.00  0.00    -0.015 C 
ATOM     20  C   UNL     1      -3.712  -4.162  -0.412  0.00  0.00    +0.007 C 
ENDBRANCH  17  19
ENDBRANCH  11  17
ENDBRANCH   7  11
ENDBRANCH   1   8
BRANCH   3  21
ATOM     21  N   UNL     1      -2.531   0.857  -7.888  0.00  0.00    -0.311 N 
ATOM     22  C   UNL     1      -2.953   2.136  -7.872  0.00  0.00    +0.200 C 
ATOM     23  O   UNL     1      -2.655   2.862  -6.948  0.00  0.00    -0.278 OA
ATOM     24  H   UNL     1      -2.769   0.276  -8.627  0.00  0.00    +0.149 HD
BRANCH  22  25
ATOM     25  C   UNL     1      -3.795   2.666  -9.005  0.00  0.00    +0.018 C 
BRANCH  25  26
ATOM     26  N   UNL     1      -4.511   3.869  -8.561  0.00  0.00    +0.385 N 
ATOM     27  C   UNL     1      -5.454   3.511  -7.492  0.00  0.00    -0.099 C 
ATOM     28  H   UNL     1      -3.849   4.546  -8.213  0.00  0.00    -0.085 HD
ATOM     29  H   UNL     1      -5.019   4.264  -9.338  0.00  0.00    -0.085 HD
ENDBRANCH  25  26
BRANCH  25  30
ATOM     30  C   UNL     1      -2.893   3.017 -10.190  0.00  0.00    -0.023 C 
ATOM     31  C   UNL     1      -3.758   3.426 -11.384  0.00  0.00    +0.006 C 
ATOM     32  C   UNL     1      -1.974   4.178  -9.805  0.00  0.00    +0.006 C 
ENDBRANCH  25  30
ENDBRANCH  22  25
ENDBRANCH   3  21
BRANCH   5  33
ATOM     33  O   UNL     1       1.987   0.451  -6.138  0.00  0.00    -0.389 OA
ATOM     34  H   UNL     1       2.588   0.139  -5.448  0.00  0.00    +0.210 HD
ENDBRANCH   5  33
BRANCH   4  35
ATOM     35  O   UNL     1      -0.084   2.093  -7.135  0.00  0.00    -0.387 OA
ATOM     36  H   UNL     1       0.826   2.378  -7.298  0.00  0.00    +0.210 HD
ENDBRANCH   4  35
BRANCH   1  37
ATOM     37  O   UNL     1      -1.185  -3.130  -5.454  0.00  0.00    -0.379 OA
ATOM     38  H   UNL     1      -0.670  -3.540  -4.745  0.00  0.00    +0.211 HD
ENDBRANCH   1  37
TORSDOF 12
