REMARK  Name = ZINC23483125
REMARK  11 active torsions:
REMARK  status: ('A' for Active; 'I' for Inactive)
REMARK    1  A    between atoms: C_1  and  C_2
REMARK    2  A    between atoms: C_2  and  C_4
REMARK    3  A    between atoms: C_2  and  N_30
REMARK    4  A    between atoms: C_7  and  S_16
REMARK    5  A    between atoms: N_8  and  C_9
REMARK    6  A    between atoms: S_16  and  C_17
REMARK    7  A    between atoms: C_17  and  C_19
REMARK    8  A    between atoms: C_17  and  C_20
REMARK    9  A    between atoms: N_22  and  C_23
REMARK   10  A    between atoms: N_30  and  C_31
REMARK   11  A    between atoms: N_30  and  C_32
REMARK                            x       y       z     vdW  Elec       q    Type
REMARK                         _______ _______ _______ _____ _____    ______ ____
ROOT
ATOM      1  C   UNL     1      -1.724   3.472   0.094  0.00  0.00    +0.125 A 
ATOM      2  N   UNL     1      -1.697   3.029  -1.131  0.00  0.00    -0.135 NA
ATOM      3  N   UNL     1      -2.615   3.598  -1.827  0.00  0.00    -0.122 NA
ATOM      4  C   UNL     1      -3.284   4.444  -1.079  0.00  0.00    +0.197 A 
ATOM      5  N   UNL     1      -2.740   4.387   0.174  0.00  0.00    -0.275 N 
ENDROOT
BRANCH   5   6
ATOM      6  C   UNL     1      -3.139   5.115   1.306  0.00  0.00    +0.050 A 
ATOM      7  C   UNL     1      -3.672   4.456   2.405  0.00  0.00    +0.029 A 
ATOM      8  C   UNL     1      -4.058   5.174   3.519  0.00  0.00    +0.040 A 
ATOM      9  C   UNL     1      -3.924   6.552   3.537  0.00  0.00    +0.124 A 
ATOM     10  C   UNL     1      -3.398   7.212   2.439  0.00  0.00    +0.040 A 
ATOM     11  C   UNL     1      -3.005   6.497   1.325  0.00  0.00    +0.029 A 
ATOM     12  F   UNL     1      -4.308   7.254   4.626  0.00  0.00    -0.205 F 
ENDBRANCH   5   6
BRANCH   1  14
ATOM     13  C   UNL     1       0.567   3.689   1.018  0.00  0.00    -0.005 C 
ATOM     14  C   UNL     1      -0.810   3.052   1.217  0.00  0.00    -0.003 C 
BRANCH  14  15
ATOM     15  N   UNL     1      -0.677   1.589   1.219  0.00  0.00    +0.382 N 
ATOM     16  C   UNL     1       0.015   1.122   0.010  0.00  0.00    -0.096 C 
ATOM     17  C   UNL     1       0.008   1.125   2.432  0.00  0.00    -0.096 C 
ATOM     18  H   UNL     1      -1.689   1.158   1.216  0.00  0.00    -0.082 HD
ENDBRANCH  14  15
ENDBRANCH   1  14
BRANCH   4  19
ATOM     19  S   UNL     1      -4.633   5.456  -1.591  0.00  0.00    -0.073 S 
BRANCH  19  20
ATOM     20  C   UNL     1      -4.752   4.965  -3.330  0.00  0.00    +0.137 C 
ATOM     21  C   UNL     1      -5.155   3.492  -3.417  0.00  0.00    +0.029 C 
BRANCH  20  22
ATOM     22  C   UNL     1      -5.790   5.812  -4.021  0.00  0.00    +0.230 C 
ATOM     23  O   UNL     1      -6.631   6.392  -3.368  0.00  0.00    -0.274 OA
ATOM     24  N   UNL     1      -5.782   5.924  -5.364  0.00  0.00    -0.285 N 
ATOM     25  H   UNL     1      -4.974   5.461  -5.950  0.00  0.00    +0.155 HD
BRANCH  24  26
ATOM     26  C   UNL     1      -6.801   6.631  -6.013  0.00  0.00    +0.033 A 
ATOM     27  C   UNL     1      -7.254   6.212  -7.257  0.00  0.00    +0.024 A 
ATOM     28  C   UNL     1      -8.263   6.908  -7.893  0.00  0.00    +0.017 A 
ATOM     29  C   UNL     1      -8.816   8.027  -7.296  0.00  0.00    +0.018 A 
ATOM     30  C   UNL     1      -8.363   8.450  -6.059  0.00  0.00    +0.017 A 
ATOM     31  C   UNL     1      -7.357   7.754  -5.416  0.00  0.00    +0.024 A 
ATOM     32 BR   UNL     1     -10.194   8.981  -8.173  0.00  0.00    -0.050 Br
ENDBRANCH  24  26
ENDBRANCH  20  22
ENDBRANCH  19  20
ENDBRANCH   4  19
TORSDOF 7
