REMARK  Name = ZINC03407298
REMARK  12 active torsions:
REMARK  status: ('A' for Active; 'I' for Inactive)
REMARK    1  A    between atoms: C_1  and  C_2
REMARK    2  A    between atoms: C_2  and  C_3
REMARK    3  A    between atoms: C_3  and  C_5
REMARK    4  A    between atoms: C_3  and  N_70
REMARK    5  A    between atoms: C_6  and  C_7
REMARK    6  A    between atoms: C_6  and  N_70
REMARK    7  A    between atoms: N_13  and  C_14
REMARK    8  A    between atoms: C_19  and  C_20
REMARK    9  A    between atoms: C_22  and  C_23
REMARK   10  A    between atoms: C_22  and  N_70
REMARK   11  A    between atoms: N_29  and  C_30
REMARK   12  A    between atoms: C_35  and  C_36
REMARK                            x       y       z     vdW  Elec       q    Type
REMARK                         _______ _______ _______ _____ _____    ______ ____
ROOT
ATOM      1  N   UNL     1      -5.973  -5.541   0.936  0.00  0.00    +0.391 N 
ATOM      2  H   UNL     1      -5.526  -6.274   1.499  0.00  0.00    -0.080 HD
ENDROOT
BRANCH   1   3
ATOM      3  C   UNL     1      -5.459  -4.224   1.366  0.00  0.00    -0.071 C 
ATOM      4  C   UNL     1      -5.755  -3.161   0.306  0.00  0.00    -0.013 C 
BRANCH   3   6
ATOM      5  C   UNL     1      -3.652  -5.364   2.661  0.00  0.00    +0.002 C 
ATOM      6  C   UNL     1      -3.946  -4.331   1.571  0.00  0.00    -0.019 C 
ENDBRANCH   3   6
ENDBRANCH   1   3
BRANCH   1   7
ATOM      7  C   UNL     1      -5.652  -5.768  -0.489  0.00  0.00    -0.000 C 
BRANCH   7   8
ATOM      8  C   UNL     1      -4.209  -6.191  -0.597  0.00  0.00    +0.120 A 
ATOM      9  N   UNL     1      -3.828  -7.362  -0.116  0.00  0.00    -0.202 NA
ATOM     10  C   UNL     1      -2.555  -7.739  -0.209  0.00  0.00    +0.217 A 
ATOM     11  N   UNL     1      -1.667  -6.937  -0.786  0.00  0.00    -0.181 NA
ATOM     12  C   UNL     1      -2.054  -5.761  -1.268  0.00  0.00    +0.224 A 
ATOM     13  N   UNL     1      -3.328  -5.388  -1.166  0.00  0.00    -0.201 NA
ATOM     14  N   UNL     1      -1.134  -4.923  -1.869  0.00  0.00    -0.283 N 
ATOM     15  N   UNL     1      -2.158  -8.962   0.292  0.00  0.00    -0.327 N 
ATOM     16  H   UNL     1      -1.431  -4.106  -2.299  0.00  0.00    +0.155 HD
ATOM     17  H   UNL     1      -1.230  -9.236   0.224  0.00  0.00    +0.145 HD
ATOM     18  H   UNL     1      -2.807  -9.547   0.713  0.00  0.00    +0.145 HD
BRANCH  14  19
ATOM     19  C   UNL     1       0.225  -5.253  -1.856  0.00  0.00    +0.036 A 
ATOM     20  C   UNL     1       0.730  -6.083  -0.863  0.00  0.00    +0.023 A 
ATOM     21  C   UNL     1       2.073  -6.406  -0.854  0.00  0.00    +0.002 A 
ATOM     22  C   UNL     1       2.913  -5.905  -1.831  0.00  0.00    +0.000 A 
ATOM     23  C   UNL     1       2.413  -5.078  -2.820  0.00  0.00    +0.005 A 
ATOM     24  C   UNL     1       1.072  -4.751  -2.835  0.00  0.00    -0.029 A 
ATOM     25  C   UNL     1       0.526  -3.855  -3.917  0.00  0.00    +0.045 C 
ENDBRANCH  14  19
ENDBRANCH   7   8
ENDBRANCH   1   7
BRANCH   1  26
ATOM     26  C   UNL     1      -7.436  -5.604   1.140  0.00  0.00    -0.000 C 
BRANCH  26  27
ATOM     27  C   UNL     1      -7.713  -5.752   2.614  0.00  0.00    +0.120 A 
ATOM     28  N   UNL     1      -7.678  -6.949   3.173  0.00  0.00    -0.202 NA
ATOM     29  C   UNL     1      -7.917  -7.084   4.476  0.00  0.00    +0.217 A 
ATOM     30  N   UNL     1      -8.202  -6.015   5.211  0.00  0.00    -0.181 NA
ATOM     31  C   UNL     1      -8.241  -4.814   4.644  0.00  0.00    +0.224 A 
ATOM     32  N   UNL     1      -7.995  -4.687   3.342  0.00  0.00    -0.201 NA
ATOM     33  N   UNL     1      -8.536  -3.699   5.404  0.00  0.00    -0.283 N 
ATOM     34  N   UNL     1      -7.875  -8.333   5.060  0.00  0.00    -0.327 N 
ATOM     35  H   UNL     1      -8.476  -2.814   5.011  0.00  0.00    +0.155 HD
ATOM     36  H   UNL     1      -8.053  -8.431   6.009  0.00  0.00    +0.145 HD
ATOM     37  H   UNL     1      -7.667  -9.114   4.523  0.00  0.00    +0.145 HD
BRANCH  33  38
ATOM     38  C   UNL     1      -8.921  -3.846   6.741  0.00  0.00    +0.036 A 
ATOM     39  C   UNL     1      -9.495  -5.035   7.173  0.00  0.00    +0.023 A 
ATOM     40  C   UNL     1      -9.870  -5.178   8.495  0.00  0.00    +0.002 A 
ATOM     41  C   UNL     1      -9.682  -4.137   9.385  0.00  0.00    +0.000 A 
ATOM     42  C   UNL     1      -9.115  -2.951   8.957  0.00  0.00    +0.005 A 
ATOM     43  C   UNL     1      -8.734  -2.803   7.638  0.00  0.00    -0.029 A 
ATOM     44  C   UNL     1      -8.116  -1.509   7.172  0.00  0.00    +0.045 C 
ENDBRANCH  33  38
ENDBRANCH  26  27
ENDBRANCH   1  26
TORSDOF 8
