REMARK  Name = ZINC48819428
REMARK  6 active torsions:
REMARK  status: ('A' for Active; 'I' for Inactive)
REMARK    1  A    between atoms: C_5  and  C_7
REMARK    2  A    between atoms: C_7  and  N_8
REMARK    3  A    between atoms: N_8  and  S_9
REMARK    4  A    between atoms: S_9  and  C_12
REMARK    5  A    between atoms: C_15  and  O_19
REMARK    6  A    between atoms: C_16  and  N_18
REMARK                            x       y       z     vdW  Elec       q    Type
REMARK                         _______ _______ _______ _____ _____    ______ ____
ROOT
ATOM      1  S   UNL     1       1.203  -4.267   1.705  0.00  0.00    +0.059 S 
ATOM      2  O   UNL     1       1.573  -4.438   3.067  0.00  0.00    -0.153 OA
ATOM      3  O   UNL     1      -0.100  -4.569   1.226  0.00  0.00    -0.153 OA
ENDROOT
BRANCH   1   4
ATOM      4  C   UNL     1       2.326  -5.235   0.753  0.00  0.00    +0.107 A 
ATOM      5  C   UNL     1       1.964  -5.672  -0.507  0.00  0.00    +0.032 A 
ATOM      6  C   UNL     1       2.841  -6.432  -1.259  0.00  0.00    +0.049 A 
ATOM      7  C   UNL     1       4.088  -6.757  -0.750  0.00  0.00    +0.137 A 
ATOM      8  C   UNL     1       4.454  -6.317   0.520  0.00  0.00    +0.068 A 
ATOM      9  C   UNL     1       3.571  -5.551   1.266  0.00  0.00    +0.055 A 
BRANCH   8  10
ATOM     10  N   UNL     1       5.712  -6.642   1.040  0.00  0.00    -0.355 N 
ATOM     11  H   UNL     1       6.330  -7.175   0.515  0.00  0.00    +0.142 HD
ATOM     12  H   UNL     1       5.966  -6.335   1.924  0.00  0.00    +0.142 HD
ENDBRANCH   8  10
BRANCH   7  13
ATOM     13  O   UNL     1       4.952  -7.504  -1.488  0.00  0.00    -0.505 OA
ATOM     14  H   UNL     1       5.538  -6.983  -2.054  0.00  0.00    +0.292 HD
ENDBRANCH   7  13
ENDBRANCH   1   4
BRANCH   1  15
ATOM     15  N   UNL     1       1.488  -2.679   1.333  0.00  0.00    -0.186 NA
ATOM     16  H   UNL     1       1.827  -2.075   2.012  0.00  0.00    +0.148 HD
BRANCH  15  17
ATOM     17  C   UNL     1       1.229  -2.186  -0.022  0.00  0.00    +0.142 C 
BRANCH  17  22
ATOM     18  C   UNL     1      -0.017   1.378   0.010  0.00  0.00    +0.000 A 
ATOM     19  C   UNL     1       1.171   2.086   0.002  0.00  0.00    +0.001 A 
ATOM     20  C   UNL     1       2.377   1.412  -0.013  0.00  0.00    +0.015 A 
ATOM     21  C   UNL     1       2.397   0.029  -0.021  0.00  0.00    +0.022 A 
ATOM     22  C   UNL     1       1.208  -0.679  -0.013  0.00  0.00    -0.018 A 
ATOM     23  C   UNL     1       0.002  -0.004   0.002  0.00  0.00    +0.006 A 
ATOM     24 BR   UNL     1       4.047  -0.894  -0.042  0.00  0.00    -0.050 Br
ENDBRANCH  17  22
ENDBRANCH  15  17
ENDBRANCH   1  15
TORSDOF 6
