REMARK  Name = ZINC36813381
REMARK  6 active torsions:
REMARK  status: ('A' for Active; 'I' for Inactive)
REMARK    1  A    between atoms: C_8  and  N_15
REMARK    2  A    between atoms: C_9  and  N_12
REMARK    3  A    between atoms: N_15  and  C_16
REMARK    4  A    between atoms: C_16  and  C_17
REMARK    5  A    between atoms: C_17  and  C_18
REMARK    6  A    between atoms: C_18  and  N_19
REMARK                            x       y       z     vdW  Elec       q    Type
REMARK                         _______ _______ _______ _____ _____    ______ ____
ROOT
ATOM      1  C   UNL     1       2.078  -1.025  -3.374  0.00  0.00    +0.017 A 
ATOM      2  C   UNL     1       3.422  -1.016  -3.587  0.00  0.00    +0.029 A 
ATOM      3  C   UNL     1       4.291  -1.477  -2.583  0.00  0.00    +0.073 A 
ATOM      4  C   UNL     1       3.746  -1.944  -1.363  0.00  0.00    +0.024 A 
ATOM      5  C   UNL     1       2.357  -1.940  -1.176  0.00  0.00    +0.027 A 
ATOM      6  C   UNL     1       1.544  -1.485  -2.172  0.00  0.00    +0.019 A 
ATOM      7 BR   UNL     1      -0.330  -1.478  -1.918  0.00  0.00    -0.050 Br
ATOM      8  C   UNL     1       4.624  -2.409  -0.354  0.00  0.00    +0.069 A 
ATOM      9  C   UNL     1       5.984  -2.381  -0.616  0.00  0.00    +0.165 A 
ATOM     10  C   UNL     1       6.440  -1.908  -1.839  0.00  0.00    +0.146 A 
ATOM     11  N   UNL     1       5.617  -1.479  -2.767  0.00  0.00    -0.253 NA
ENDROOT
BRANCH   9  12
ATOM     12  N   UNL     1       6.947  -2.854   0.404  0.00  0.00    +0.060 N 
ATOM     13  O   UNL     1       8.136  -2.742   0.211  0.00  0.00    -0.126 OA
ATOM     14  O   UNL     1       6.545  -3.353   1.430  0.00  0.00    -0.126 OA
ENDBRANCH   9  12
BRANCH   8  15
ATOM     15  N   UNL     1       4.138  -2.875   0.858  0.00  0.00    -0.342 N 
ATOM     16  H   UNL     1       4.294  -2.369   1.670  0.00  0.00    +0.146 HD
BRANCH  15  17
ATOM     17  C   UNL     1       3.388  -4.133   0.910  0.00  0.00    +0.100 C 
BRANCH  17  18
ATOM     18  C   UNL     1       4.364  -5.304   1.029  0.00  0.00    -0.001 C 
BRANCH  18  19
ATOM     19  C   UNL     1       3.581  -6.617   1.084  0.00  0.00    -0.085 C 
BRANCH  19  20
ATOM     20  N   UNL     1       4.518  -7.743   1.197  0.00  0.00    +0.378 N 
ATOM     21  H   UNL     1       5.132  -7.751   0.397  0.00  0.00    -0.090 HD
ATOM     22  H   UNL     1       5.065  -7.641   2.039  0.00  0.00    -0.090 HD
ATOM     23  H   UNL     1       4.002  -8.609   1.234  0.00  0.00    -0.090 HD
ENDBRANCH  19  20
ENDBRANCH  18  19
ENDBRANCH  17  18
ENDBRANCH  15  17
ENDBRANCH   8  15
TORSDOF 6
