REMARK  Name = ZINC04191648
REMARK  12 active torsions:
REMARK  status: ('A' for Active; 'I' for Inactive)
REMARK    1  A    between atoms: C_1  and  C_2
REMARK    2  A    between atoms: C_5  and  N_8
REMARK    3  A    between atoms: N_8  and  C_9
REMARK    4  A    between atoms: C_9  and  C_11
REMARK    5  A    between atoms: C_9  and  C_12
REMARK    6  A    between atoms: N_14  and  C_15
REMARK    7  A    between atoms: C_15  and  C_16
REMARK    8  A    between atoms: C_15  and  C_17
REMARK    9  A    between atoms: C_15  and  C_18
REMARK   10  A    between atoms: C_19  and  C_21
REMARK   11  A    between atoms: C_22  and  N_29
REMARK   12  A    between atoms: C_23  and  C_26
REMARK                            x       y       z     vdW  Elec       q    Type
REMARK                         _______ _______ _______ _____ _____    ______ ____
ROOT
ATOM      1  N   UNL     1      -3.502   1.984   0.047  0.00  0.00    -0.255 N 
ATOM      2  C   UNL     1      -4.691   1.604  -0.463  0.00  0.00    +0.261 C 
ATOM      3  O   UNL     1      -4.745   0.691  -1.265  0.00  0.00    -0.269 OA
ENDROOT
BRANCH   1   8
ATOM      4  C   UNL     1      -3.213   6.420   3.571  0.00  0.00    +0.044 C 
ATOM      5  C   UNL     1      -3.290   5.242   2.634  0.00  0.00    -0.050 A 
ATOM      6  C   UNL     1      -3.058   3.965   3.112  0.00  0.00    +0.005 A 
ATOM      7  C   UNL     1      -3.128   2.882   2.257  0.00  0.00    +0.024 A 
ATOM      8  C   UNL     1      -3.431   3.078   0.916  0.00  0.00    +0.037 A 
ATOM      9  C   UNL     1      -3.658   4.362   0.438  0.00  0.00    +0.024 A 
ATOM     10  C   UNL     1      -3.592   5.439   1.300  0.00  0.00    +0.005 A 
ENDBRANCH   1   8
BRANCH   2  11
ATOM     11  C   UNL     1      -5.917   2.290  -0.050  0.00  0.00    +0.116 A 
ATOM     12  C   UNL     1      -7.222   2.127  -0.517  0.00  0.00    +0.076 A 
ATOM     13  C   UNL     1      -8.129   2.969   0.126  0.00  0.00    +0.155 A 
ATOM     14  N   UNL     1      -7.696   3.789   1.058  0.00  0.00    -0.203 NA
ATOM     15  S   UNL     1      -6.143   3.551   1.187  0.00  0.00    +0.019 S 
BRANCH  13  16
ATOM     16  C   UNL     1      -9.559   2.939  -0.234  0.00  0.00    +0.262 C 
ATOM     17  O   UNL     1      -9.952   2.178  -1.097  0.00  0.00    -0.269 OA
ATOM     18  N   UNL     1     -10.429   3.756   0.392  0.00  0.00    -0.324 N 
ATOM     19  H   UNL     1     -10.115   4.363   1.080  0.00  0.00    +0.145 HD
ATOM     20  H   UNL     1     -11.369   3.736   0.155  0.00  0.00    +0.145 HD
ENDBRANCH  13  16
BRANCH  12  21
ATOM     21  N   UNL     1      -7.579   1.226  -1.512  0.00  0.00    -0.355 N 
ATOM     22  H   UNL     1      -6.902   0.665  -1.923  0.00  0.00    +0.142 HD
ATOM     23  H   UNL     1      -8.504   1.157  -1.795  0.00  0.00    +0.142 HD
ENDBRANCH  12  21
ENDBRANCH   2  11
BRANCH   1  24
ATOM     24  C   UNL     1      -2.285   1.251  -0.309  0.00  0.00    +0.164 C 
ATOM     25  C   UNL     1      -1.577   0.788   0.966  0.00  0.00    +0.038 C 
BRANCH  24  26
ATOM     26  C   UNL     1      -1.367   2.153  -1.094  0.00  0.00    +0.234 C 
ATOM     27  O   UNL     1      -1.698   3.295  -1.332  0.00  0.00    -0.274 OA
ATOM     28  N   UNL     1      -0.179   1.690  -1.531  0.00  0.00    -0.309 N 
ATOM     29  H   UNL     1       0.085   0.776  -1.341  0.00  0.00    +0.149 HD
BRANCH  28  30
ATOM     30  C   UNL     1       0.710   2.565  -2.299  0.00  0.00    +0.026 C 
ATOM     31  C   UNL     1       1.083   3.783  -1.452  0.00  0.00    +0.031 C 
ATOM     32  C   UNL     1       1.979   1.798  -2.676  0.00  0.00    +0.031 C 
ATOM     33  C   UNL     1      -0.003   3.027  -3.571  0.00  0.00    +0.031 C 
ENDBRANCH  28  30
ENDBRANCH  24  26
ENDBRANCH   1  24
TORSDOF 7
