REMARK  Name = ZINC09509538
REMARK  10 active torsions:
REMARK  status: ('A' for Active; 'I' for Inactive)
REMARK    1  A    between atoms: C_4  and  C_7
REMARK    2  A    between atoms: C_10  and  S_13
REMARK    3  A    between atoms: N_11  and  N_12
REMARK    4  A    between atoms: S_13  and  C_14
REMARK    5  A    between atoms: C_14  and  C_15
REMARK    6  A    between atoms: N_17  and  C_18
REMARK    7  A    between atoms: C_18  and  C_19
REMARK    8  A    between atoms: C_19  and  C_20
REMARK    9  A    between atoms: C_23  and  S_26
REMARK   10  A    between atoms: S_26  and  N_29
REMARK                            x       y       z     vdW  Elec       q    Type
REMARK                         _______ _______ _______ _____ _____    ______ ____
ROOT
ATOM      1  C   UNL     1       0.434   1.036  -0.881  0.00  0.00    +0.223 C 
ATOM      2  O   UNL     1      -0.683   1.510  -0.897  0.00  0.00    -0.275 OA
ATOM      3  N   UNL     1       0.607  -0.286  -1.080  0.00  0.00    -0.314 N 
ATOM      4  H   UNL     1       1.500  -0.665  -1.071  0.00  0.00    +0.149 HD
ENDROOT
BRANCH   1   5
ATOM      5  C   UNL     1       1.627   1.925  -0.645  0.00  0.00    +0.173 C 
BRANCH   5   6
ATOM      6  S   UNL     1       1.071   3.632  -0.414  0.00  0.00    -0.075 S 
BRANCH   6  10
ATOM      7  C   UNL     1       4.183   5.914   0.195  0.00  0.00    +0.182 A 
ATOM      8  N   UNL     1       4.721   4.726   0.046  0.00  0.00    -0.127 NA
ATOM      9  N   UNL     1       3.803   3.851  -0.161  0.00  0.00    -0.121 NA
ATOM     10  C   UNL     1       2.622   4.429  -0.166  0.00  0.00    +0.209 A 
ATOM     11  N   UNL     1       2.822   5.760   0.064  0.00  0.00    -0.224 N 
BRANCH   7  15
ATOM     12  C   UNL     1       6.251   9.549   0.941  0.00  0.00    +0.000 A 
ATOM     13  C   UNL     1       4.891   9.469   1.180  0.00  0.00    +0.001 A 
ATOM     14  C   UNL     1       4.213   8.291   0.940  0.00  0.00    +0.011 A 
ATOM     15  C   UNL     1       4.903   7.179   0.455  0.00  0.00    +0.021 A 
ATOM     16  C   UNL     1       6.276   7.265   0.221  0.00  0.00    +0.011 A 
ATOM     17  C   UNL     1       6.941   8.450   0.460  0.00  0.00    +0.001 A 
ENDBRANCH   7  15
BRANCH  11  18
ATOM     18  N   UNL     1       1.869   6.735   0.145  0.00  0.00    -0.295 N 
ATOM     19  H   UNL     1       1.611   6.909   1.105  0.00  0.00    +0.163 HD
ATOM     20  H   UNL     1       2.180   7.583  -0.304  0.00  0.00    +0.163 HD
ENDBRANCH  11  18
ENDBRANCH   6  10
ENDBRANCH   5   6
ENDBRANCH   1   5
BRANCH   3  21
ATOM     21  C   UNL     1      -0.553  -1.151  -1.309  0.00  0.00    +0.109 C 
BRANCH  21  22
ATOM     22  C   UNL     1      -0.082  -2.594  -1.504  0.00  0.00    +0.054 C 
BRANCH  22  23
ATOM     23  C   UNL     1      -1.276  -3.484  -1.740  0.00  0.00    -0.046 A 
ATOM     24  C   UNL     1      -1.911  -4.085  -0.670  0.00  0.00    +0.005 A 
ATOM     25  C   UNL     1      -3.008  -4.898  -0.886  0.00  0.00    +0.029 A 
ATOM     26  C   UNL     1      -3.465  -5.116  -2.172  0.00  0.00    +0.105 A 
ATOM     27  C   UNL     1      -2.826  -4.519  -3.243  0.00  0.00    +0.029 A 
ATOM     28  C   UNL     1      -1.731  -3.703  -3.026  0.00  0.00    +0.005 A 
BRANCH  26  29
ATOM     29  S   UNL     1      -4.860  -6.156  -2.448  0.00  0.00    +0.056 S 
ATOM     30  O   UNL     1      -5.611  -6.157  -1.241  0.00  0.00    -0.153 OA
ATOM     31  O   UNL     1      -5.421  -5.761  -3.693  0.00  0.00    -0.153 OA
BRANCH  29  32
ATOM     32  N   UNL     1      -4.290  -7.697  -2.652  0.00  0.00    -0.204 NA
ATOM     33  H   UNL     1      -3.337  -7.872  -2.607  0.00  0.00    +0.144 HD
ATOM     34  H   UNL     1      -4.910  -8.425  -2.817  0.00  0.00    +0.144 HD
ENDBRANCH  29  32
ENDBRANCH  26  29
ENDBRANCH  22  23
ENDBRANCH  21  22
ENDBRANCH   3  21
TORSDOF 10
