REMARK  Name = ZINC36066227
REMARK  13 active torsions:
REMARK  status: ('A' for Active; 'I' for Inactive)
REMARK    1  A    between atoms: C_1  and  C_2
REMARK    2  A    between atoms: C_7  and  N_12
REMARK    3  A    between atoms: C_9  and  C_11
REMARK    4  A    between atoms: C_13  and  C_15
REMARK    5  A    between atoms: C_23  and  C_34
REMARK    6  A    between atoms: N_29  and  C_30
REMARK    7  A    between atoms: C_30  and  C_31
REMARK    8  A    between atoms: C_31  and  O_32
REMARK    9  A    between atoms: O_32  and  C_33
REMARK   10  A    between atoms: N_36  and  C_37
REMARK   11  A    between atoms: C_40  and  C_43
REMARK   12  A    between atoms: C_43  and  C_44
REMARK   13  A    between atoms: C_43  and  C_45
REMARK                            x       y       z     vdW  Elec       q    Type
REMARK                         _______ _______ _______ _____ _____    ______ ____
ROOT
ATOM      1  C   UNL     1       2.292  -4.380   2.858  0.00  0.00    +0.198 C 
ATOM      2  C   UNL     1       3.662  -3.838   3.124  0.00  0.00    +0.127 C 
ATOM      3  C   UNL     1       4.544  -3.832   1.889  0.00  0.00    +0.009 C 
ATOM      4  C   UNL     1       5.704  -3.323   2.278  0.00  0.00    +0.004 C 
ATOM      5  C   UNL     1       5.544  -3.074   3.783  0.00  0.00    +0.155 C 
ATOM      6  O   UNL     1       4.100  -2.725   3.868  0.00  0.00    -0.358 OA
ATOM      7  C   UNL     1       5.586  -4.539   4.368  0.00  0.00    +0.123 C 
ATOM      8  C   UNL     1       4.153  -4.990   4.090  0.00  0.00    +0.128 C 
ATOM      9  C   UNL     1       3.733  -6.175   3.319  0.00  0.00    +0.223 C 
ATOM     10  O   UNL     1       4.306  -7.242   3.267  0.00  0.00    -0.275 OA
ATOM     11  N   UNL     1       2.568  -5.839   2.672  0.00  0.00    -0.284 N 
ENDROOT
BRANCH   1  13
ATOM     12  N   UNL     1       0.898  -2.704   1.689  0.00  0.00    -0.311 N 
ATOM     13  C   UNL     1       1.709  -3.778   1.606  0.00  0.00    +0.237 C 
ATOM     14  O   UNL     1       1.968  -4.260   0.524  0.00  0.00    -0.274 OA
ATOM     15  H   UNL     1       0.691  -2.319   2.555  0.00  0.00    +0.149 HD
BRANCH  12  21
ATOM     16  C   UNL     1      -0.921   1.439  -0.303  0.00  0.00    +0.008 C 
ATOM     17  C   UNL     1      -0.591  -0.035  -0.551  0.00  0.00    -0.009 C 
ATOM     18  C   UNL     1      -1.869  -0.786  -0.931  0.00  0.00    +0.003 C 
ATOM     19  C   UNL     1      -1.539  -2.260  -1.179  0.00  0.00    +0.002 C 
ATOM     20  C   UNL     1      -0.947  -2.871   0.092  0.00  0.00    +0.022 C 
ATOM     21  C   UNL     1       0.331  -2.119   0.472  0.00  0.00    +0.076 C 
ATOM     22  C   UNL     1       0.001  -0.646   0.720  0.00  0.00    +0.009 C 
ATOM     23  C   UNL     1      -1.014  -0.535   1.860  0.00  0.00    +0.009 C 
ENDBRANCH  12  21
ENDBRANCH   1  13
BRANCH   7  24
ATOM     24  C   UNL     1       6.593  -5.386   3.634  0.00  0.00    +0.224 C 
ATOM     25  O   UNL     1       6.230  -6.376   3.034  0.00  0.00    -0.275 OA
ATOM     26  N   UNL     1       7.897  -5.045   3.643  0.00  0.00    -0.285 N 
ATOM     27  H   UNL     1       8.178  -4.217   4.064  0.00  0.00    +0.155 HD
BRANCH  26  28
ATOM     28  C   UNL     1       8.844  -5.884   3.047  0.00  0.00    +0.033 A 
ATOM     29  C   UNL     1       9.963  -5.341   2.429  0.00  0.00    +0.023 A 
ATOM     30  C   UNL     1      10.896  -6.173   1.841  0.00  0.00    +0.006 A 
ATOM     31  C   UNL     1      10.718  -7.544   1.869  0.00  0.00    -0.045 A 
ATOM     32  C   UNL     1       9.605  -8.087   2.484  0.00  0.00    +0.006 A 
ATOM     33  C   UNL     1       8.671  -7.261   3.079  0.00  0.00    +0.023 A 
BRANCH  31  34
ATOM     34  C   UNL     1      11.739  -8.447   1.227  0.00  0.00    +0.013 C 
ATOM     35  C   UNL     1      12.322  -9.389   2.282  0.00  0.00    +0.012 C 
ATOM     36  C   UNL     1      11.070  -9.270   0.124  0.00  0.00    +0.012 C 
ENDBRANCH  31  34
ENDBRANCH  26  28
ENDBRANCH   7  24
BRANCH  11  37
ATOM     37  C   UNL     1       1.724  -6.768   1.916  0.00  0.00    +0.136 C 
BRANCH  37  38
ATOM     38  C   UNL     1       0.636  -7.331   2.833  0.00  0.00    +0.178 C 
BRANCH  38  39
ATOM     39  O   UNL     1      -0.236  -6.276   3.242  0.00  0.00    -0.381 OA
ATOM     40  C   UNL     1      -1.293  -6.698   4.106  0.00  0.00    +0.194 C 
ENDBRANCH  38  39
ENDBRANCH  37  38
ENDBRANCH  11  37
TORSDOF 8
