REMARK  Name = ZINC37098979
REMARK  9 active torsions:
REMARK  status: ('A' for Active; 'I' for Inactive)
REMARK    1  A    between atoms: C_1  and  C_2
REMARK    2  A    between atoms: C_2  and  C_3
REMARK    3  A    between atoms: C_2  and  C_4
REMARK    4  A    between atoms: C_4  and  N_5
REMARK    5  A    between atoms: N_5  and  C_6
REMARK    6  A    between atoms: N_5  and  C_7
REMARK    7  A    between atoms: C_7  and  C_8
REMARK    8  A    between atoms: N_10  and  C_11
REMARK    9  A    between atoms: C_12  and  N_19
REMARK                            x       y       z     vdW  Elec       q    Type
REMARK                         _______ _______ _______ _____ _____    ______ ____
ROOT
ATOM      1  C   UNL     1       4.792  -1.269  -2.809  0.00  0.00    +0.201 C 
ATOM      2  O   UNL     1       5.726  -1.827  -2.272  0.00  0.00    -0.278 OA
ATOM      3  N   UNL     1       5.000  -0.151  -3.533  0.00  0.00    -0.284 N 
ATOM      4  H   UNL     1       4.266   0.254  -4.021  0.00  0.00    +0.155 HD
ENDROOT
BRANCH   3   5
ATOM      5  C   UNL     1       6.277   0.426  -3.580  0.00  0.00    +0.073 A 
ATOM      6  C   UNL     1       7.181   0.044  -4.570  0.00  0.00    +0.049 A 
ATOM      7  C   UNL     1       8.443   0.619  -4.612  0.00  0.00    +0.044 A 
ATOM      8  C   UNL     1       8.801   1.569  -3.672  0.00  0.00    +0.044 A 
ATOM      9  C   UNL     1       7.904   1.949  -2.690  0.00  0.00    +0.042 A 
ATOM     10  C   UNL     1       6.642   1.384  -2.645  0.00  0.00    +0.065 A 
ATOM     11 CL   UNL     1       5.518   1.868  -1.414  0.00  0.00    -0.082 Cl
ATOM     12 CL   UNL     1      10.381   2.287  -3.727  0.00  0.00    -0.083 Cl
BRANCH   6  13
ATOM     13  N   UNL     1       6.817  -0.918  -5.519  0.00  0.00    -0.356 N 
ATOM     14  H   UNL     1       5.935  -1.319  -5.488  0.00  0.00    +0.142 HD
ATOM     15  H   UNL     1       7.447  -1.183  -6.207  0.00  0.00    +0.142 HD
ENDBRANCH   6  13
ENDBRANCH   3   5
BRANCH   1  16
ATOM     16  C   UNL     1       3.399  -1.826  -2.666  0.00  0.00    +0.018 C 
BRANCH  16  17
ATOM     17  N   UNL     1       3.439  -3.038  -1.836  0.00  0.00    +0.384 N 
ATOM     18  C   UNL     1       4.205  -4.081  -2.530  0.00  0.00    -0.096 C 
ATOM     19  H   UNL     1       3.880  -2.827  -0.954  0.00  0.00    -0.082 HD
BRANCH  17  20
ATOM     20  C   UNL     1       2.069  -3.513  -1.597  0.00  0.00    -0.076 C 
BRANCH  20  22
ATOM     21  C   UNL     1       2.613  -4.234   0.732  0.00  0.00    +0.005 C 
ATOM     22  C   UNL     1       2.102  -4.700  -0.633  0.00  0.00    -0.034 C 
ATOM     23  C   UNL     1       0.692  -5.273  -0.481  0.00  0.00    +0.005 C 
ENDBRANCH  20  22
ENDBRANCH  17  20
ENDBRANCH  16  17
ENDBRANCH   1  16
TORSDOF 6
