REMARK  Name = ZINC06442790
REMARK  16 active torsions:
REMARK  status: ('A' for Active; 'I' for Inactive)
REMARK    1  A    between atoms: C_1  and  C_2
REMARK    2  A    between atoms: C_6  and  N_9
REMARK    3  A    between atoms: C_7  and  C_8
REMARK    4  A    between atoms: N_9  and  C_10
REMARK    5  A    between atoms: C_10  and  C_12
REMARK    6  A    between atoms: C_10  and  C_21
REMARK    7  A    between atoms: C_15  and  N_18
REMARK    8  A    between atoms: N_18  and  C_19
REMARK    9  A    between atoms: N_18  and  C_20
REMARK   10  A    between atoms: N_23  and  C_24
REMARK   11  A    between atoms: C_24  and  C_25
REMARK   12  A    between atoms: C_25  and  O_26
REMARK   13  A    between atoms: O_26  and  C_27
REMARK   14  A    between atoms: C_28  and  C_30
REMARK   15  A    between atoms: C_31  and  N_38
REMARK   16  A    between atoms: C_32  and  C_35
REMARK                            x       y       z     vdW  Elec       q    Type
REMARK                         _______ _______ _______ _____ _____    ______ ____
ROOT
ATOM      1  N   UNL     1       4.233   2.108   0.097  0.00  0.00    -0.251 N 
ATOM      2  C   UNL     1       4.257   3.021   1.088  0.00  0.00    +0.262 C 
ATOM      3  O   UNL     1       4.182   4.207   0.825  0.00  0.00    -0.269 OA
ENDROOT
BRANCH   1   9
ATOM      4  C   UNL     1       6.973  -1.930   0.686  0.00  0.00    +0.044 C 
ATOM      5  C   UNL     1       5.635  -1.238   0.691  0.00  0.00    -0.046 A 
ATOM      6  C   UNL     1       4.489  -1.951   0.995  0.00  0.00    +0.004 A 
ATOM      7  C   UNL     1       3.259  -1.320   1.002  0.00  0.00    +0.002 A 
ATOM      8  C   UNL     1       3.171   0.026   0.704  0.00  0.00    +0.024 A 
ATOM      9  C   UNL     1       4.319   0.745   0.399  0.00  0.00    +0.041 A 
ATOM     10  C   UNL     1       5.553   0.108   0.393  0.00  0.00    -0.026 A 
ATOM     11  C   UNL     1       6.802   0.884   0.062  0.00  0.00    +0.046 C 
ENDBRANCH   1   9
BRANCH   2  12
ATOM     12  C   UNL     1       4.375   2.586   2.481  0.00  0.00    +0.116 A 
ATOM     13  C   UNL     1       4.418   3.352   3.647  0.00  0.00    +0.076 A 
ATOM     14  C   UNL     1       4.535   2.570   4.796  0.00  0.00    +0.155 A 
ATOM     15  N   UNL     1       4.590   1.262   4.681  0.00  0.00    -0.203 NA
ATOM     16  S   UNL     1       4.491   0.936   3.142  0.00  0.00    +0.019 S 
BRANCH  14  17
ATOM     17  C   UNL     1       4.597   3.205   6.126  0.00  0.00    +0.262 C 
ATOM     18  O   UNL     1       4.546   4.415   6.225  0.00  0.00    -0.269 OA
ATOM     19  N   UNL     1       4.710   2.442   7.231  0.00  0.00    -0.324 N 
ATOM     20  H   UNL     1       4.751   1.476   7.153  0.00  0.00    +0.145 HD
ATOM     21  H   UNL     1       4.751   2.860   8.106  0.00  0.00    +0.145 HD
ENDBRANCH  14  17
BRANCH  13  22
ATOM     22  N   UNL     1       4.353   4.739   3.661  0.00  0.00    -0.355 N 
ATOM     23  H   UNL     1       4.273   5.229   2.828  0.00  0.00    +0.142 HD
ATOM     24  H   UNL     1       4.389   5.218   4.504  0.00  0.00    +0.142 HD
ENDBRANCH  13  22
ENDBRANCH   2  12
BRANCH   1  25
ATOM     25  C   UNL     1       4.115   2.543  -1.297  0.00  0.00    +0.197 C 
BRANCH  25  26
ATOM     26  C   UNL     1       4.213   1.346  -2.207  0.00  0.00    -0.018 A 
ATOM     27  C   UNL     1       3.284   0.327  -2.107  0.00  0.00    +0.008 A 
ATOM     28  C   UNL     1       3.366  -0.769  -2.944  0.00  0.00    +0.023 A 
ATOM     29  C   UNL     1       4.391  -0.852  -3.878  0.00  0.00    +0.029 A 
ATOM     30  C   UNL     1       5.325   0.172  -3.972  0.00  0.00    +0.023 A 
ATOM     31  C   UNL     1       5.233   1.267  -3.137  0.00  0.00    +0.008 A 
BRANCH  29  32
ATOM     32  N   UNL     1       4.481  -1.962  -4.722  0.00  0.00    -0.336 N 
ATOM     33  C   UNL     1       5.631  -2.110  -5.617  0.00  0.00    +0.129 C 
ATOM     34  C   UNL     1       3.426  -2.978  -4.710  0.00  0.00    +0.129 C 
ENDBRANCH  29  32
ENDBRANCH  25  26
BRANCH  25  35
ATOM     35  C   UNL     1       2.786   3.223  -1.501  0.00  0.00    +0.239 C 
ATOM     36  O   UNL     1       2.013   3.333  -0.573  0.00  0.00    -0.273 OA
ATOM     37  N   UNL     1       2.457   3.709  -2.714  0.00  0.00    -0.311 N 
ATOM     38  H   UNL     1       3.075   3.621  -3.456  0.00  0.00    +0.149 HD
BRANCH  37  39
ATOM     39  C   UNL     1       1.164   4.370  -2.912  0.00  0.00    +0.132 C 
BRANCH  39  40
ATOM     40  C   UNL     1       1.042   4.824  -4.368  0.00  0.00    +0.178 C 
BRANCH  40  41
ATOM     41  O   UNL     1       1.017   3.680  -5.224  0.00  0.00    -0.381 OA
ATOM     42  C   UNL     1       0.904   3.996  -6.613  0.00  0.00    +0.194 C 
ENDBRANCH  40  41
ENDBRANCH  39  40
ENDBRANCH  37  39
ENDBRANCH  25  35
ENDBRANCH   1  25
TORSDOF 11
