REMARK  Name = ZINC63831363
REMARK  1 active torsions:
REMARK  status: ('A' for Active; 'I' for Inactive)
REMARK    1  A    between atoms: C_7  and  C_10
REMARK                            x       y       z     vdW  Elec       q    Type
REMARK                         _______ _______ _______ _____ _____    ______ ____
ROOT
ATOM      1  C   UNL     1       0.691  -3.186  -0.024  0.00  0.00    +0.193 C 
ATOM      2  N   UNL     1       0.931  -4.032  -1.214  0.00  0.00    -0.295 N 
ATOM      3  C   UNL     1       2.015  -4.893  -1.185  0.00  0.00    +0.177 C 
ATOM      4  N   UNL     1       2.235  -5.636  -0.032  0.00  0.00    -0.284 N 
ATOM      5  C   UNL     1       2.150  -4.902   1.243  0.00  0.00    +0.255 C 
ATOM      6  N   UNL     1       0.951  -4.039   1.141  0.00  0.00    -0.272 N 
ATOM      7  C   UNL     1       0.180  -4.247   2.283  0.00  0.00    +0.059 A 
ATOM      8  C   UNL     1      -0.949  -3.586   2.756  0.00  0.00    +0.074 A 
ATOM      9  C   UNL     1      -1.555  -4.002   3.928  0.00  0.00    +0.164 A 
ATOM     10  C   UNL     1      -1.038  -5.075   4.638  0.00  0.00    +0.164 A 
ATOM     11  C   UNL     1       0.090  -5.732   4.179  0.00  0.00    +0.074 A 
ATOM     12  C   UNL     1       0.707  -5.317   3.004  0.00  0.00    +0.055 A 
ATOM     13  N   UNL     1       1.889  -5.803   2.364  0.00  0.00    -0.309 N 
ATOM     14  O   UNL     1      -1.649  -5.478   5.791  0.00  0.00    -0.488 OA
ATOM     15  C   UNL     1      -1.560  -4.573   6.893  0.00  0.00    +0.232 C 
ATOM     16  C   UNL     1      -2.654  -3.519   6.815  0.00  0.00    +0.082 C 
ATOM     17  C   UNL     1      -2.501  -2.615   5.601  0.00  0.00    +0.232 C 
ATOM     18  O   UNL     1      -2.668  -3.359   4.393  0.00  0.00    -0.488 OA
ATOM     19  N   UNL     1       2.808  -5.005  -2.213  0.00  0.00    -0.273 NA
ATOM     20  H   UNL     1       0.349  -3.984  -1.988  0.00  0.00    +0.151 HD
ATOM     21  H   UNL     1       2.416  -6.578   2.615  0.00  0.00    +0.149 HD
ATOM     22  H   UNL     1       3.563  -5.613  -2.180  0.00  0.00    +0.189 HD
ATOM     23  H   UNL     1       2.434  -6.585  -0.064  0.00  0.00    +0.152 HD
ENDROOT
BRANCH   1  30
ATOM     24  C   UNL     1      -0.016   1.348   0.009  0.00  0.00    +0.001 A 
ATOM     25  C   UNL     1       1.166   2.101   0.002  0.00  0.00    +0.002 A 
ATOM     26  C   UNL     1       2.391   1.535  -0.013  0.00  0.00    +0.026 A 
ATOM     27  C   UNL     1       2.529   0.120  -0.022  0.00  0.00    +0.043 A 
ATOM     28  N   UNL     1       3.587  -0.654  -0.037  0.00  0.00    -0.380 N 
ATOM     29  C   UNL     1       3.143  -2.053  -0.041  0.00  0.00    +0.148 C 
ATOM     30  C   UNL     1       1.631  -2.008  -0.025  0.00  0.00    -0.004 C 
ATOM     31  C   UNL     1       1.295  -0.698  -0.014  0.00  0.00    +0.002 A 
ATOM     32  C   UNL     1       0.002  -0.004   0.002  0.00  0.00    +0.010 A 
ATOM     33  H   UNL     1       4.509  -0.353  -0.045  0.00  0.00    +0.160 HD
ENDBRANCH   1  30
TORSDOF 1
