REMARK  Name = ZINC67433515
REMARK  10 active torsions:
REMARK  status: ('A' for Active; 'I' for Inactive)
REMARK    1  A    between atoms: C_1  and  C_2
REMARK    2  A    between atoms: C_5  and  N_9
REMARK    3  A    between atoms: C_6  and  C_8
REMARK    4  A    between atoms: C_10  and  C_12
REMARK    5  A    between atoms: C_12  and  C_13
REMARK    6  A    between atoms: C_17  and  N_28
REMARK    7  A    between atoms: C_20  and  C_22
REMARK    8  A    between atoms: N_24  and  C_25
REMARK    9  A    between atoms: C_25  and  C_26
REMARK   10  A    between atoms: C_25  and  C_27
REMARK                            x       y       z     vdW  Elec       q    Type
REMARK                         _______ _______ _______ _____ _____    ______ ____
ROOT
ATOM      1  C   UNL     1      -0.235  -6.840  -2.606  0.00  0.00    +0.225 C 
ATOM      2  O   UNL     1      -0.231  -6.050  -3.527  0.00  0.00    -0.275 OA
ATOM      3  N   UNL     1      -0.329  -8.161  -2.852  0.00  0.00    -0.291 N 
ATOM      4  C   UNL     1      -0.351  -9.223  -1.835  0.00  0.00    +0.092 C 
ATOM      5  C   UNL     1      -0.497 -10.567  -2.579  0.00  0.00    -0.055 C 
ATOM      6  C   UNL     1      -1.118 -10.147  -3.938  0.00  0.00    +0.017 C 
ATOM      7  C   UNL     1      -0.433  -8.782  -4.186  0.00  0.00    +0.160 C 
ENDROOT
BRANCH   7   8
ATOM      8  C   UNL     1      -1.278  -7.928  -5.097  0.00  0.00    +0.234 C 
ATOM      9  O   UNL     1      -2.023  -7.094  -4.628  0.00  0.00    -0.274 OA
ATOM     10  N   UNL     1      -1.205  -8.092  -6.432  0.00  0.00    -0.311 N 
ATOM     11  H   UNL     1      -0.609  -8.759  -6.808  0.00  0.00    +0.149 HD
BRANCH  10  12
ATOM     12  C   UNL     1      -2.026  -7.263  -7.318  0.00  0.00    +0.067 C 
ATOM     13  C   UNL     1      -1.307  -5.940  -7.589  0.00  0.00    +0.027 C 
ATOM     14  C   UNL     1      -2.254  -7.999  -8.640  0.00  0.00    +0.027 C 
ENDBRANCH  10  12
ENDBRANCH   7   8
BRANCH   5  15
ATOM     15  N   UNL     1      -1.398 -11.470  -1.850  0.00  0.00    +0.381 N 
ATOM     16  H   UNL     1      -2.301 -11.032  -1.747  0.00  0.00    -0.090 HD
ATOM     17  H   UNL     1      -1.499 -12.332  -2.364  0.00  0.00    -0.090 HD
ATOM     18  H   UNL     1      -1.012 -11.665  -0.938  0.00  0.00    -0.090 HD
ENDBRANCH   5  15
BRANCH   1  19
ATOM     19  C   UNL     1      -0.134  -6.343  -1.187  0.00  0.00    +0.192 C 
BRANCH  19  21
ATOM     20  N   UNL     1       0.059  -4.170  -0.021  0.00  0.00    -0.285 N 
ATOM     21  C   UNL     1      -0.040  -4.839  -1.187  0.00  0.00    +0.226 C 
ATOM     22  O   UNL     1      -0.054  -4.230  -2.236  0.00  0.00    -0.275 OA
ATOM     23  H   UNL     1       0.135  -4.658   0.814  0.00  0.00    +0.155 HD
BRANCH  20  28
ATOM     24  C   UNL     1       0.025   1.503   0.005  0.00  0.00    +0.044 C 
ATOM     25  C   UNL     1       0.034  -0.004  -0.002  0.00  0.00    -0.050 A 
ATOM     26  C   UNL     1       0.632  -0.685  -1.046  0.00  0.00    +0.005 A 
ATOM     27  C   UNL     1       0.641  -2.066  -1.055  0.00  0.00    +0.024 A 
ATOM     28  C   UNL     1       0.051  -2.771  -0.014  0.00  0.00    +0.036 A 
ATOM     29  C   UNL     1      -0.548  -2.083   1.033  0.00  0.00    -0.029 A 
ATOM     30  C   UNL     1      -0.550  -0.702   1.039  0.00  0.00    +0.008 A 
ATOM     31  C   UNL     1      -1.190  -2.843   2.165  0.00  0.00    +0.045 C 
ENDBRANCH  20  28
ENDBRANCH  19  21
ENDBRANCH   1  19
TORSDOF 6
