REMARK  Name = ZINC13831093
REMARK  4 active torsions:
REMARK  status: ('A' for Active; 'I' for Inactive)
REMARK    1  A    between atoms: C_6  and  C_7
REMARK    2  A    between atoms: C_10  and  C_24
REMARK    3  A    between atoms: C_13  and  C_15
REMARK    4  A    between atoms: C_29  and  O_30
REMARK                            x       y       z     vdW  Elec       q    Type
REMARK                         _______ _______ _______ _____ _____    ______ ____
ROOT
ATOM      1  C   UNL     1      -1.293  -0.775   0.010  0.00  0.00    +0.081 C 
ATOM      2  N   UNL     1      -1.097  -2.055  -0.677  0.00  0.00    +0.401 N 
ATOM      3  C   UNL     1      -0.860  -1.798  -2.108  0.00  0.00    -0.028 C 
ATOM      4  C   UNL     1      -2.160  -1.273  -2.724  0.00  0.00    +0.044 C 
ATOM      5  C   UNL     1      -2.720  -0.183  -1.852  0.00  0.00    +0.040 C 
ATOM      6  N   UNL     1      -2.325   0.015  -0.650  0.00  0.00    -0.299 NA
ATOM      7  H   UNL     1      -0.300  -2.532  -0.283  0.00  0.00    -0.081 HD
ATOM      8  H   UNL     1      -1.921  -2.627  -0.569  0.00  0.00    -0.081 HD
ENDROOT
BRANCH   5   9
ATOM      9  C   UNL     1      -3.768   0.695  -2.405  0.00  0.00    -0.001 A 
ATOM     10  C   UNL     1      -4.226   0.503  -3.711  0.00  0.00    +0.013 A 
ATOM     11  C   UNL     1      -5.205   1.324  -4.226  0.00  0.00    +0.050 A 
ATOM     12  C   UNL     1      -5.740   2.345  -3.451  0.00  0.00    +0.166 A 
ATOM     13  C   UNL     1      -5.287   2.542  -2.146  0.00  0.00    +0.167 A 
ATOM     14  C   UNL     1      -4.309   1.718  -1.622  0.00  0.00    +0.059 A 
ATOM     15  O   UNL     1      -5.965   3.597  -1.605  0.00  0.00    -0.453 OA
ATOM     16  C   UNL     1      -6.540   4.298  -2.723  0.00  0.00    +0.466 C 
ATOM     17  O   UNL     1      -6.699   3.275  -3.723  0.00  0.00    -0.453 OA
ENDBRANCH   5   9
BRANCH   1  23
ATOM     18  C   UNL     1      -0.017   1.378   0.010  0.00  0.00    +0.006 A 
ATOM     19  C   UNL     1       1.170   2.086   0.002  0.00  0.00    +0.040 A 
ATOM     20  C   UNL     1       2.379   1.411  -0.013  0.00  0.00    +0.137 A 
ATOM     21  C   UNL     1       2.397   0.026  -0.021  0.00  0.00    +0.053 A 
ATOM     22  C   UNL     1       1.208  -0.680  -0.013  0.00  0.00    +0.022 A 
ATOM     23  C   UNL     1       0.002  -0.004   0.002  0.00  0.00    -0.039 A 
ATOM     24 BR   UNL     1       4.046  -0.899  -0.042  0.00  0.00    -0.047 Br
ATOM     25  F   UNL     1       3.539   2.103  -0.021  0.00  0.00    -0.204 F 
ENDBRANCH   1  23
BRANCH   3  26
ATOM     26  C   UNL     1      -0.452  -3.077  -2.793  0.00  0.00    -0.018 A 
ATOM     27  C   UNL     1      -0.835  -4.296  -2.267  0.00  0.00    +0.025 A 
ATOM     28  C   UNL     1      -0.461  -5.470  -2.896  0.00  0.00    +0.041 A 
ATOM     29  C   UNL     1       0.298  -5.426  -4.053  0.00  0.00    +0.023 A 
ATOM     30  C   UNL     1       0.683  -4.209  -4.581  0.00  0.00    +0.047 A 
ATOM     31  C   UNL     1       0.304  -3.031  -3.955  0.00  0.00    +0.119 A 
ATOM     32 CL   UNL     1      -0.943  -7.000  -2.233  0.00  0.00    -0.084 Cl
BRANCH  31  33
ATOM     33  O   UNL     1       0.677  -1.832  -4.477  0.00  0.00    -0.507 OA
ATOM     34  H   UNL     1       1.526  -1.506  -4.147  0.00  0.00    +0.292 HD
ENDBRANCH  31  33
ENDBRANCH   3  26
TORSDOF 4
