REMARK  Name = ZINC08623493
REMARK  11 active torsions:
REMARK  status: ('A' for Active; 'I' for Inactive)
REMARK    1  A    between atoms: C_1  and  C_2
REMARK    2  A    between atoms: C_2  and  C_3
REMARK    3  A    between atoms: C_3  and  C_4
REMARK    4  A    between atoms: C_3  and  C_6
REMARK    5  A    between atoms: C_4  and  C_5
REMARK    6  A    between atoms: C_8  and  C_18
REMARK    7  A    between atoms: C_10  and  C_12
REMARK    8  A    between atoms: C_26  and  C_28
REMARK    9  A    between atoms: C_28  and  O_29
REMARK   10  A    between atoms: O_29  and  C_30
REMARK   11  A    between atoms: N_32  and  C_33
REMARK                            x       y       z     vdW  Elec       q    Type
REMARK                         _______ _______ _______ _____ _____    ______ ____
ROOT
ATOM      1  C   UNL     1      -2.723  -0.707  -2.483  0.00  0.00    +0.024 C 
ATOM      2  C   UNL     1      -3.250  -0.454  -1.068  0.00  0.00    -0.068 C 
ATOM      3  C   UNL     1      -3.802   1.838  -1.623  0.00  0.00    -0.078 C 
ATOM      4  C   UNL     1      -3.291   1.651  -3.055  0.00  0.00    -0.015 C 
ATOM      5  C   UNL     1      -2.167   0.607  -3.047  0.00  0.00    -0.007 C 
ATOM      6  C   UNL     1      -1.047   1.101  -2.123  0.00  0.00    -0.008 C 
ATOM      7  C   UNL     1      -1.620   1.304  -0.717  0.00  0.00    -0.030 C 
ATOM      8  N   UNL     1      -3.059   0.963  -0.692  0.00  0.00    +0.384 N 
ATOM      9  H   UNL     1      -3.418   1.107   0.259  0.00  0.00    -0.081 HD
ENDROOT
BRANCH   1  12
ATOM     10  C   UNL     1       0.330  -2.751  -3.351  0.00  0.00    +0.048 A 
ATOM     11  C   UNL     1      -0.662  -1.785  -3.432  0.00  0.00    +0.047 A 
ATOM     12  C   UNL     1      -1.627  -1.740  -2.437  0.00  0.00    +0.047 A 
ATOM     13  N   UNL     1      -1.571  -2.611  -1.444  0.00  0.00    -0.232 NA
ATOM     14  C   UNL     1      -0.612  -3.526  -1.399  0.00  0.00    +0.160 A 
ATOM     15  N   UNL     1       0.325  -3.596  -2.334  0.00  0.00    -0.232 NA
BRANCH  14  16
ATOM     16  C   UNL     1      -0.585  -4.491  -0.272  0.00  0.00    +0.022 A 
ATOM     17  C   UNL     1      -1.552  -4.445   0.736  0.00  0.00    +0.031 A 
ATOM     18  C   UNL     1      -1.492  -5.365   1.764  0.00  0.00    +0.111 A 
ATOM     19  N   UNL     1      -0.533  -6.270   1.807  0.00  0.00    -0.263 NA
ATOM     20  C   UNL     1       0.401  -6.343   0.879  0.00  0.00    +0.111 A 
ATOM     21  C   UNL     1       0.412  -5.466  -0.186  0.00  0.00    +0.031 A 
ENDBRANCH  14  16
BRANCH  10  22
ATOM     22  C   UNL     1       1.399  -2.838  -4.409  0.00  0.00    +0.037 C 
BRANCH  22  24
ATOM     23  C   UNL     1       2.029  -3.910  -6.576  0.00  0.00    +0.004 C 
ATOM     24  C   UNL     1       0.888  -3.672  -5.584  0.00  0.00    +0.006 C 
ENDBRANCH  22  24
BRANCH  22  25
ATOM     25  C   UNL     1       1.749  -1.430  -4.897  0.00  0.00    +0.006 C 
ATOM     26  C   UNL     1       2.414  -0.648  -3.763  0.00  0.00    +0.004 C 
ENDBRANCH  22  25
ENDBRANCH  10  22
ENDBRANCH   1  12
BRANCH   7  27
ATOM     27  C   UNL     1      -0.878   0.402   0.272  0.00  0.00    +0.219 C 
BRANCH  27  28
ATOM     28  O   UNL     1      -1.361   0.658   1.617  0.00  0.00    -0.452 OA
BRANCH  28  29
ATOM     29  C   UNL     1      -0.738   0.014   2.623  0.00  0.00    +0.405 C 
ATOM     30  O   UNL     1       0.241  -0.668   2.393  0.00  0.00    -0.226 OA
ATOM     31  N   UNL     1      -1.202   0.126   3.883  0.00  0.00    -0.248 N 
ATOM     32  H   UNL     1      -2.036   0.591   4.054  0.00  0.00    +0.158 HD
BRANCH  31  33
ATOM     33  C   UNL     1      -0.478  -0.429   4.948  0.00  0.00    +0.072 A 
ATOM     34  C   UNL     1       0.854  -0.780   4.775  0.00  0.00    +0.029 A 
ATOM     35  C   UNL     1       1.565  -1.327   5.825  0.00  0.00    +0.040 A 
ATOM     36  C   UNL     1       0.952  -1.525   7.051  0.00  0.00    +0.126 A 
ATOM     37  C   UNL     1      -0.376  -1.175   7.227  0.00  0.00    +0.078 A 
ATOM     38  C   UNL     1      -1.091  -0.622   6.180  0.00  0.00    +0.147 A 
ATOM     39  F   UNL     1      -2.385  -0.276   6.354  0.00  0.00    -0.203 F 
ATOM     40  F   UNL     1       1.651  -2.060   8.075  0.00  0.00    -0.205 F 
ENDBRANCH  31  33
ENDBRANCH  28  29
ENDBRANCH  27  28
ENDBRANCH   7  27
TORSDOF 9
