REMARK  Name = ZINC40060466
REMARK  7 active torsions:
REMARK  status: ('A' for Active; 'I' for Inactive)
REMARK    1  A    between atoms: C_3  and  C_6
REMARK    2  A    between atoms: C_8  and  C_19
REMARK    3  A    between atoms: N_10  and  C_11
REMARK    4  A    between atoms: N_21  and  C_22
REMARK    5  A    between atoms: C_25  and  O_28
REMARK    6  A    between atoms: O_28  and  C_29
REMARK    7  A    between atoms: C_29  and  C_30
REMARK                            x       y       z     vdW  Elec       q    Type
REMARK                         _______ _______ _______ _____ _____    ______ ____
ROOT
ATOM      1  C   UNL     1       3.363   1.731  -0.252  0.00  0.00    +0.082 A 
ATOM      2  C   UNL     1       3.697   3.053  -0.331  0.00  0.00    +0.063 A 
ATOM      3  C   UNL     1       5.091   3.153  -0.167  0.00  0.00    +0.148 A 
ATOM      4  N   UNL     1       5.578   1.938   0.004  0.00  0.00    -0.161 NA
ATOM      5  N   UNL     1       4.516   1.026  -0.038  0.00  0.00    -0.231 N 
ENDROOT
BRANCH   5   6
ATOM      6  C   UNL     1       4.617  -0.363   0.108  0.00  0.00    +0.069 A 
ATOM      7  C   UNL     1       3.932  -1.206  -0.757  0.00  0.00    +0.048 A 
ATOM      8  C   UNL     1       4.034  -2.576  -0.610  0.00  0.00    +0.044 A 
ATOM      9  C   UNL     1       4.817  -3.109   0.399  0.00  0.00    +0.040 A 
ATOM     10  C   UNL     1       5.500  -2.271   1.263  0.00  0.00    +0.044 A 
ATOM     11  C   UNL     1       5.407  -0.900   1.117  0.00  0.00    +0.048 A 
ATOM     12 CL   UNL     1       6.482  -2.944   2.527  0.00  0.00    -0.083 Cl
ATOM     13 CL   UNL     1       3.177  -3.630  -1.691  0.00  0.00    -0.083 Cl
ENDBRANCH   5   6
BRANCH   1  16
ATOM     14  C   UNL     1      -0.287   1.001  -0.918  0.00  0.00    +0.008 A 
ATOM     15  C   UNL     1       0.883   1.726  -0.924  0.00  0.00    +0.017 A 
ATOM     16  C   UNL     1       2.006   1.168  -0.369  0.00  0.00    +0.038 A 
ATOM     17  S   UNL     1       1.397  -0.420   0.175  0.00  0.00    -0.095 S 
ATOM     18  C   UNL     1      -0.295  -0.240  -0.366  0.00  0.00    +0.046 A 
ENDBRANCH   1  16
BRANCH   3  19
ATOM     19  C   UNL     1       5.876   4.404  -0.184  0.00  0.00    +0.268 C 
ATOM     20  O   UNL     1       5.317   5.471  -0.352  0.00  0.00    -0.268 OA
ATOM     21  N   UNL     1       7.213   4.364  -0.015  0.00  0.00    -0.280 N 
ATOM     22  H   UNL     1       7.668   3.510   0.044  0.00  0.00    +0.155 HD
BRANCH  21  23
ATOM     23  C   UNL     1       7.943   5.555   0.076  0.00  0.00    +0.034 A 
ATOM     24  C   UNL     1       9.236   5.618  -0.428  0.00  0.00    +0.027 A 
ATOM     25  C   UNL     1       9.956   6.793  -0.337  0.00  0.00    +0.047 A 
ATOM     26  C   UNL     1       9.388   7.910   0.257  0.00  0.00    +0.121 A 
ATOM     27  C   UNL     1       8.097   7.848   0.761  0.00  0.00    +0.047 A 
ATOM     28  C   UNL     1       7.374   6.676   0.665  0.00  0.00    +0.027 A 
BRANCH  26  29
ATOM     29  O   UNL     1      10.098   9.067   0.346  0.00  0.00    -0.483 OA
BRANCH  29  30
ATOM     30  C   UNL     1       9.451  10.178   0.970  0.00  0.00    +0.324 C 
BRANCH  30  31
ATOM     31  C   UNL     1      10.384  11.362   0.978  0.00  0.00    +0.248 C 
ATOM     32  O   UNL     1      11.492  11.264   0.496  0.00  0.00    -0.272 OA
ATOM     33  N   UNL     1       9.985  12.530   1.520  0.00  0.00    -0.327 N 
ATOM     34  H   UNL     1       9.099  12.608   1.905  0.00  0.00    +0.145 HD
ATOM     35  H   UNL     1      10.585  13.292   1.525  0.00  0.00    +0.145 HD
ENDBRANCH  30  31
ENDBRANCH  29  30
ENDBRANCH  26  29
ENDBRANCH  21  23
ENDBRANCH   3  19
TORSDOF 7
