REMARK  Name = ZINC38546334
REMARK  10 active torsions:
REMARK  status: ('A' for Active; 'I' for Inactive)
REMARK    1  A    between atoms: C_1  and  C_2
REMARK    2  A    between atoms: N_5  and  C_8
REMARK    3  A    between atoms: C_8  and  C_10
REMARK    4  A    between atoms: C_8  and  C_20
REMARK    5  A    between atoms: C_13  and  O_18
REMARK    6  A    between atoms: C_15  and  O_16
REMARK    7  A    between atoms: O_16  and  C_17
REMARK    8  A    between atoms: O_18  and  C_19
REMARK    9  A    between atoms: C_24  and  N_25
REMARK   10  A    between atoms: C_26  and  C_28
REMARK                            x       y       z     vdW  Elec       q    Type
REMARK                         _______ _______ _______ _____ _____    ______ ____
ROOT
ATOM      1  C   UNL     1       1.698  -3.880   0.002  0.00  0.00    -0.001 C 
ENDROOT
BRANCH   1   2
ATOM      2  C   UNL     1       2.447  -4.557   1.121  0.00  0.00    -0.025 A 
ATOM      3  C   UNL     1       1.928  -5.708   1.714  0.00  0.00    -0.033 A 
ATOM      4  C   UNL     1       2.661  -6.260   2.717  0.00  0.00    -0.005 A 
ATOM      5  S   UNL     1       4.072  -5.196   2.849  0.00  0.00    -0.078 S 
ATOM      6  C   UNL     1       3.632  -4.049   1.552  0.00  0.00    +0.074 A 
ATOM      7  C   UNL     1       2.338  -7.482   3.515  0.00  0.00    +0.043 C 
ATOM      8  C   UNL     1       0.860  -7.832   3.287  0.00  0.00    +0.005 C 
ATOM      9  C   UNL     1       0.573  -7.789   1.783  0.00  0.00    +0.005 C 
ATOM     10  C   UNL     1       0.609  -6.344   1.284  0.00  0.00    +0.036 C 
BRANCH   6  11
ATOM     11  N   UNL     1       4.325  -2.924   1.099  0.00  0.00    -0.273 N 
ATOM     12  C   UNL     1       5.436  -2.514   1.741  0.00  0.00    +0.284 C 
ATOM     13  O   UNL     1       5.837  -3.124   2.715  0.00  0.00    -0.266 OA
ATOM     14  H   UNL     1       4.005  -2.438   0.323  0.00  0.00    +0.156 HD
BRANCH  12  15
ATOM     15  C   UNL     1       6.163  -1.333   1.266  0.00  0.00    +0.189 A 
ATOM     16  C   UNL     1       7.301  -0.815   1.817  0.00  0.00    +0.054 A 
ATOM     17  C   UNL     1       7.648   0.306   1.046  0.00  0.00    +0.042 A 
ATOM     18  C   UNL     1       6.719   0.422   0.072  0.00  0.00    +0.196 A 
ATOM     19  O   UNL     1       5.829  -0.570   0.204  0.00  0.00    -0.458 OA
ENDBRANCH  12  15
ENDBRANCH   6  11
ENDBRANCH   1   2
BRANCH   1  24
ATOM     20  C   UNL     1       0.089   1.460   1.193  0.00  0.00    +0.007 C 
ATOM     21  C   UNL     1       0.080  -0.043   0.905  0.00  0.00    -0.018 C 
ATOM     22  C   UNL     1       0.674  -0.302  -0.482  0.00  0.00    -0.015 C 
ATOM     23  C   UNL     1       0.735  -1.811  -0.731  0.00  0.00    -0.077 C 
ATOM     24  N   UNL     1       1.579  -2.445   0.289  0.00  0.00    +0.387 N 
ATOM     25  C   UNL     1       0.978  -2.262   1.616  0.00  0.00    -0.077 C 
ATOM     26  C   UNL     1       0.926  -0.770   1.955  0.00  0.00    -0.015 C 
ATOM     27  H   UNL     1       2.495  -2.024   0.276  0.00  0.00    -0.080 HD
ENDBRANCH   1  24
BRANCH   1  28
ATOM     28  C   UNL     1       2.447  -4.073  -1.292  0.00  0.00    -0.015 A 
ATOM     29  C   UNL     1       3.237  -3.054  -1.791  0.00  0.00    +0.009 A 
ATOM     30  C   UNL     1       3.924  -3.227  -2.976  0.00  0.00    +0.046 A 
ATOM     31  C   UNL     1       3.824  -4.425  -3.670  0.00  0.00    +0.124 A 
ATOM     32  C   UNL     1       3.032  -5.448  -3.172  0.00  0.00    +0.091 A 
ATOM     33  C   UNL     1       2.347  -5.274  -1.979  0.00  0.00    +0.125 A 
BRANCH  33  34
ATOM     34  O   UNL     1       1.575  -6.278  -1.485  0.00  0.00    -0.495 OA
ATOM     35  C   UNL     1       1.519  -7.487  -2.244  0.00  0.00    +0.277 C 
ENDBRANCH  33  34
BRANCH  31  36
ATOM     36  O   UNL     1       4.500  -4.595  -4.836  0.00  0.00    -0.495 OA
ATOM     37  C   UNL     1       5.296  -3.498  -5.290  0.00  0.00    +0.277 C 
ENDBRANCH  31  36
ENDBRANCH   1  28
TORSDOF 7
