REMARK  Name = ZINC19312328
REMARK  8 active torsions:
REMARK  status: ('A' for Active; 'I' for Inactive)
REMARK    1  A    between atoms: C_1  and  C_2
REMARK    2  A    between atoms: C_3  and  C_32
REMARK    3  A    between atoms: C_5  and  N_24
REMARK    4  A    between atoms: C_6  and  C_7
REMARK    5  A    between atoms: C_7  and  C_9
REMARK    6  A    between atoms: C_7  and  N_17
REMARK    7  A    between atoms: N_20  and  C_23
REMARK    8  A    between atoms: C_25  and  C_27
REMARK                            x       y       z     vdW  Elec       q    Type
REMARK                         _______ _______ _______ _____ _____    ______ ____
ROOT
ATOM      1  C   UNL     1       3.087  -0.812   0.744  0.00  0.00    +0.121 C 
ENDROOT
BRANCH   1   2
ATOM      2  C   UNL     1       1.939  -0.270   1.556  0.00  0.00    -0.006 A 
ATOM      3  C   UNL     1       1.832   1.090   1.780  0.00  0.00    +0.007 A 
ATOM      4  C   UNL     1       0.779   1.587   2.525  0.00  0.00    +0.002 A 
ATOM      5  C   UNL     1      -0.167   0.726   3.048  0.00  0.00    +0.021 A 
ATOM      6  C   UNL     1      -0.061  -0.635   2.825  0.00  0.00    +0.060 A 
ATOM      7  C   UNL     1       0.993  -1.134   2.079  0.00  0.00    +0.064 A 
ATOM      8 CL   UNL     1       1.127  -2.842   1.798  0.00  0.00    -0.082 Cl
ATOM      9 CL   UNL     1      -1.249  -1.718   3.482  0.00  0.00    -0.082 Cl
ENDBRANCH   1   2
BRANCH   1  10
ATOM     10  N   UNL     1       3.635   0.256  -0.103  0.00  0.00    -0.295 NA
ATOM     11  C   UNL     1       2.642   0.708  -1.088  0.00  0.00    +0.067 C 
ATOM     12  C   UNL     1       3.222   1.871  -1.895  0.00  0.00    -0.064 C 
ATOM     13  N   UNL     1       4.458   1.435  -2.560  0.00  0.00    +0.379 N 
ATOM     14  C   UNL     1       5.451   0.983  -1.575  0.00  0.00    -0.064 C 
ATOM     15  C   UNL     1       4.871  -0.180  -0.767  0.00  0.00    +0.067 C 
ATOM     16  C   UNL     1       5.006   2.503  -3.407  0.00  0.00    -0.096 C 
ATOM     17  H   UNL     1       4.212   0.582  -3.210  0.00  0.00    -0.082 HD
ENDBRANCH   1  10
BRANCH   1  23
ATOM     18  C   UNL     1       4.681   1.047   2.324  0.00  0.00    +0.045 C 
ATOM     19  C   UNL     1       4.919  -0.438   2.421  0.00  0.00    -0.034 A 
ATOM     20  C   UNL     1       5.873  -0.928   3.248  0.00  0.00    -0.008 A 
ATOM     21  S   UNL     1       5.737  -2.687   2.974  0.00  0.00    -0.078 S 
ATOM     22  C   UNL     1       4.410  -2.655   1.780  0.00  0.00    +0.078 A 
ATOM     23  C   UNL     1       4.162  -1.320   1.671  0.00  0.00    +0.006 A 
ATOM     24  C   UNL     1       6.813  -0.181   4.159  0.00  0.00    +0.052 C 
BRANCH  22  25
ATOM     25  N   UNL     1       3.788  -3.721   1.127  0.00  0.00    -0.273 N 
ATOM     26  C   UNL     1       4.102  -4.989   1.459  0.00  0.00    +0.284 C 
ATOM     27  O   UNL     1       4.928  -5.205   2.326  0.00  0.00    -0.266 OA
ATOM     28  H   UNL     1       3.042  -3.526   0.343  0.00  0.00    +0.156 HD
BRANCH  26  29
ATOM     29  C   UNL     1       3.450  -6.109   0.773  0.00  0.00    +0.189 A 
ATOM     30  C   UNL     1       3.674  -7.436   1.010  0.00  0.00    +0.054 A 
ATOM     31  C   UNL     1       2.839  -8.148   0.135  0.00  0.00    +0.042 A 
ATOM     32  C   UNL     1       2.151  -7.237  -0.589  0.00  0.00    +0.196 A 
ATOM     33  O   UNL     1       2.518  -6.010  -0.197  0.00  0.00    -0.458 OA
ENDBRANCH  26  29
ENDBRANCH  22  25
ENDBRANCH   1  23
TORSDOF 5
