REMARK  Name = ZINC00898438
REMARK  7 active torsions:
REMARK  status: ('A' for Active; 'I' for Inactive)
REMARK    1  A    between atoms: C_1  and  N_2
REMARK    2  A    between atoms: C_7  and  O_24
REMARK    3  A    between atoms: C_8  and  O_23
REMARK    4  A    between atoms: C_17  and  O_22
REMARK    5  A    between atoms: C_18  and  O_20
REMARK    6  A    between atoms: O_20  and  C_21
REMARK    7  A    between atoms: O_24  and  C_25
REMARK                            x       y       z     vdW  Elec       q    Type
REMARK                         _______ _______ _______ _____ _____    ______ ____
ROOT
ATOM      1  C   UNL     1       0.623   1.516  -0.042  0.00  0.00    -0.095 C 
ATOM      2  N   UNL     1       0.421   0.062  -0.013  0.00  0.00    +0.383 N 
ATOM      3  C   UNL     1       0.913  -0.523  -1.261  0.00  0.00    -0.074 C 
ATOM      4  C   UNL     1       0.547  -1.996  -1.349  0.00  0.00    +0.017 C 
ATOM      5  C   UNL     1       0.679  -2.692  -0.024  0.00  0.00    -0.043 A 
ATOM      6  C   UNL     1       0.518  -4.072   0.011  0.00  0.00    +0.053 A 
ATOM      7  C   UNL     1       0.652  -4.772   1.196  0.00  0.00    +0.162 A 
ATOM      8  C   UNL     1       0.947  -4.090   2.371  0.00  0.00    +0.167 A 
ATOM      9  C   UNL     1       1.088  -2.704   2.342  0.00  0.00    +0.029 A 
ATOM     10  C   UNL     1       0.960  -2.006   1.138  0.00  0.00    -0.046 A 
ATOM     11  C   UNL     1       1.154  -0.512   1.124  0.00  0.00    -0.033 C 
ATOM     12  C   UNL     1       0.632   0.119   2.413  0.00  0.00    +0.025 C 
ATOM     13  C   UNL     1       1.196  -0.580   3.619  0.00  0.00    -0.037 A 
ATOM     14  C   UNL     1       1.401  -1.958   3.584  0.00  0.00    -0.007 A 
ATOM     15  C   UNL     1       1.896  -2.619   4.704  0.00  0.00    +0.058 A 
ATOM     16  C   UNL     1       2.199  -1.901   5.848  0.00  0.00    +0.159 A 
ATOM     17  C   UNL     1       2.008  -0.522   5.873  0.00  0.00    +0.162 A 
ATOM     18  C   UNL     1       1.508   0.134   4.758  0.00  0.00    +0.053 A 
ATOM     19  H   UNL     1      -0.563  -0.138   0.086  0.00  0.00    -0.081 HD
ENDROOT
BRANCH  17  20
ATOM     20  O   UNL     1       2.315   0.185   6.994  0.00  0.00    -0.491 OA
ATOM     21  C   UNL     1       2.095   1.596   6.952  0.00  0.00    +0.277 C 
ENDBRANCH  17  20
BRANCH  16  22
ATOM     22  O   UNL     1       2.681  -2.541   6.946  0.00  0.00    -0.503 OA
ATOM     23  H   UNL     1       3.645  -2.608   6.971  0.00  0.00    +0.292 HD
ENDBRANCH  16  22
BRANCH   8  24
ATOM     24  O   UNL     1       1.097  -4.769   3.539  0.00  0.00    -0.503 OA
ATOM     25  H   UNL     1       0.266  -4.943   4.002  0.00  0.00    +0.292 HD
ENDBRANCH   8  24
BRANCH   7  26
ATOM     26  O   UNL     1       0.494  -6.123   1.213  0.00  0.00    -0.491 OA
ATOM     27  C   UNL     1       0.192  -6.756  -0.032  0.00  0.00    +0.277 C 
ENDBRANCH   7  26
TORSDOF 4
