REMARK  Name = ZINC60413206
REMARK  8 active torsions:
REMARK  status: ('A' for Active; 'I' for Inactive)
REMARK    1  A    between atoms: C_1  and  C_2
REMARK    2  A    between atoms: C_4  and  C_23
REMARK    3  A    between atoms: C_7  and  N_8
REMARK    4  A    between atoms: C_9  and  C_11
REMARK    5  A    between atoms: C_12  and  C_13
REMARK    6  A    between atoms: C_16  and  S_19
REMARK    7  A    between atoms: S_19  and  N_22
REMARK    8  A    between atoms: N_25  and  C_26
REMARK                            x       y       z     vdW  Elec       q    Type
REMARK                         _______ _______ _______ _____ _____    ______ ____
ROOT
ATOM      1  N   UNL     1       0.025  -0.013   2.413  0.00  0.00    -0.282 N 
ATOM      2  C   UNL     1      -0.057  -0.689   3.576  0.00  0.00    +0.241 C 
ATOM      3  O   UNL     1      -0.040  -1.906   3.575  0.00  0.00    -0.270 OA
ATOM      4  H   UNL     1       0.078   0.955   2.417  0.00  0.00    +0.155 HD
ENDROOT
BRANCH   1  11
ATOM      5  C   UNL     1      -1.270   1.182   0.184  0.00  0.00    +0.045 C 
ATOM      6  C   UNL     1      -0.589  -0.159   0.086  0.00  0.00    -0.029 A 
ATOM      7  C   UNL     1      -0.579  -0.839  -1.111  0.00  0.00    +0.018 A 
ATOM      8  C   UNL     1       0.053  -2.082  -1.202  0.00  0.00    +0.037 A 
ATOM      9  C   UNL     1       0.672  -2.631  -0.075  0.00  0.00    +0.015 A 
ATOM     10  C   UNL     1       0.658  -1.946   1.119  0.00  0.00    +0.024 A 
ATOM     11  C   UNL     1       0.033  -0.706   1.204  0.00  0.00    +0.037 A 
BRANCH   8  12
ATOM     12  C   UNL     1       0.066  -2.813  -2.483  0.00  0.00    +0.244 C 
ATOM     13  O   UNL     1      -0.473  -2.334  -3.462  0.00  0.00    -0.270 OA
ATOM     14  N   UNL     1       0.676  -4.012  -2.569  0.00  0.00    -0.314 N 
ATOM     15  C   UNL     1       0.688  -4.739  -3.841  0.00  0.00    +0.128 C 
ATOM     16  H   UNL     1       1.106  -4.394  -1.788  0.00  0.00    +0.149 HD
ENDBRANCH   8  12
ENDBRANCH   1  11
BRANCH   2  17
ATOM     17  C   UNL     1      -0.166   0.041   4.840  0.00  0.00    +0.068 C 
ATOM     18  C   UNL     1      -0.247  -0.634   6.004  0.00  0.00    +0.013 C 
BRANCH  18  19
ATOM     19  C   UNL     1      -0.357   0.100   7.275  0.00  0.00    -0.025 A 
ATOM     20  C   UNL     1      -0.382   1.498   7.279  0.00  0.00    +0.010 A 
ATOM     21  C   UNL     1      -0.484   2.178   8.474  0.00  0.00    +0.029 A 
ATOM     22  C   UNL     1      -0.562   1.481   9.667  0.00  0.00    +0.105 A 
ATOM     23  C   UNL     1      -0.537   0.097   9.671  0.00  0.00    +0.029 A 
ATOM     24  C   UNL     1      -0.441  -0.598   8.484  0.00  0.00    +0.010 A 
BRANCH  22  25
ATOM     25  S   UNL     1      -0.692   2.360  11.189  0.00  0.00    +0.056 S 
ATOM     26  O   UNL     1      -0.200   1.493  12.202  0.00  0.00    -0.153 OA
ATOM     27  O   UNL     1      -0.145   3.651  10.960  0.00  0.00    -0.153 OA
BRANCH  25  28
ATOM     28  N   UNL     1      -2.305   2.576  11.493  0.00  0.00    -0.204 NA
ATOM     29  H   UNL     1      -2.966   2.234  10.870  0.00  0.00    +0.144 HD
ATOM     30  H   UNL     1      -2.590   3.044  12.294  0.00  0.00    +0.144 HD
ENDBRANCH  25  28
ENDBRANCH  22  25
ENDBRANCH  18  19
ENDBRANCH   2  17
TORSDOF 6
