REMARK  Name = ZINC05670501
REMARK  5 active torsions:
REMARK  status: ('A' for Active; 'I' for Inactive)
REMARK    1  A    between atoms: C_3  and  O_22
REMARK    2  A    between atoms: C_4  and  C_8
REMARK    3  A    between atoms: C_13  and  S_17
REMARK    4  A    between atoms: S_17  and  C_18
REMARK    5  A    between atoms: C_18  and  C_19
REMARK                            x       y       z     vdW  Elec       q    Type
REMARK                         _______ _______ _______ _____ _____    ______ ____
ROOT
ATOM      1  C   UNL     1       3.644  -0.659  -0.037  0.00  0.00    +0.030 C 
ATOM      2  C   UNL     1       3.667  -2.046   0.060  0.00  0.00    +0.106 C 
ATOM      3  C   UNL     1       2.428  -2.840   0.066  0.00  0.00    +0.285 C 
ATOM      4  O   UNL     1       1.229  -2.250  -0.023  0.00  0.00    -0.265 OA
ATOM      5  N   UNL     1       2.535  -4.161   0.162  0.00  0.00    -0.185 NA
ATOM      6  C   UNL     1       3.714  -4.759   0.249  0.00  0.00    +0.185 C 
ATOM      7  N   UNL     1       4.872  -4.115   0.250  0.00  0.00    -0.151 NA
ATOM      8  C   UNL     1       4.934  -2.791   0.155  0.00  0.00    +0.275 C 
ATOM      9  O   UNL     1       6.112  -2.154   0.152  0.00  0.00    -0.268 OA
ENDROOT
BRANCH   1  13
ATOM     10  C   UNL     1       0.011   1.405   0.312  0.00  0.00    +0.019 A 
ATOM     11  C   UNL     1       0.856   1.688  -0.743  0.00  0.00    +0.047 A 
ATOM     12  C   UNL     1       2.061   1.014  -0.872  0.00  0.00    +0.124 A 
ATOM     13  C   UNL     1       2.417   0.038   0.081  0.00  0.00    +0.018 A 
ATOM     14  C   UNL     1       1.546  -0.238   1.147  0.00  0.00    +0.026 A 
ATOM     15  C   UNL     1       0.356   0.445   1.253  0.00  0.00    +0.019 A 
ATOM     16 BR   UNL     1      -0.816   0.073   2.690  0.00  0.00    -0.050 Br
BRANCH  12  17
ATOM     17  O   UNL     1       2.890   1.292  -1.907  0.00  0.00    -0.506 OA
ATOM     18  H   UNL     1       3.530   1.993  -1.722  0.00  0.00    +0.292 HD
ENDBRANCH  12  17
ENDBRANCH   1  13
BRANCH   6  19
ATOM     19  S   UNL     1       3.744  -6.516   0.373  0.00  0.00    -0.079 S 
BRANCH  19  20
ATOM     20  C   UNL     1       5.510  -6.920   0.470  0.00  0.00    +0.172 C 
BRANCH  20  21
ATOM     21  C   UNL     1       5.678  -8.413   0.580  0.00  0.00    +0.221 C 
ATOM     22  O   UNL     1       4.704  -9.134   0.592  0.00  0.00    -0.275 OA
ATOM     23  N   UNL     1       6.913  -8.947   0.666  0.00  0.00    -0.329 N 
ATOM     24  H   UNL     1       7.693  -8.370   0.656  0.00  0.00    +0.145 HD
ATOM     25  H   UNL     1       7.022  -9.908   0.737  0.00  0.00    +0.145 HD
ENDBRANCH  20  21
ENDBRANCH  19  20
ENDBRANCH   6  19
TORSDOF 5
