REMARK  Name = ZINC02624278
REMARK  6 active torsions:
REMARK  status: ('A' for Active; 'I' for Inactive)
REMARK    1  A    between atoms: C_4  and  O_25
REMARK    2  A    between atoms: C_5  and  N_7
REMARK    3  A    between atoms: C_12  and  C_13
REMARK    4  A    between atoms: C_12  and  N_48
REMARK    5  A    between atoms: N_18  and  C_19
REMARK    6  A    between atoms: C_19  and  C_20
REMARK                            x       y       z     vdW  Elec       q    Type
REMARK                         _______ _______ _______ _____ _____    ______ ____
ROOT
ATOM      1  C   UNL     1       0.089   0.932   6.537  0.00  0.00    +0.019 C 
ENDROOT
BRANCH   1   2
ATOM      2  C   UNL     1      -1.143   0.567   7.323  0.00  0.00    +0.204 C 
ATOM      3  O   UNL     1      -1.898  -0.286   6.906  0.00  0.00    -0.277 OA
ATOM      4  N   UNL     1      -1.407   1.188   8.490  0.00  0.00    -0.242 N 
ATOM      5  C   UNL     1      -2.510   0.861   9.193  0.00  0.00    +0.306 C 
ATOM      6  O   UNL     1      -3.266   0.006   8.774  0.00  0.00    -0.252 OA
ATOM      7  N   UNL     1      -2.774   1.482  10.359  0.00  0.00    -0.292 N 
ATOM      8  H   UNL     1      -0.804   1.870   8.824  0.00  0.00    +0.159 HD
ATOM      9  H   UNL     1      -2.171   2.164  10.693  0.00  0.00    +0.151 HD
BRANCH   7  10
ATOM     10  C   UNL     1      -3.973   1.126  11.123  0.00  0.00    +0.180 C 
BRANCH  10  11
ATOM     11  C   UNL     1      -4.034   1.959  12.378  0.00  0.00    +0.122 A 
ATOM     12  C   UNL     1      -4.633   3.158  12.498  0.00  0.00    +0.046 A 
ATOM     13  C   UNL     1      -4.449   3.575  13.836  0.00  0.00    +0.041 A 
ATOM     14  C   UNL     1      -3.748   2.607  14.453  0.00  0.00    +0.195 A 
ATOM     15  O   UNL     1      -3.505   1.628  13.567  0.00  0.00    -0.466 OA
ENDBRANCH  10  11
ENDBRANCH   7  10
ENDBRANCH   1   2
BRANCH   1  21
ATOM     16  N   UNL     1       0.229   0.044   2.409  0.00  0.00    -0.331 N 
ATOM     17  C   UNL     1       1.330  -0.438   3.255  0.00  0.00    +0.086 C 
ATOM     18  C   UNL     1       1.362   0.370   4.555  0.00  0.00    -0.059 C 
ATOM     19  C   UNL     1      -1.029   0.714   4.400  0.00  0.00    -0.059 C 
ATOM     20  C   UNL     1      -1.060  -0.094   3.100  0.00  0.00    +0.086 C 
ATOM     21  N   UNL     1       0.068   0.205   5.250  0.00  0.00    +0.387 N 
ATOM     22  H   UNL     1      -0.087  -0.793   5.434  0.00  0.00    -0.081 HD
BRANCH  16  27
ATOM     23  C   UNL     1      -0.037  -2.646  -0.084  0.00  0.00    +0.002 A 
ATOM     24  C   UNL     1       0.180  -1.944  -1.255  0.00  0.00    +0.004 A 
ATOM     25  C   UNL     1       0.409  -0.581  -1.217  0.00  0.00    +0.047 A 
ATOM     26  C   UNL     1       0.432   0.083  -0.002  0.00  0.00    +0.138 A 
ATOM     27  C   UNL     1       0.213  -0.623   1.179  0.00  0.00    +0.072 A 
ATOM     28  C   UNL     1      -0.021  -1.990   1.132  0.00  0.00    +0.027 A 
BRANCH  26  29
ATOM     29  O   UNL     1       0.662   1.423   0.038  0.00  0.00    -0.505 OA
ATOM     30  H   UNL     1       1.596   1.659   0.120  0.00  0.00    +0.292 HD
ENDBRANCH  26  29
ENDBRANCH  16  27
ENDBRANCH   1  21
TORSDOF 6
