REMARK  Name = ZINC67342098
REMARK  6 active torsions:
REMARK  status: ('A' for Active; 'I' for Inactive)
REMARK    1  A    between atoms: C_1  and  C_2
REMARK    2  A    between atoms: C_6  and  C_17
REMARK    3  A    between atoms: N_8  and  C_9
REMARK    4  A    between atoms: N_19  and  C_20
REMARK    5  A    between atoms: C_27  and  C_30
REMARK    6  A    between atoms: C_30  and  O_31
REMARK                            x       y       z     vdW  Elec       q    Type
REMARK                         _______ _______ _______ _____ _____    ______ ____
ROOT
ATOM      1  C   UNL     1       1.126   1.210   0.232  0.00  0.00    +0.069 C 
ATOM      2  C   UNL     1       0.379  -0.090   0.084  0.00  0.00    +0.081 A 
ATOM      3  C   UNL     1       0.096  -0.583  -1.183  0.00  0.00    +0.159 A 
ATOM      4  C   UNL     1      -0.601  -1.801  -1.295  0.00  0.00    +0.027 A 
ATOM      5  C   UNL     1      -0.903  -2.341  -2.622  0.00  0.00    +0.030 A 
ATOM      6  C   UNL     1      -0.261  -1.770  -3.699  0.00  0.00    +0.098 A 
ATOM      7  C   UNL     1       0.677  -0.664  -3.418  0.00  0.00    +0.212 A 
ATOM      8  N   UNL     1       1.680  -0.408  -4.227  0.00  0.00    -0.325 N 
ATOM      9  O   UNL     1       0.474   0.081  -2.300  0.00  0.00    -0.437 OA
ATOM     10  C   UNL     1      -0.985  -2.464  -0.124  0.00  0.00    +0.007 A 
ATOM     11  C   UNL     1      -0.660  -1.896   1.090  0.00  0.00    +0.117 A 
ATOM     12  N   UNL     1       0.002  -0.755   1.157  0.00  0.00    -0.256 NA
ATOM     13  H   UNL     1       1.870  -1.004  -4.968  0.00  0.00    +0.169 HD
ENDROOT
BRANCH   8  14
ATOM     14  C   UNL     1       2.458   0.699  -4.024  0.00  0.00    +0.042 A 
ATOM     15  C   UNL     1       1.863   1.930  -3.734  0.00  0.00    +0.028 A 
ATOM     16  C   UNL     1       2.652   3.043  -3.531  0.00  0.00    +0.040 A 
ATOM     17  C   UNL     1       4.032   2.942  -3.614  0.00  0.00    +0.124 A 
ATOM     18  C   UNL     1       4.627   1.724  -3.901  0.00  0.00    +0.040 A 
ATOM     19  C   UNL     1       3.849   0.603  -4.100  0.00  0.00    +0.028 A 
ATOM     20  F   UNL     1       4.799   4.036  -3.413  0.00  0.00    -0.205 F 
ENDBRANCH   8  14
BRANCH   6  21
ATOM     21  C   UNL     1      -0.500  -2.242  -5.074  0.00  0.00    +0.253 C 
ATOM     22  O   UNL     1      -1.173  -3.237  -5.267  0.00  0.00    -0.270 OA
ATOM     23  N   UNL     1       0.026  -1.572  -6.118  0.00  0.00    -0.280 N 
ATOM     24  H   UNL     1       0.607  -0.811  -5.963  0.00  0.00    +0.155 HD
BRANCH  23  25
ATOM     25  C   UNL     1      -0.265  -1.974  -7.426  0.00  0.00    +0.052 A 
ATOM     26  C   UNL     1      -0.585  -3.299  -7.692  0.00  0.00    +0.025 A 
ATOM     27  C   UNL     1      -0.871  -3.693  -8.985  0.00  0.00    +0.002 A 
ATOM     28  C   UNL     1      -0.840  -2.769 -10.014  0.00  0.00    +0.002 A 
ATOM     29  C   UNL     1      -0.522  -1.449  -9.754  0.00  0.00    +0.022 A 
ATOM     30  C   UNL     1      -0.240  -1.047  -8.461  0.00  0.00    +0.062 A 
ATOM     31 CL   UNL     1       0.151   0.612  -8.133  0.00  0.00    -0.082 Cl
ENDBRANCH  23  25
ENDBRANCH   6  21
BRANCH  10  32
ATOM     32  C   UNL     1      -1.735  -3.769  -0.188  0.00  0.00    +0.193 C 
BRANCH  32  33
ATOM     33  O   UNL     1      -2.003  -4.231   1.138  0.00  0.00    -0.390 OA
ATOM     34  H   UNL     1      -2.485  -5.068   1.173  0.00  0.00    +0.210 HD
ENDBRANCH  32  33
ENDBRANCH  10  32
TORSDOF 5
