REMARK  Name = ZINC40853377
REMARK  8 active torsions:
REMARK  status: ('A' for Active; 'I' for Inactive)
REMARK    1  A    between atoms: C_1  and  C_2
REMARK    2  A    between atoms: C_2  and  C_3
REMARK    3  A    between atoms: C_3  and  C_4
REMARK    4  A    between atoms: C_4  and  C_5
REMARK    5  A    between atoms: C_5  and  C_7
REMARK    6  A    between atoms: C_5  and  N_22
REMARK    7  A    between atoms: N_9  and  C_10
REMARK    8  A    between atoms: C_11  and  C_20
REMARK                            x       y       z     vdW  Elec       q    Type
REMARK                         _______ _______ _______ _____ _____    ______ ____
ROOT
ATOM      1  C   UNL     1       1.369  -4.024  -2.595  0.00  0.00    +0.203 C 
ATOM      2  O   UNL     1       2.312  -4.702  -2.247  0.00  0.00    -0.277 OA
ATOM      3  N   UNL     1       0.243  -4.613  -3.045  0.00  0.00    -0.280 N 
ATOM      4  H   UNL     1      -0.511  -4.071  -3.323  0.00  0.00    +0.155 HD
ENDROOT
BRANCH   3   5
ATOM      5  C   UNL     1       0.164  -5.997  -3.110  0.00  0.00    +0.090 A 
ATOM      6  C   UNL     1      -0.899  -6.769  -3.546  0.00  0.00    +0.084 A 
ATOM      7  C   UNL     1      -0.734  -8.215  -3.516  0.00  0.00    -0.018 A 
ATOM      8  C   UNL     1       0.466  -8.619  -3.048  0.00  0.00    -0.004 A 
ATOM      9  S   UNL     1       1.336  -7.120  -2.684  0.00  0.00    -0.077 S 
ATOM     10  C   UNL     1       0.952 -10.024  -2.869  0.00  0.00    +0.043 C 
ATOM     11  C   UNL     1       0.681 -10.818  -4.154  0.00  0.00    +0.005 C 
ATOM     12  C   UNL     1      -0.710 -11.438  -4.058  0.00  0.00    +0.001 C 
ATOM     13  C   UNL     1      -1.643 -10.523  -3.268  0.00  0.00    +0.005 C 
ATOM     14  C   UNL     1      -1.809  -9.185  -3.982  0.00  0.00    +0.037 C 
BRANCH   6  15
ATOM     15  C   UNL     1      -2.114  -6.168  -4.008  0.00  0.00    +0.102 C 
ATOM     16  N   UNL     1      -3.078  -5.692  -4.375  0.00  0.00    -0.191 NA
ENDBRANCH   6  15
ENDBRANCH   3   5
BRANCH   1  17
ATOM     17  C   UNL     1       1.455  -2.521  -2.524  0.00  0.00    +0.013 C 
BRANCH  17  18
ATOM     18  N   UNL     1       2.866  -2.113  -2.476  0.00  0.00    +0.386 N 
ATOM     19  H   UNL     1       3.338  -2.439  -3.307  0.00  0.00    -0.089 HD
ATOM     20  H   UNL     1       2.924  -1.107  -2.429  0.00  0.00    -0.089 HD
ATOM     21  H   UNL     1       3.304  -2.514  -1.661  0.00  0.00    -0.089 HD
ENDBRANCH  17  18
BRANCH  17  22
ATOM     22  C   UNL     1       0.739  -2.027  -1.265  0.00  0.00    -0.007 C 
BRANCH  22  23
ATOM     23  C   UNL     1       0.718  -0.497  -1.257  0.00  0.00    -0.001 C 
BRANCH  23  25
ATOM     24  C   UNL     1      -0.019   1.526   0.010  0.00  0.00    +0.004 C 
ATOM     25  C   UNL     1       0.002  -0.004   0.002  0.00  0.00    -0.003 C 
ENDBRANCH  23  25
ENDBRANCH  22  23
ENDBRANCH  17  22
ENDBRANCH   1  17
TORSDOF 7
