REMARK  Name = ZINC39747543
REMARK  9 active torsions:
REMARK  status: ('A' for Active; 'I' for Inactive)
REMARK    1  A    between atoms: C_1  and  C_2
REMARK    2  A    between atoms: C_5  and  C_37
REMARK    3  A    between atoms: C_6  and  O_8
REMARK    4  A    between atoms: O_8  and  C_9
REMARK    5  A    between atoms: C_9  and  C_10
REMARK    6  A    between atoms: C_14  and  S_23
REMARK    7  A    between atoms: N_16  and  C_17
REMARK    8  A    between atoms: S_23  and  C_24
REMARK    9  A    between atoms: C_24  and  C_25
REMARK                            x       y       z     vdW  Elec       q    Type
REMARK                         _______ _______ _______ _____ _____    ______ ____
ROOT
ATOM      1  C   UNL     1       0.091  -3.023   4.569  0.00  0.00    +0.195 C 
ATOM      2  N   UNL     1       1.149  -4.067   4.559  0.00  0.00    -0.231 NA
ATOM      3  N   UNL     1       0.699  -5.004   5.600  0.00  0.00    -0.226 NA
ATOM      4  C   UNL     1      -0.774  -5.036   5.454  0.00  0.00    +0.217 C 
ATOM      5  N   UNL     1      -1.161  -3.772   4.799  0.00  0.00    -0.285 N 
ATOM      6  H   UNL     1       2.049  -3.673   4.791  0.00  0.00    +0.143 HD
ATOM      7  H   UNL     1       0.964  -4.679   6.518  0.00  0.00    +0.143 HD
ENDROOT
BRANCH   5   8
ATOM      8  C   UNL     1      -2.453  -3.364   4.461  0.00  0.00    +0.033 A 
ATOM      9  C   UNL     1      -3.177  -4.065   3.505  0.00  0.00    +0.023 A 
ATOM     10  C   UNL     1      -4.455  -3.660   3.173  0.00  0.00    +0.002 A 
ATOM     11  C   UNL     1      -5.014  -2.556   3.792  0.00  0.00    +0.000 A 
ATOM     12  C   UNL     1      -4.296  -1.856   4.744  0.00  0.00    +0.002 A 
ATOM     13  C   UNL     1      -3.020  -2.260   5.085  0.00  0.00    +0.023 A 
ENDBRANCH   5   8
BRANCH   1  14
ATOM     14  C   UNL     1       0.042  -2.299   3.222  0.00  0.00    +0.268 C 
BRANCH  14  15
ATOM     15  O   UNL     1      -0.060  -3.259   2.168  0.00  0.00    -0.488 OA
BRANCH  15  21
ATOM     16  C   UNL     1      -0.082   0.563  -0.868  0.00  0.00    +0.044 C 
ATOM     17  C   UNL     1      -0.128  -0.923  -0.620  0.00  0.00    -0.047 A 
ATOM     18  C   UNL     1      -0.227  -1.798  -1.687  0.00  0.00    +0.004 A 
ATOM     19  C   UNL     1      -0.269  -3.162  -1.463  0.00  0.00    +0.007 A 
ATOM     20  C   UNL     1      -0.214  -3.653  -0.173  0.00  0.00    -0.009 A 
ATOM     21  C   UNL     1      -0.115  -2.777   0.898  0.00  0.00    +0.124 A 
ATOM     22  C   UNL     1      -0.066  -1.409   0.671  0.00  0.00    +0.049 A 
ATOM     23  C   UNL     1      -0.261  -5.140   0.070  0.00  0.00    +0.047 C 
ENDBRANCH  15  21
ENDBRANCH  14  15
ENDBRANCH   1  14
BRANCH   4  24
ATOM     24  S   UNL     1      -1.559  -5.154   7.085  0.00  0.00    -0.114 S 
BRANCH  24  25
ATOM     25  C   UNL     1      -0.962  -3.684   7.966  0.00  0.00    +0.146 C 
BRANCH  25  26
ATOM     26  C   UNL     1      -1.547  -3.659   9.355  0.00  0.00    +0.120 A 
ATOM     27  N   UNL     1      -1.220  -2.625  10.173  0.00  0.00    -0.310 N 
ATOM     28  H   UNL     1      -0.624  -1.929   9.853  0.00  0.00    +0.170 HD
ATOM     29  C   UNL     1      -1.719  -2.556  11.429  0.00  0.00    +0.259 A 
ATOM     30  O   UNL     1      -1.435  -1.634  12.172  0.00  0.00    -0.267 OA
ATOM     31  C   UNL     1      -2.617  -3.637  11.861  0.00  0.00    +0.065 A 
ATOM     32  C   UNL     1      -3.184  -3.660  13.134  0.00  0.00    +0.015 A 
ATOM     33  C   UNL     1      -4.018  -4.698  13.486  0.00  0.00    +0.001 A 
ATOM     34  C   UNL     1      -4.298  -5.717  12.585  0.00  0.00    +0.002 A 
ATOM     35  C   UNL     1      -3.748  -5.712  11.323  0.00  0.00    +0.028 A 
ATOM     36  C   UNL     1      -2.900  -4.671  10.941  0.00  0.00    +0.078 A 
ATOM     37  N   UNL     1      -2.341  -4.624   9.706  0.00  0.00    -0.233 NA
ENDBRANCH  25  26
ENDBRANCH  24  25
ENDBRANCH   4  24
TORSDOF 7
