REMARK  Name = ZINC19990407
REMARK  12 active torsions:
REMARK  status: ('A' for Active; 'I' for Inactive)
REMARK    1  A    between atoms: C_3  and  N_21
REMARK    2  A    between atoms: C_6  and  N_7
REMARK    3  A    between atoms: N_7  and  C1*_8
REMARK    4  A    between atoms: C2*_10  and  O2*_20
REMARK    5  A    between atoms: C3*_12  and  O3*_19
REMARK    6  A    between atoms: C4*_14  and  C5*_17
REMARK    7  A    between atoms: C5*_17  and  O5*_18
REMARK    8  A    between atoms: N_21  and  C1*_22
REMARK    9  A    between atoms: C2*_24  and  O2*_34
REMARK   10  A    between atoms: C3*_26  and  O3*_33
REMARK   11  A    between atoms: C4*_28  and  C5*_31
REMARK   12  A    between atoms: C5*_31  and  O5*_32
REMARK                            x       y       z     vdW  Elec       q    Type
REMARK                         _______ _______ _______ _____ _____    ______ ____
ROOT
ATOM      1  C   UNL     1       4.783   0.384   0.556  0.00  0.00    +0.025 A 
ATOM      2  C   UNL     1       3.728   1.230   0.275  0.00  0.00    +0.025 A 
ATOM      3  C   UNL     1       2.427   0.745   0.283  0.00  0.00    +0.029 A 
ATOM      4  C   UNL     1       2.186  -0.590   0.580  0.00  0.00    +0.025 A 
ATOM      5  C   UNL     1       3.241  -1.437   0.856  0.00  0.00    +0.025 A 
ATOM      6  C   UNL     1       4.542  -0.952   0.847  0.00  0.00    +0.029 A 
ENDROOT
BRANCH   6   7
ATOM      7  N   UNL     1       5.612  -1.810   1.132  0.00  0.00    -0.317 N 
ATOM      8  H   UNL     1       6.642  -1.425   1.124  0.00  0.00    +0.149 HD
BRANCH   7   9
ATOM      9  C1* UNL     1       5.358  -3.219   1.439  0.00  0.00    +0.235 C 
ATOM     10  C2* UNL     1       6.513  -4.101   0.914  0.00  0.00    +0.192 C 
ATOM     11  C3* UNL     1       7.447  -4.262   2.134  0.00  0.00    +0.178 C 
ATOM     12  C4* UNL     1       6.746  -3.459   3.252  0.00  0.00    +0.177 C 
ATOM     13  O4* UNL     1       5.351  -3.429   2.868  0.00  0.00    -0.348 OA
BRANCH  11  14
ATOM     14  O3* UNL     1       7.559  -5.638   2.501  0.00  0.00    -0.386 OA
ATOM     15  H3* UNL     1       8.188  -5.931   3.354  0.00  0.00    +0.210 HD
ENDBRANCH  11  14
BRANCH  10  16
ATOM     16  O2* UNL     1       7.196  -3.445  -0.156  0.00  0.00    -0.385 OA
ATOM     17  H2* UNL     1       8.049  -3.937  -0.647  0.00  0.00    +0.210 HD
ENDBRANCH  10  16
BRANCH  12  18
ATOM     18  C5* UNL     1       6.912  -4.165   4.599  0.00  0.00    +0.190 C 
BRANCH  18  19
ATOM     19  O5* UNL     1       6.359  -3.351   5.635  0.00  0.00    -0.392 OA
ATOM     20  H5* UNL     1       6.386  -3.696   6.679  0.00  0.00    +0.210 HD
ENDBRANCH  18  19
ENDBRANCH  12  18
ENDBRANCH   7   9
ENDBRANCH   6   7
BRANCH   3  21
ATOM     21  N   UNL     1       1.358   1.603  -0.002  0.00  0.00    -0.317 N 
ATOM     22  H   UNL     1       0.324   1.235   0.069  0.00  0.00    +0.149 HD
BRANCH  21  23
ATOM     23  C1* UNL     1       1.617   2.990  -0.395  0.00  0.00    +0.235 C 
ATOM     24  C2* UNL     1       0.490   3.902   0.129  0.00  0.00    +0.192 C 
ATOM     25  C3* UNL     1      -0.154   4.484  -1.153  0.00  0.00    +0.178 C 
ATOM     26  C4* UNL     1       0.286   3.461  -2.231  0.00  0.00    +0.177 C 
ATOM     27  O4* UNL     1       1.626   3.098  -1.829  0.00  0.00    -0.348 OA
BRANCH  25  28
ATOM     28  O3* UNL     1      -1.577   4.522  -1.036  0.00  0.00    -0.386 OA
ATOM     29  H3* UNL     1      -2.187   4.911  -1.865  0.00  0.00    +0.210 HD
ENDBRANCH  25  28
BRANCH  24  30
ATOM     30  O2* UNL     1      -0.467   3.140   0.868  0.00  0.00    -0.385 OA
ATOM     31  H2* UNL     1      -1.340   3.638   1.314  0.00  0.00    +0.210 HD
ENDBRANCH  24  30
BRANCH  26  32
ATOM     32  C5* UNL     1       0.295   4.109  -3.617  0.00  0.00    +0.190 C 
BRANCH  32  33
ATOM     33  O5* UNL     1       0.589   3.119  -4.604  0.00  0.00    -0.392 OA
ATOM     34  H5* UNL     1       0.639   3.399  -5.666  0.00  0.00    +0.210 HD
ENDBRANCH  32  33
ENDBRANCH  26  32
ENDBRANCH  21  23
ENDBRANCH   3  21
TORSDOF 12
