REMARK  Name = ZINC13466534
REMARK  8 active torsions:
REMARK  status: ('A' for Active; 'I' for Inactive)
REMARK    1  A    between atoms: C_1  and  C_2
REMARK    2  A    between atoms: C_2  and  C_4
REMARK    3  A    between atoms: C_2  and  N_14
REMARK    4  A    between atoms: C_7  and  S_10
REMARK    5  A    between atoms: S_10  and  N_13
REMARK    6  A    between atoms: C_15  and  C_17
REMARK    7  A    between atoms: C_17  and  C_18
REMARK    8  A    between atoms: C_18  and  C_24
REMARK                            x       y       z     vdW  Elec       q    Type
REMARK                         _______ _______ _______ _____ _____    ______ ____
ROOT
ATOM      1  C   UNL     1      -2.276   2.872   6.117  0.00  0.00    +0.033 C 
ATOM      2  C   UNL     1      -3.144   3.071   4.873  0.00  0.00    +0.100 C 
ENDROOT
BRANCH   2   3
ATOM      3  C   UNL     1      -2.364   2.668   3.648  0.00  0.00    -0.027 A 
ATOM      4  C   UNL     1      -2.574   1.429   3.072  0.00  0.00    +0.007 A 
ATOM      5  C   UNL     1      -1.858   1.059   1.948  0.00  0.00    +0.029 A 
ATOM      6  C   UNL     1      -0.934   1.929   1.400  0.00  0.00    +0.105 A 
ATOM      7  C   UNL     1      -0.721   3.166   1.979  0.00  0.00    +0.029 A 
ATOM      8  C   UNL     1      -1.440   3.538   3.100  0.00  0.00    +0.007 A 
BRANCH   6   9
ATOM      9  S   UNL     1      -0.021   1.458  -0.032  0.00  0.00    +0.056 S 
ATOM     10  O   UNL     1      -0.008   0.037  -0.055  0.00  0.00    -0.153 OA
ATOM     11  O   UNL     1       1.171   2.231  -0.026  0.00  0.00    -0.153 OA
BRANCH   9  12
ATOM     12  N   UNL     1      -0.895   1.945  -1.351  0.00  0.00    -0.204 NA
ATOM     13  H   UNL     1      -1.744   2.400  -1.230  0.00  0.00    +0.144 HD
ATOM     14  H   UNL     1      -0.559   1.776  -2.245  0.00  0.00    +0.144 HD
ENDBRANCH   9  12
ENDBRANCH   6   9
ENDBRANCH   2   3
BRANCH   2  15
ATOM     15  N   UNL     1      -3.529   4.480   4.766  0.00  0.00    -0.309 N 
ATOM     16  C   UNL     1      -4.607   4.937   5.432  0.00  0.00    +0.215 C 
ATOM     17  O   UNL     1      -5.260   4.181   6.121  0.00  0.00    -0.276 OA
ATOM     18  H   UNL     1      -3.007   5.085   4.215  0.00  0.00    +0.149 HD
BRANCH  16  19
ATOM     19  C   UNL     1      -5.003   6.387   5.322  0.00  0.00    +0.114 C 
BRANCH  19  20
ATOM     20  C   UNL     1      -6.318   6.615   6.071  0.00  0.00    +0.080 C 
ATOM     21  C   UNL     1      -6.792   8.052   5.843  0.00  0.00    +0.019 C 
ATOM     22  C   UNL     1      -5.733   9.027   6.362  0.00  0.00    +0.001 C 
ATOM     23  C   UNL     1      -5.514   8.793   7.858  0.00  0.00    +0.000 C 
ATOM     24  C   UNL     1      -5.040   7.356   8.086  0.00  0.00    +0.001 C 
ATOM     25  C   UNL     1      -6.099   6.381   7.567  0.00  0.00    +0.019 C 
BRANCH  20  26
ATOM     26  C   UNL     1      -7.361   5.655   5.559  0.00  0.00    +0.362 C 
ATOM     27  O   UNL     1      -7.942   4.928   6.330  0.00  0.00    -0.246 OA
ATOM     28  O   UNL     1      -7.643   5.606   4.248  0.00  0.00    -0.246 OA
ENDBRANCH  20  26
ENDBRANCH  19  20
ENDBRANCH  16  19
ENDBRANCH   2  15
TORSDOF 7
