REMARK  Name = ZINC14156539
REMARK  10 active torsions:
REMARK  status: ('A' for Active; 'I' for Inactive)
REMARK    1  A    between atoms: C_1  and  C_2
REMARK    2  A    between atoms: C_6  and  N_9
REMARK    3  A    between atoms: C_7  and  C_8
REMARK    4  A    between atoms: N_9  and  C_10
REMARK    5  A    between atoms: C_10  and  N_12
REMARK    6  A    between atoms: N_14  and  C_15
REMARK    7  A    between atoms: C_15  and  C_16
REMARK    8  A    between atoms: C_16  and  C_17
REMARK    9  A    between atoms: C_26  and  C_31
REMARK   10  A    between atoms: C_28  and  C_30
REMARK                            x       y       z     vdW  Elec       q    Type
REMARK                         _______ _______ _______ _____ _____    ______ ____
ROOT
ATOM      1  N   UNL     1      -1.143   1.767   3.848  0.00  0.00    -0.159 NA
ATOM      2  C   UNL     1      -0.735   1.002   2.850  0.00  0.00    +0.195 C 
ATOM      3  N   UNL     1      -1.375   1.053   1.645  0.00  0.00    -0.357 N 
ATOM      4  N   UNL     1       0.329   0.159   3.025  0.00  0.00    -0.297 N 
ATOM      5  C   UNL     1       0.908   0.023   4.279  0.00  0.00    +0.231 A 
ATOM      6  N   UNL     1       0.357   0.636   5.316  0.00  0.00    -0.217 NA
ATOM      7  C   UNL     1       0.880   0.524   6.525  0.00  0.00    +0.044 A 
ATOM      8  C   UNL     1       2.024  -0.239   6.698  0.00  0.00    +0.046 A 
ATOM      9  C   UNL     1       2.578  -0.863   5.591  0.00  0.00    +0.044 A 
ATOM     10  N   UNL     1       2.001  -0.713   4.410  0.00  0.00    -0.217 NA
ATOM     11  C   UNL     1       3.821  -1.703   5.731  0.00  0.00    +0.066 C 
ATOM     12  C   UNL     1       0.243   1.220   7.700  0.00  0.00    +0.066 C 
ATOM     13  H   UNL     1      -2.278   1.670   1.528  0.00  0.00    +0.162 HD
ATOM     14  H   UNL     1       0.725  -0.411   2.171  0.00  0.00    +0.171 HD
ENDROOT
BRANCH   1  15
ATOM     15  C   UNL     1      -2.255   2.504   3.716  0.00  0.00    +0.161 C 
ATOM     16  S   UNL     1      -3.774   1.736   3.532  0.00  0.00    -0.016 S 
BRANCH  15  17
ATOM     17  N   UNL     1      -2.178   3.850   3.729  0.00  0.00    -0.295 N 
ATOM     18  H   UNL     1      -1.195   4.344   3.759  0.00  0.00    +0.154 HD
BRANCH  17  24
ATOM     19  C   UNL     1      -4.744   7.704   5.380  0.00  0.00    +0.044 C 
ATOM     20  C   UNL     1      -4.617   6.491   4.494  0.00  0.00    -0.046 A 
ATOM     21  C   UNL     1      -5.658   6.138   3.654  0.00  0.00    +0.004 A 
ATOM     22  C   UNL     1      -5.545   5.026   2.839  0.00  0.00    +0.002 A 
ATOM     23  C   UNL     1      -4.393   4.266   2.861  0.00  0.00    +0.023 A 
ATOM     24  C   UNL     1      -3.346   4.618   3.704  0.00  0.00    +0.036 A 
ATOM     25  C   UNL     1      -3.464   5.732   4.525  0.00  0.00    -0.026 A 
ATOM     26  C   UNL     1      -2.334   6.114   5.445  0.00  0.00    +0.046 C 
ENDBRANCH  17  24
ENDBRANCH  15  17
ENDBRANCH   1  15
BRANCH   3  27
ATOM     27  C   UNL     1      -0.858   0.287   0.508  0.00  0.00    +0.121 C 
BRANCH  27  28
ATOM     28  C   UNL     1      -1.678   0.613  -0.742  0.00  0.00    +0.075 C 
BRANCH  28  29
ATOM     29  C   UNL     1      -1.073  -0.081  -1.934  0.00  0.00    +0.035 A 
ATOM     30  C   UNL     1      -1.714  -0.917  -2.773  0.00  0.00    +0.105 A 
ATOM     31  N   UNL     1      -0.799  -1.317  -3.709  0.00  0.00    -0.352 N 
ATOM     32  H   UNL     1      -1.098  -2.012  -4.508  0.00  0.00    +0.166 HD
ATOM     33  C   UNL     1       0.370  -0.711  -3.410  0.00  0.00    +0.171 A 
ATOM     34  N   UNL     1       0.198   0.031  -2.351  0.00  0.00    -0.350 N 
ATOM     35  H   UNL     1       0.900   0.678  -1.806  0.00  0.00    +0.166 HD
ENDBRANCH  28  29
ENDBRANCH  27  28
ENDBRANCH   3  27
TORSDOF 6
