REMARK  Name = ZINC63662059
REMARK  12 active torsions:
REMARK  status: ('A' for Active; 'I' for Inactive)
REMARK    1  A    between atoms: C_1  and  C_2
REMARK    2  A    between atoms: C_2  and  C_3
REMARK    3  A    between atoms: C_3  and  N_4
REMARK    4  A    between atoms: N_7  and  C_8
REMARK    5  A    between atoms: C_8  and  C_9
REMARK    6  A    between atoms: C_8  and  C_10
REMARK    7  A    between atoms: C_8  and  C_11
REMARK    8  A    between atoms: N_13  and  C_14
REMARK    9  A    between atoms: C_14  and  C_15
REMARK   10  A    between atoms: C_15  and  C_16
REMARK   11  A    between atoms: C_15  and  N_21
REMARK   12  A    between atoms: C_24  and  C_27
REMARK                            x       y       z     vdW  Elec       q    Type
REMARK                         _______ _______ _______ _____ _____    ______ ____
ROOT
ATOM      1  C   UNL     1      -3.675  -6.290  -0.234  0.00  0.00    +0.236 C 
ATOM      2  O   UNL     1      -4.506  -7.070   0.183  0.00  0.00    -0.273 OA
ATOM      3  N   UNL     1      -2.531  -6.751  -0.777  0.00  0.00    -0.315 N 
ATOM      4  H   UNL     1      -1.867  -6.127  -1.110  0.00  0.00    +0.149 HD
ENDROOT
BRANCH   1   5
ATOM      5  C   UNL     1      -3.923  -4.806  -0.144  0.00  0.00    +0.106 C 
ATOM      6  C   UNL     1      -4.900  -4.520   0.998  0.00  0.00    +0.041 C 
ATOM      7  C   UNL     1      -4.521  -4.309  -1.462  0.00  0.00    +0.041 C 
BRANCH   5  11
ATOM      8  N   UNL     1      -1.471  -2.135   0.463  0.00  0.00    -0.299 N 
ATOM      9  C   UNL     1      -2.635  -2.772   0.229  0.00  0.00    +0.300 C 
ATOM     10  O   UNL     1      -3.666  -2.135   0.124  0.00  0.00    -0.253 OA
ATOM     11  N   UNL     1      -2.658  -4.114   0.110  0.00  0.00    -0.286 N 
ATOM     12  H   UNL     1      -0.649  -2.643   0.546  0.00  0.00    +0.150 HD
ATOM     13  H   UNL     1      -1.835  -4.622   0.193  0.00  0.00    +0.151 HD
BRANCH   8  14
ATOM     14  C   UNL     1      -1.447  -0.676   0.592  0.00  0.00    +0.105 C 
BRANCH  14  16
ATOM     15  C   UNL     1       0.012   1.314   0.987  0.00  0.00    +0.005 C 
ATOM     16  C   UNL     1      -0.013  -0.210   0.852  0.00  0.00    +0.015 C 
ENDBRANCH  14  16
ENDBRANCH   8  14
ENDBRANCH   5  11
ENDBRANCH   1   5
BRANCH   3  17
ATOM     17  C   UNL     1      -2.290  -8.193  -0.863  0.00  0.00    +0.094 C 
BRANCH  17  18
ATOM     18  C   UNL     1      -0.991  -8.448  -1.631  0.00  0.00    -0.013 C 
BRANCH  18  19
ATOM     19  N   UNL     1      -0.703  -9.888  -1.641  0.00  0.00    +0.386 N 
ATOM     20  C   UNL     1      -0.485 -10.352  -0.266  0.00  0.00    -0.078 C 
ATOM     21  C   UNL     1      -0.265 -11.866  -0.263  0.00  0.00    -0.015 C 
ATOM     22  C   UNL     1       0.962 -12.200  -1.117  0.00  0.00    -0.018 C 
ATOM     23  C   UNL     1       0.755 -11.646  -2.529  0.00  0.00    -0.015 C 
ATOM     24  C   UNL     1       0.497 -10.140  -2.448  0.00  0.00    -0.078 C 
ATOM     25  C   UNL     1       1.142 -13.718  -1.183  0.00  0.00    +0.007 C 
ATOM     26  H   UNL     1      -1.486 -10.384  -2.041  0.00  0.00    -0.081 HD
ENDBRANCH  18  19
BRANCH  18  27
ATOM     27  C   UNL     1      -1.140  -7.955  -3.047  0.00  0.00    -0.022 A 
ATOM     28  C   UNL     1      -0.695  -6.800  -3.600  0.00  0.00    +0.009 A 
ATOM     29  C   UNL     1      -0.949  -6.555  -4.936  0.00  0.00    +0.008 A 
ATOM     30  C   UNL     1      -1.635  -7.477  -5.655  0.00  0.00    +0.045 A 
ATOM     31  S   UNL     1      -1.939  -8.744  -4.434  0.00  0.00    -0.103 S 
ENDBRANCH  18  27
ENDBRANCH  17  18
ENDBRANCH   3  17
TORSDOF 8
