REMARK  Name = ZINC66761156
REMARK  8 active torsions:
REMARK  status: ('A' for Active; 'I' for Inactive)
REMARK    1  A    between atoms: C_1  and  C_2
REMARK    2  A    between atoms: C_2  and  C_3
REMARK    3  A    between atoms: C_3  and  N_4
REMARK    4  A    between atoms: C_10  and  N_13
REMARK    5  A    between atoms: C_14  and  C_16
REMARK    6  A    between atoms: C_16  and  C_17
REMARK    7  A    between atoms: C_17  and  C_19
REMARK    8  A    between atoms: C_17  and  N_24
REMARK                            x       y       z     vdW  Elec       q    Type
REMARK                         _______ _______ _______ _____ _____    ______ ____
ROOT
ATOM      1  N   UNL     1       2.317  -4.794  -4.319  0.00  0.00    -0.285 N 
ATOM      2  C   UNL     1       2.283  -5.958  -4.997  0.00  0.00    +0.219 C 
ATOM      3  O   UNL     1       2.335  -7.011  -4.397  0.00  0.00    -0.275 OA
ATOM      4  H   UNL     1       2.194  -3.955  -4.790  0.00  0.00    +0.155 HD
ENDROOT
BRANCH   1  11
ATOM      5  N   UNL     1       0.758  -1.968  -1.253  0.00  0.00    +0.385 N 
ATOM      6  C   UNL     1       1.686  -2.479  -0.218  0.00  0.00    -0.042 C 
ATOM      7  C   UNL     1       2.284  -3.743  -0.794  0.00  0.00    -0.061 A 
ATOM      8  C   UNL     1       2.949  -4.800  -0.201  0.00  0.00    +0.002 A 
ATOM      9  C   UNL     1       3.404  -5.855  -0.970  0.00  0.00    +0.002 A 
ATOM     10  C   UNL     1       3.195  -5.856  -2.336  0.00  0.00    +0.023 A 
ATOM     11  C   UNL     1       2.528  -4.796  -2.936  0.00  0.00    +0.035 A 
ATOM     12  C   UNL     1       2.072  -3.738  -2.161  0.00  0.00    -0.041 A 
ATOM     13  C   UNL     1       1.330  -2.472  -2.522  0.00  0.00    -0.040 C 
ATOM     14  H   UNL     1      -0.170  -2.337  -1.112  0.00  0.00    -0.081 HD
BRANCH   5  15
ATOM     15  C   UNL     1       0.736  -0.499  -1.245  0.00  0.00    -0.078 C 
BRANCH  15  17
ATOM     16  C   UNL     1       0.006   1.523   0.028  0.00  0.00    +0.002 C 
ATOM     17  C   UNL     1       0.029  -0.006   0.019  0.00  0.00    -0.022 C 
ENDBRANCH  15  17
ENDBRANCH   5  15
ENDBRANCH   1  11
BRANCH   2  18
ATOM     18  C   UNL     1       2.179  -5.952  -6.501  0.00  0.00    +0.123 C 
BRANCH  18  19
ATOM     19  C   UNL     1       2.160  -7.392  -7.017  0.00  0.00    +0.120 C 
BRANCH  19  20
ATOM     20  N   UNL     1       0.944  -8.062  -6.548  0.00  0.00    -0.292 N 
ATOM     21  C   UNL     1       0.920  -9.404  -6.425  0.00  0.00    +0.298 C 
ATOM     22  O   UNL     1       1.906 -10.059  -6.703  0.00  0.00    -0.253 OA
ATOM     23  N   UNL     1      -0.199 -10.021  -5.993  0.00  0.00    -0.313 N 
ATOM     24  H   UNL     1       0.158  -7.540  -6.326  0.00  0.00    +0.151 HD
ATOM     25  H   UNL     1      -0.985  -9.499  -5.771  0.00  0.00    +0.146 HD
ATOM     26  H   UNL     1      -0.216 -10.987  -5.904  0.00  0.00    +0.146 HD
ENDBRANCH  19  20
BRANCH  19  27
ATOM     27  C   UNL     1       2.180  -7.386  -8.524  0.00  0.00    +0.010 A 
ATOM     28  C   UNL     1       3.224  -7.590  -9.364  0.00  0.00    +0.013 A 
ATOM     29  C   UNL     1       3.007  -7.538 -10.728  0.00  0.00    +0.008 A 
ATOM     30  C   UNL     1       1.757  -7.285 -11.185  0.00  0.00    +0.045 A 
ATOM     31  S   UNL     1       0.835  -7.116  -9.665  0.00  0.00    -0.100 S 
ENDBRANCH  19  27
ENDBRANCH  18  19
ENDBRANCH   2  18
TORSDOF 7
