REMARK  Name = ZINC27520974
REMARK  4 active torsions:
REMARK  status: ('A' for Active; 'I' for Inactive)
REMARK    1  A    between atoms: C_1  and  C_2
REMARK    2  A    between atoms: C_5  and  C_7
REMARK    3  A    between atoms: C_11  and  N_26
REMARK    4  A    between atoms: N_17  and  C_18
REMARK                            x       y       z     vdW  Elec       q    Type
REMARK                         _______ _______ _______ _____ _____    ______ ____
ROOT
ATOM      1  C   UNL     1      -1.188   1.785  -0.011  0.00  0.00    +0.098 A 
ATOM      2  C   UNL     1       0.006   1.077  -0.076  0.00  0.00    +0.030 A 
ATOM      3  C   UNL     1       1.246   1.854  -0.153  0.00  0.00    +0.020 A 
ATOM      4  C   UNL     1       2.457   1.240  -0.492  0.00  0.00    +0.044 A 
ATOM      5  C   UNL     1       3.600   1.986  -0.560  0.00  0.00    +0.127 A 
ATOM      6  C   UNL     1       3.569   3.348  -0.295  0.00  0.00    +0.036 A 
ATOM      7  C   UNL     1       2.385   3.973   0.042  0.00  0.00    +0.049 A 
ATOM      8  C   UNL     1       1.213   3.235   0.118  0.00  0.00    +0.138 A 
ATOM      9  O   UNL     1       0.043   3.829   0.455  0.00  0.00    -0.439 OA
ATOM     10  C   UNL     1      -1.096   3.259  -0.015  0.00  0.00    +0.212 A 
ATOM     11  N   UNL     1      -2.088   3.996  -0.464  0.00  0.00    -0.324 N 
ATOM     12  H   UNL     1      -2.964   3.517  -0.926  0.00  0.00    +0.169 HD
ENDROOT
BRANCH  11  13
ATOM     13  C   UNL     1      -2.031   5.359  -0.355  0.00  0.00    +0.060 A 
ATOM     14  C   UNL     1      -1.513   6.125  -1.401  0.00  0.00    +0.028 A 
ATOM     15  C   UNL     1      -1.459   7.498  -1.286  0.00  0.00    +0.022 A 
ATOM     16  C   UNL     1      -1.916   8.118  -0.135  0.00  0.00    +0.042 A 
ATOM     17  C   UNL     1      -2.431   7.365   0.907  0.00  0.00    +0.042 A 
ATOM     18  C   UNL     1      -2.497   5.991   0.802  0.00  0.00    +0.066 A 
ATOM     19 CL   UNL     1      -3.150   5.048   2.106  0.00  0.00    -0.081 Cl
ATOM     20 CL   UNL     1      -1.843   9.847   0.002  0.00  0.00    -0.083 Cl
ENDBRANCH  11  13
BRANCH   1  25
ATOM     21  C   UNL     1      -3.778  -2.389   0.141  0.00  0.00    +0.109 C 
ATOM     22  C   UNL     1      -3.723  -0.882   0.135  0.00  0.00    +0.216 C 
ATOM     23  O   UNL     1      -4.749  -0.239   0.190  0.00  0.00    -0.276 OA
ATOM     24  N   UNL     1      -2.534  -0.251   0.068  0.00  0.00    -0.252 N 
ATOM     25  C   UNL     1      -2.486   1.095   0.062  0.00  0.00    +0.255 C 
ATOM     26  O   UNL     1      -3.514   1.741   0.118  0.00  0.00    -0.270 OA
ATOM     27  H   UNL     1      -1.604  -0.836   0.017  0.00  0.00    +0.158 HD
ENDBRANCH   1  25
BRANCH   5  28
ATOM     28  N   UNL     1       4.881   1.337  -0.918  0.00  0.00    +0.056 N 
ATOM     29  O   UNL     1       4.913   0.142  -1.151  0.00  0.00    -0.126 OA
ATOM     30  O   UNL     1       5.902   1.998  -0.980  0.00  0.00    -0.126 OA
ENDBRANCH   5  28
TORSDOF 3
