REMARK  Name = ZINC09584431
REMARK  8 active torsions:
REMARK  status: ('A' for Active; 'I' for Inactive)
REMARK    1  A    between atoms: C_1  and  C_2
REMARK    2  A    between atoms: C_2  and  C_4
REMARK    3  A    between atoms: C_2  and  N_58
REMARK    4  A    between atoms: N_6  and  C_7
REMARK    5  A    between atoms: C_8  and  C_15
REMARK    6  A    between atoms: N_20  and  S_23
REMARK    7  A    between atoms: S_23  and  C_26
REMARK    8  A    between atoms: C_29  and  C_32
REMARK                            x       y       z     vdW  Elec       q    Type
REMARK                         _______ _______ _______ _____ _____    ______ ____
ROOT
ATOM      1  C   UNL     1       2.152  -3.280  -5.983  0.00  0.00    -0.004 C 
ATOM      2  C   UNL     1       1.166  -2.138  -5.727  0.00  0.00    +0.017 C 
ENDROOT
BRANCH   2   8
ATOM      3  C   UNL     1      -0.095  -1.000  -4.002  0.00  0.00    -0.060 C 
ATOM      4  C   UNL     1      -0.160  -0.741  -2.493  0.00  0.00    +0.091 C 
ATOM      5  N   UNL     1      -0.323  -2.030  -1.804  0.00  0.00    -0.180 NA
ATOM      6  C   UNL     1       0.614  -3.116  -2.131  0.00  0.00    +0.091 C 
ATOM      7  C   UNL     1       0.645  -3.283  -3.659  0.00  0.00    -0.060 C 
ATOM      8  N   UNL     1       0.980  -1.979  -4.270  0.00  0.00    +0.389 N 
ATOM      9  H   UNL     1       1.855  -1.634  -3.858  0.00  0.00    -0.081 HD
BRANCH   5  10
ATOM     10  S   UNL     1      -1.524  -2.251  -0.686  0.00  0.00    +0.061 S 
ATOM     11  O   UNL     1      -1.859  -0.962  -0.190  0.00  0.00    -0.153 OA
ATOM     12  O   UNL     1      -1.099  -3.308   0.163  0.00  0.00    -0.153 OA
BRANCH  10  13
ATOM     13  C   UNL     1      -2.940  -2.840  -1.553  0.00  0.00    +0.106 A 
ATOM     14  C   UNL     1      -3.128  -4.201  -1.722  0.00  0.00    +0.030 A 
ATOM     15  C   UNL     1      -4.235  -4.669  -2.398  0.00  0.00    +0.021 A 
ATOM     16  C   UNL     1      -5.167  -3.767  -2.914  0.00  0.00    +0.052 A 
ATOM     17  C   UNL     1      -4.972  -2.395  -2.740  0.00  0.00    +0.021 A 
ATOM     18  C   UNL     1      -3.860  -1.941  -2.061  0.00  0.00    +0.030 A 
BRANCH  16  19
ATOM     19  C   UNL     1      -6.319  -4.246  -3.618  0.00  0.00    +0.099 C 
ATOM     20  N   UNL     1      -7.232  -4.626  -4.176  0.00  0.00    -0.191 NA
ENDBRANCH  16  19
ENDBRANCH  10  13
ENDBRANCH   5  10
ENDBRANCH   2   8
BRANCH   2  21
ATOM     21  C   UNL     1      -0.148  -2.449  -6.398  0.00  0.00    +0.204 C 
ATOM     22  O   UNL     1      -1.021  -3.025  -5.784  0.00  0.00    -0.277 OA
ATOM     23  N   UNL     1      -0.352  -2.087  -7.680  0.00  0.00    -0.281 N 
ATOM     24  H   UNL     1       0.347  -1.627  -8.171  0.00  0.00    +0.155 HD
BRANCH  23  25
ATOM     25  C   UNL     1      -1.560  -2.373  -8.297  0.00  0.00    +0.084 A 
ATOM     26  C   UNL     1      -1.956  -2.080  -9.591  0.00  0.00    +0.068 A 
ATOM     27  C   UNL     1      -3.296  -2.499 -10.001  0.00  0.00    -0.023 A 
ATOM     28  C   UNL     1      -4.013  -3.127  -9.052  0.00  0.00    -0.004 A 
ATOM     29  S   UNL     1      -2.943  -3.176  -7.635  0.00  0.00    -0.077 S 
ATOM     30  C   UNL     1      -5.378  -3.524  -9.546  0.00  0.00    +0.043 C 
ATOM     31  C   UNL     1      -5.273  -3.443 -11.085  0.00  0.00    +0.010 C 
ATOM     32  C   UNL     1      -4.145  -2.408 -11.269  0.00  0.00    +0.037 C 
BRANCH  26  33
ATOM     33  C   UNL     1      -1.062  -1.379 -10.519  0.00  0.00    +0.244 C 
ATOM     34  O   UNL     1      -0.306  -2.013 -11.231  0.00  0.00    -0.270 OA
ATOM     35  N   UNL     1      -1.079  -0.033 -10.582  0.00  0.00    -0.325 N 
ATOM     36  H   UNL     1      -1.681   0.472 -10.014  0.00  0.00    +0.145 HD
ATOM     37  H   UNL     1      -0.487   0.431 -11.196  0.00  0.00    +0.145 HD
ENDBRANCH  26  33
ENDBRANCH  23  25
ENDBRANCH   2  21
TORSDOF 7
