REMARK  Name = ZINC41584291
REMARK  14 active torsions:
REMARK  status: ('A' for Active; 'I' for Inactive)
REMARK    1  A    between atoms: C_1  and  C_2
REMARK    2  A    between atoms: C_2  and  C_3
REMARK    3  A    between atoms: C_3  and  C_4
REMARK    4  A    between atoms: C_4  and  N_5
REMARK    5  A    between atoms: N_5  and  C_6
REMARK    6  A    between atoms: N_5  and  C_10
REMARK    7  A    between atoms: C_6  and  C_7
REMARK    8  A    between atoms: C_7  and  C_8
REMARK    9  A    between atoms: C_8  and  C_9
REMARK   10  A    between atoms: C_10  and  C_11
REMARK   11  A    between atoms: C_12  and  O_31
REMARK   12  A    between atoms: C_18  and  C_30
REMARK   13  A    between atoms: C_19  and  O_22
REMARK   14  A    between atoms: O_22  and  C_23
REMARK                            x       y       z     vdW  Elec       q    Type
REMARK                         _______ _______ _______ _____ _____    ______ ____
ROOT
ATOM      1  C   UNL     1       1.787  -4.456  -4.397  0.00  0.00    +0.020 A 
ATOM      2  C   UNL     1       1.187  -4.407  -5.645  0.00  0.00    +0.122 A 
ATOM      3  C   UNL     1       1.945  -4.569  -6.803  0.00  0.00    +0.046 A 
ATOM      4  C   UNL     1       3.292  -4.779  -6.723  0.00  0.00    +0.019 A 
ATOM      5  C   UNL     1       3.912  -4.831  -5.474  0.00  0.00    +0.068 A 
ATOM      6  C   UNL     1       3.156  -4.663  -4.300  0.00  0.00    +0.144 A 
ATOM      7  O   UNL     1       3.765  -4.711  -3.098  0.00  0.00    -0.456 OA
ATOM      8  C   UNL     1       5.084  -4.909  -2.970  0.00  0.00    +0.148 A 
ATOM      9  C   UNL     1       5.903  -5.077  -4.027  0.00  0.00    +0.213 A 
ATOM     10  C   UNL     1       5.362  -5.055  -5.344  0.00  0.00    +0.235 A 
ATOM     11  O   UNL     1       6.072  -5.204  -6.325  0.00  0.00    -0.283 OA
ATOM     12  C   UNL     1       5.677  -4.947  -1.585  0.00  0.00    +0.090 C 
ENDROOT
BRANCH   2  13
ATOM     13  O   UNL     1      -0.151  -4.200  -5.740  0.00  0.00    -0.506 OA
ATOM     14  H   UNL     1      -0.401  -3.268  -5.799  0.00  0.00    +0.292 HD
ENDBRANCH   2  13
BRANCH   1  15
ATOM     15  C   UNL     1       0.958  -4.280  -3.152  0.00  0.00    -0.036 C 
BRANCH  15  16
ATOM     16  N   UNL     1       1.048  -2.886  -2.697  0.00  0.00    +0.383 N 
ATOM     17  H   UNL     1       2.017  -2.637  -2.566  0.00  0.00    -0.081 HD
BRANCH  16  18
ATOM     18  C   UNL     1       0.448  -2.002  -3.705  0.00  0.00    -0.078 C 
BRANCH  18  19
ATOM     19  C   UNL     1       0.653  -0.543  -3.291  0.00  0.00    -0.019 C 
BRANCH  19  21
ATOM     20  C   UNL     1       0.232   1.836  -3.926  0.00  0.00    +0.004 C 
ATOM     21  C   UNL     1       0.027   0.378  -4.340  0.00  0.00    -0.005 C 
ENDBRANCH  19  21
ENDBRANCH  18  19
ENDBRANCH  16  18
BRANCH  16  22
ATOM     22  C   UNL     1       0.328  -2.738  -1.425  0.00  0.00    -0.078 C 
BRANCH  22  23
ATOM     23  C   UNL     1       1.041  -3.546  -0.339  0.00  0.00    -0.019 C 
BRANCH  23  24
ATOM     24  C   UNL     1       0.242  -3.467   0.964  0.00  0.00    -0.005 C 
ATOM     25  C   UNL     1       0.955  -4.275   2.050  0.00  0.00    +0.004 C 
ENDBRANCH  23  24
ENDBRANCH  22  23
ENDBRANCH  16  22
ENDBRANCH  15  16
ENDBRANCH   1  15
BRANCH   9  26
ATOM     26  O   UNL     1       7.236  -5.274  -3.837  0.00  0.00    -0.448 OA
BRANCH  26  27
ATOM     27  C   UNL     1       8.091  -4.309  -4.264  0.00  0.00    +0.143 A 
ATOM     28  C   UNL     1       7.596  -3.115  -4.768  0.00  0.00    +0.047 A 
ATOM     29  C   UNL     1       8.468  -2.135  -5.201  0.00  0.00    +0.004 A 
ATOM     30  C   UNL     1       9.833  -2.343  -5.134  0.00  0.00    +0.001 A 
ATOM     31  C   UNL     1      10.330  -3.532  -4.633  0.00  0.00    +0.019 A 
ATOM     32  C   UNL     1       9.463  -4.514  -4.193  0.00  0.00    +0.060 A 
ATOM     33 BR   UNL     1      10.143  -6.137  -3.501  0.00  0.00    -0.046 Br
ENDBRANCH  26  27
ENDBRANCH   9  26
TORSDOF 11
