REMARK  Name = ZINC08994503
REMARK  5 active torsions:
REMARK  status: ('A' for Active; 'I' for Inactive)
REMARK    1  A    between atoms: C_1  and  N_50
REMARK    2  A    between atoms: C_3  and  C_24
REMARK    3  A    between atoms: C_5  and  C_17
REMARK    4  A    between atoms: C_17  and  C_19
REMARK    5  A    between atoms: C_28  and  N_30
REMARK                            x       y       z     vdW  Elec       q    Type
REMARK                         _______ _______ _______ _____ _____    ______ ____
ROOT
ATOM      1  C   UNL     1      -0.139   4.314  -0.904  0.00  0.00    -0.094 C 
ATOM      2  C   UNL     1      -1.038   2.111  -0.383  0.00  0.00    -0.068 C 
ATOM      3  C   UNL     1      -2.447   1.469  -0.445  0.00  0.00    +0.013 C 
ATOM      4  C   UNL     1      -3.202   2.387  -1.436  0.00  0.00    +0.069 C 
ATOM      5  C   UNL     1      -2.430   3.711  -1.412  0.00  0.00    +0.051 C 
ATOM      6  C   UNL     1      -3.328   4.858  -1.035  0.00  0.00    -0.027 A 
ATOM      7  C   UNL     1      -4.087   5.136   0.080  0.00  0.00    +0.004 A 
ATOM      8  C   UNL     1      -4.832   6.301   0.136  0.00  0.00    +0.000 A 
ATOM      9  C   UNL     1      -4.811   7.184  -0.928  0.00  0.00    +0.002 A 
ATOM     10  C   UNL     1      -4.053   6.908  -2.047  0.00  0.00    +0.023 A 
ATOM     11  C   UNL     1      -3.300   5.737  -2.112  0.00  0.00    +0.036 A 
ATOM     12  N   UNL     1      -2.468   5.242  -3.118  0.00  0.00    -0.286 N 
ATOM     13  C   UNL     1      -1.916   4.060  -2.785  0.00  0.00    +0.212 C 
ATOM     14  O   UNL     1      -1.156   3.401  -3.462  0.00  0.00    -0.277 OA
ATOM     15  H   UNL     1      -2.305   5.698  -3.959  0.00  0.00    +0.155 HD
ATOM     16  N   UNL     1      -1.340   3.546  -0.456  0.00  0.00    +0.391 N 
ATOM     17  H   UNL     1      -1.633   3.886   0.467  0.00  0.00    -0.080 HD
ENDROOT
BRANCH   3  18
ATOM     18  C   UNL     1      -2.368   0.059  -0.973  0.00  0.00    -0.043 A 
ATOM     19  C   UNL     1      -1.190  -0.405  -1.530  0.00  0.00    +0.004 A 
ATOM     20  C   UNL     1      -1.117  -1.698  -2.014  0.00  0.00    +0.002 A 
ATOM     21  C   UNL     1      -2.222  -2.526  -1.941  0.00  0.00    +0.033 A 
ATOM     22  C   UNL     1      -3.398  -2.062  -1.383  0.00  0.00    +0.126 A 
ATOM     23  C   UNL     1      -3.470  -0.771  -0.896  0.00  0.00    +0.036 A 
BRANCH  22  24
ATOM     24  N   UNL     1      -4.580  -2.950  -1.305  0.00  0.00    +0.056 N 
ATOM     25  O   UNL     1      -4.516  -4.089  -1.732  0.00  0.00    -0.126 OA
ATOM     26  O   UNL     1      -5.617  -2.541  -0.814  0.00  0.00    -0.126 OA
ENDBRANCH  22  24
ENDBRANCH   3  18
BRANCH   4  27
ATOM     27  C   UNL     1      -3.182   1.793  -2.821  0.00  0.00    +0.173 C 
ATOM     28  O   UNL     1      -2.218   1.155  -3.194  0.00  0.00    -0.291 OA
BRANCH  27  29
ATOM     29  C   UNL     1      -4.284   1.978  -3.685  0.00  0.00    +0.055 A 
ATOM     30  C   UNL     1      -4.465   1.520  -4.987  0.00  0.00    +0.019 A 
ATOM     31  C   UNL     1      -5.643   1.847  -5.603  0.00  0.00    +0.008 A 
ATOM     32  C   UNL     1      -6.563   2.590  -4.929  0.00  0.00    +0.046 A 
ATOM     33  S   UNL     1      -5.810   2.854  -3.390  0.00  0.00    -0.094 S 
ENDBRANCH  27  29
ENDBRANCH   4  27
TORSDOF 4
