REMARK  Name = ZINC20877178
REMARK  11 active torsions:
REMARK  status: ('A' for Active; 'I' for Inactive)
REMARK    1  A    between atoms: C_1  and  O_2
REMARK    2  A    between atoms: O_2  and  C_3
REMARK    3  A    between atoms: C_5  and  C_25
REMARK    4  A    between atoms: C_8  and  O_9
REMARK    5  A    between atoms: O_9  and  C_10
REMARK    6  A    between atoms: C_10  and  C_11
REMARK    7  A    between atoms: C_11  and  C_13
REMARK    8  A    between atoms: C_11  and  O_23
REMARK    9  A    between atoms: C_25  and  N_26
REMARK   10  A    between atoms: N_26  and  C_27
REMARK   11  A    between atoms: C_27  and  C_28
REMARK                            x       y       z     vdW  Elec       q    Type
REMARK                         _______ _______ _______ _____ _____    ______ ____
ROOT
ATOM      1  C   UNL     1      -6.947  -1.151  -3.102  0.00  0.00    +0.163 A 
ATOM      2  C   UNL     1      -7.535  -1.386  -4.335  0.00  0.00    +0.051 A 
ATOM      3  C   UNL     1      -7.139  -2.471  -5.094  0.00  0.00    -0.060 A 
ATOM      4  C   UNL     1      -6.152  -3.321  -4.629  0.00  0.00    +0.021 A 
ATOM      5  C   UNL     1      -5.558  -3.089  -3.402  0.00  0.00    +0.063 A 
ATOM      6  C   UNL     1      -5.951  -2.003  -2.636  0.00  0.00    +0.176 A 
ATOM      7 BR   UNL     1      -4.209  -4.254  -2.770  0.00  0.00    -0.046 Br
ENDROOT
BRANCH   1   9
ATOM      8  C   UNL     1      -8.367   0.746  -2.893  0.00  0.00    +0.277 C 
ATOM      9  O   UNL     1      -7.339  -0.086  -2.352  0.00  0.00    -0.491 OA
ENDBRANCH   1   9
BRANCH   6  10
ATOM     10  O   UNL     1      -5.367  -1.774  -1.429  0.00  0.00    -0.484 OA
BRANCH  10  11
ATOM     11  C   UNL     1      -4.203  -0.946  -1.418  0.00  0.00    +0.265 C 
BRANCH  11  12
ATOM     12  C   UNL     1      -3.692  -0.803   0.018  0.00  0.00    +0.182 C 
BRANCH  12  13
ATOM     13  C   UNL     1      -2.397  -0.033   0.016  0.00  0.00    -0.012 A 
ATOM     14  C   UNL     1      -2.415   1.349   0.025  0.00  0.00    +0.010 A 
ATOM     15  C   UNL     1      -1.229   2.059   0.019  0.00  0.00    +0.050 A 
ATOM     16  C   UNL     1      -0.017   1.385   0.010  0.00  0.00    +0.162 A 
ATOM     17  C   UNL     1       0.002  -0.004   0.002  0.00  0.00    +0.162 A 
ATOM     18  C   UNL     1      -1.192  -0.710   0.004  0.00  0.00    +0.055 A 
ATOM     19  O   UNL     1       1.181  -0.685  -0.007  0.00  0.00    -0.485 OA
ATOM     20  C   UNL     1       2.347   0.053  -0.387  0.00  0.00    +0.270 C 
ATOM     21  C   UNL     1       2.334   1.392   0.364  0.00  0.00    +0.270 C 
ATOM     22  O   UNL     1       1.143   2.098   0.002  0.00  0.00    -0.485 OA
ENDBRANCH  12  13
BRANCH  12  23
ATOM     23  O   UNL     1      -4.661  -0.103   0.801  0.00  0.00    -0.384 OA
ATOM     24  H   UNL     1      -4.468   0.095   1.865  0.00  0.00    +0.210 HD
ENDBRANCH  12  23
ENDBRANCH  11  12
ENDBRANCH  10  11
ENDBRANCH   6  10
BRANCH   3  25
ATOM     25  C   UNL     1      -7.784  -2.728  -6.432  0.00  0.00    -0.046 C 
BRANCH  25  26
ATOM     26  N   UNL     1      -8.957  -3.593  -6.252  0.00  0.00    +0.384 N 
ATOM     27  H   UNL     1      -8.643  -4.549  -5.807  0.00  0.00    -0.085 HD
ATOM     28  H   UNL     1      -9.679  -3.099  -5.586  0.00  0.00    -0.085 HD
BRANCH  26  29
ATOM     29  C   UNL     1      -9.612  -3.866  -7.538  0.00  0.00    -0.046 C 
BRANCH  29  30
ATOM     30  C   UNL     1     -10.808  -4.755  -7.314  0.00  0.00    -0.064 A 
ATOM     31  C   UNL     1     -10.667  -6.129  -7.364  0.00  0.00    +0.004 A 
ATOM     32  C   UNL     1     -11.762  -6.945  -7.154  0.00  0.00    +0.038 A 
ATOM     33  C   UNL     1     -13.004  -6.386  -6.904  0.00  0.00    +0.123 A 
ATOM     34  C   UNL     1     -13.145  -5.009  -6.859  0.00  0.00    +0.038 A 
ATOM     35  C   UNL     1     -12.047  -4.195  -7.064  0.00  0.00    +0.004 A 
ATOM     36  F   UNL     1     -14.076  -7.183  -6.703  0.00  0.00    -0.205 F 
ENDBRANCH  29  30
ENDBRANCH  26  29
ENDBRANCH  25  26
ENDBRANCH   3  25
TORSDOF 10
