REMARK  Name = ZINC20181652
REMARK  11 active torsions:
REMARK  status: ('A' for Active; 'I' for Inactive)
REMARK    1  A    between atoms: C_1  and  C_2
REMARK    2  A    between atoms: C_2  and  C_3
REMARK    3  A    between atoms: C_6  and  C_9
REMARK    4  A    between atoms: N_13  and  C_21
REMARK    5  A    between atoms: C_21  and  C_22
REMARK    6  A    between atoms: N_24  and  C_25
REMARK    7  A    between atoms: C_25  and  C_26
REMARK    8  A    between atoms: C_26  and  C_27
REMARK    9  A    between atoms: C_27  and  N_28
REMARK   10  A    between atoms: C_33  and  C_35
REMARK   11  A    between atoms: C_35  and  C_36
REMARK                            x       y       z     vdW  Elec       q    Type
REMARK                         _______ _______ _______ _____ _____    ______ ____
ROOT
ATOM      1  C   UNL     1      -7.234  -1.185   1.438  0.00  0.00    +0.028 C 
ATOM      2  C   UNL     1      -5.938  -0.850   1.648  0.00  0.00    +0.076 C 
ATOM      3  C   UNL     1      -5.309  -0.955   2.983  0.00  0.00    +0.258 C 
ATOM      4  O   UNL     1      -5.995  -0.857   3.983  0.00  0.00    -0.269 OA
ATOM      5  N   UNL     1      -3.992  -1.162   3.096  0.00  0.00    -0.257 N 
ATOM      6  C   UNL     1      -3.094  -1.382   2.059  0.00  0.00    +0.051 A 
ATOM      7  C   UNL     1      -1.874  -1.989   2.354  0.00  0.00    +0.024 A 
ATOM      8  C   UNL     1      -0.954  -2.232   1.355  0.00  0.00    +0.002 A 
ATOM      9  C   UNL     1      -1.228  -1.876   0.046  0.00  0.00    +0.001 A 
ATOM     10  C   UNL     1      -2.432  -1.272  -0.263  0.00  0.00    +0.017 A 
ATOM     11  C   UNL     1      -3.360  -1.026   0.736  0.00  0.00    +0.034 A 
ATOM     12  S   UNL     1      -4.899  -0.253   0.340  0.00  0.00    -0.082 S 
ENDROOT
BRANCH   1  16
ATOM     13  C   UNL     1      -9.467  -3.059   4.518  0.00  0.00    -0.048 A 
ATOM     14  C   UNL     1     -10.052  -2.067   3.749  0.00  0.00    +0.004 A 
ATOM     15  C   UNL     1      -9.331  -1.449   2.750  0.00  0.00    +0.008 A 
ATOM     16  C   UNL     1      -8.008  -1.835   2.506  0.00  0.00    -0.024 A 
ATOM     17  C   UNL     1      -7.426  -2.842   3.283  0.00  0.00    +0.008 A 
ATOM     18  C   UNL     1      -8.159  -3.446   4.282  0.00  0.00    +0.004 A 
BRANCH  13  20
ATOM     19  C   UNL     1     -10.067  -2.959   6.922  0.00  0.00    +0.009 C 
ATOM     20  C   UNL     1     -10.261  -3.725   5.612  0.00  0.00    +0.032 C 
ENDBRANCH  13  20
ENDBRANCH   1  16
BRANCH   5  21
ATOM     21  C   UNL     1      -3.439  -1.150   4.453  0.00  0.00    +0.209 C 
BRANCH  21  22
ATOM     22  C   UNL     1      -3.586  -2.518   5.068  0.00  0.00    +0.231 C 
ATOM     23  O   UNL     1      -4.102  -3.415   4.435  0.00  0.00    -0.274 OA
ATOM     24  N   UNL     1      -3.145  -2.744   6.321  0.00  0.00    -0.314 N 
ATOM     25  H   UNL     1      -2.678  -1.930   6.895  0.00  0.00    +0.149 HD
BRANCH  24  26
ATOM     26  C   UNL     1      -3.288  -4.074   6.919  0.00  0.00    +0.102 C 
BRANCH  26  27
ATOM     27  C   UNL     1      -2.711  -4.060   8.336  0.00  0.00    +0.000 C 
BRANCH  27  28
ATOM     28  C   UNL     1      -2.861  -5.449   8.960  0.00  0.00    -0.077 C 
BRANCH  28  29
ATOM     29  N   UNL     1      -2.307  -5.436  10.321  0.00  0.00    +0.382 N 
ATOM     30  C   UNL     1      -2.873  -4.334  11.109  0.00  0.00    -0.078 C 
ATOM     31  C   UNL     1      -2.170  -4.262  12.467  0.00  0.00    -0.019 C 
ATOM     32  C   UNL     1      -2.357  -5.591  13.204  0.00  0.00    -0.003 C 
ATOM     33  C   UNL     1      -1.803  -6.728  12.341  0.00  0.00    -0.015 C 
ATOM     34  C   UNL     1      -2.517  -6.728  10.987  0.00  0.00    -0.069 C 
ATOM     35  H   UNL     1      -1.222  -5.271  10.245  0.00  0.00    -0.081 HD
BRANCH  34  36
ATOM     36  C   UNL     1      -1.952  -7.850  10.113  0.00  0.00    -0.019 C 
ATOM     37  C   UNL     1      -2.219  -9.200  10.781  0.00  0.00    +0.002 C 
ENDBRANCH  34  36
ENDBRANCH  28  29
ENDBRANCH  27  28
ENDBRANCH  26  27
ENDBRANCH  24  26
ENDBRANCH  21  22
ENDBRANCH   5  21
TORSDOF 9
