REMARK  Name = ZINC31167834
REMARK  18 active torsions:
REMARK  status: ('A' for Active; 'I' for Inactive)
REMARK    1  A    between atoms: C_1  and  C_2
REMARK    2  A    between atoms: C_2  and  C_3
REMARK    3  A    between atoms: C_2  and  C_4
REMARK    4  A    between atoms: C_4  and  C_5
REMARK    5  A    between atoms: C_5  and  C_6
REMARK    6  A    between atoms: C_6  and  O_37
REMARK    7  A    between atoms: C_7  and  O_36
REMARK    8  A    between atoms: C_9  and  C_34
REMARK    9  A    between atoms: C_9  and  C_35
REMARK   10  A    between atoms: C_10  and  O_17
REMARK   11  A    between atoms: C_12  and  C_15
REMARK   12  A    between atoms: C_12  and  C_16
REMARK   13  A    between atoms: O_17  and  C_18
REMARK   14  A    between atoms: C_20  and  O_33
REMARK   15  A    between atoms: C_22  and  O_32
REMARK   16  A    between atoms: C_24  and  O_31
REMARK   17  A    between atoms: C_26  and  C_29
REMARK   18  A    between atoms: C_29  and  O_30
REMARK                            x       y       z     vdW  Elec       q    Type
REMARK                         _______ _______ _______ _____ _____    ______ ____
ROOT
ATOM      1  C   UNL     1       3.196   0.244  -1.977  0.00  0.00    +0.150 C 
ATOM      2  C   UNL     1       2.547   0.407  -0.607  0.00  0.00    +0.161 C 
ATOM      3  C   UNL     1       1.821   1.735  -0.454  0.00  0.00    +0.021 C 
ATOM      4  C   UNL     1       2.685   2.938  -0.784  0.00  0.00    +0.142 C 
ATOM      5  C   UNL     1       3.477   2.839  -2.079  0.00  0.00    +0.053 C 
ATOM      6  C   UNL     1       4.042   1.456  -2.275  0.00  0.00    +0.175 C 
ATOM      7  O   UNL     1       5.180   1.317  -2.674  0.00  0.00    -0.294 OA
ATOM      8  C   UNL     1       4.659   3.829  -2.000  0.00  0.00    +0.021 C 
ATOM      9  C   UNL     1       2.620   3.237  -3.284  0.00  0.00    +0.021 C 
ATOM     10  C   UNL     1       0.529   1.741  -1.276  0.00  0.00    +0.016 C 
ATOM     11  C   UNL     1       1.405   1.860   1.032  0.00  0.00    +0.016 C 
ENDROOT
BRANCH   2  12
ATOM     12  O   UNL     1       1.619  -0.666  -0.394  0.00  0.00    -0.388 OA
ATOM     13  H   UNL     1       1.048  -0.721   0.545  0.00  0.00    +0.210 HD
ENDBRANCH   2  12
BRANCH   1  14
ATOM     14  O   UNL     1       2.211   0.061  -2.994  0.00  0.00    -0.378 OA
ATOM     15  H   UNL     1       1.457   0.841  -3.177  0.00  0.00    +0.211 HD
ENDBRANCH   1  14
BRANCH   1  16
ATOM     16  C   UNL     1       4.105  -0.997  -1.951  0.00  0.00    +0.045 C 
BRANCH  16  17
ATOM     17  C   UNL     1       5.104  -0.873  -0.799  0.00  0.00    +0.006 C 
BRANCH  17  19
ATOM     18  C   UNL     1       6.932  -1.936  -2.130  0.00  0.00    +0.007 C 
ATOM     19  C   UNL     1       6.093  -2.039  -0.854  0.00  0.00    -0.017 C 
ATOM     20  C   UNL     1       7.013  -1.985   0.367  0.00  0.00    +0.007 C 
ENDBRANCH  17  19
ENDBRANCH  16  17
ENDBRANCH   1  16
BRANCH   4  21
ATOM     21  O   UNL     1       3.598   3.169   0.303  0.00  0.00    -0.344 OA
BRANCH  21  22
ATOM     22  C   UNL     1       3.281   4.316   1.094  0.00  0.00    +0.282 C 
ATOM     23  C   UNL     1       4.155   4.326   2.351  0.00  0.00    +0.201 C 
ATOM     24  C   UNL     1       3.853   5.589   3.164  0.00  0.00    +0.179 C 
ATOM     25  C   UNL     1       4.089   6.818   2.282  0.00  0.00    +0.177 C 
ATOM     26  C   UNL     1       3.218   6.712   1.028  0.00  0.00    +0.178 C 
ATOM     27  O   UNL     1       3.528   5.501   0.335  0.00  0.00    -0.341 OA
BRANCH  25  28
ATOM     28  O   UNL     1       3.741   8.000   3.006  0.00  0.00    -0.386 OA
ATOM     29  H   UNL     1       3.845   8.987   2.532  0.00  0.00    +0.210 HD
ENDBRANCH  25  28
BRANCH  24  30
ATOM     30  O   UNL     1       4.716   5.643   4.301  0.00  0.00    -0.386 OA
ATOM     31  H   UNL     1       4.645   6.485   5.006  0.00  0.00    +0.210 HD
ENDBRANCH  24  30
BRANCH  23  32
ATOM     32  O   UNL     1       3.869   3.170   3.141  0.00  0.00    -0.384 OA
ATOM     33  H   UNL     1       4.403   3.005   4.088  0.00  0.00    +0.210 HD
ENDBRANCH  23  32
BRANCH  26  34
ATOM     34  C   UNL     1       3.493   7.907   0.113  0.00  0.00    +0.190 C 
BRANCH  34  35
ATOM     35  O   UNL     1       2.599   7.870  -1.002  0.00  0.00    -0.392 OA
ATOM     36  H   UNL     1       2.647   8.653  -1.772  0.00  0.00    +0.210 HD
ENDBRANCH  34  35
ENDBRANCH  26  34
ENDBRANCH  21  22
ENDBRANCH   4  21
TORSDOF 12
