REMARK  Name = ZINC15033371
REMARK  6 active torsions:
REMARK  status: ('A' for Active; 'I' for Inactive)
REMARK    1  A    between atoms: C_4  and  C_7
REMARK    2  A    between atoms: C_16  and  C_17
REMARK    3  A    between atoms: C_16  and  N_61
REMARK    4  A    between atoms: N_19  and  C_20
REMARK    5  A    between atoms: C_24  and  S_26
REMARK    6  A    between atoms: S_26  and  N_29
REMARK                            x       y       z     vdW  Elec       q    Type
REMARK                         _______ _______ _______ _____ _____    ______ ____
ROOT
ATOM      1  C   UNL     1      -2.325  -1.904   5.607  0.00  0.00    +0.201 C 
ATOM      2  O   UNL     1      -1.268  -2.073   6.177  0.00  0.00    -0.278 OA
ATOM      3  N   UNL     1      -2.344  -1.403   4.356  0.00  0.00    -0.287 N 
ATOM      4  H   UNL     1      -3.191  -1.204   3.926  0.00  0.00    +0.155 HD
ENDROOT
BRANCH   3   5
ATOM      5  C   UNL     1      -1.143  -1.168   3.679  0.00  0.00    +0.035 A 
ATOM      6  C   UNL     1      -0.022  -0.737   4.377  0.00  0.00    +0.023 A 
ATOM      7  C   UNL     1       1.162  -0.506   3.705  0.00  0.00    +0.004 A 
ATOM      8  C   UNL     1       1.234  -0.709   2.339  0.00  0.00    +0.028 A 
ATOM      9  C   UNL     1       0.119  -1.133   1.640  0.00  0.00    +0.107 A 
ATOM     10  C   UNL     1      -1.069  -1.365   2.306  0.00  0.00    +0.051 A 
BRANCH   9  11
ATOM     11  S   UNL     1       0.214  -1.383  -0.102  0.00  0.00    +0.061 S 
ATOM     12  O   UNL     1      -0.811  -2.308  -0.436  0.00  0.00    -0.153 OA
ATOM     13  O   UNL     1       1.582  -1.620  -0.404  0.00  0.00    -0.153 OA
BRANCH  11  14
ATOM     14  N   UNL     1      -0.189   0.052  -0.825  0.00  0.00    -0.172 NA
ATOM     15  C   UNL     1      -1.584   0.356  -1.178  0.00  0.00    +0.137 C 
ATOM     16  C   UNL     1      -1.928   1.746  -0.617  0.00  0.00    +0.177 C 
ATOM     17  O   UNL     1      -0.943   2.685  -1.056  0.00  0.00    -0.377 OA
ATOM     18  C   UNL     1       0.379   2.409  -0.586  0.00  0.00    +0.177 C 
ATOM     19  C   UNL     1       0.840   1.056  -1.140  0.00  0.00    +0.137 C 
ENDBRANCH  11  14
ENDBRANCH   9  11
ENDBRANCH   3   5
BRANCH   1  20
ATOM     20  C   UNL     1      -3.618  -2.254   6.298  0.00  0.00    +0.020 C 
BRANCH  20  29
ATOM     21  C   UNL     1      -4.561  -2.906   8.431  0.00  0.00    -0.005 C 
ATOM     22  C   UNL     1      -4.203  -3.473   9.801  0.00  0.00    -0.047 A 
ATOM     23  C   UNL     1      -5.030  -3.386  10.918  0.00  0.00    +0.010 A 
ATOM     24  C   UNL     1      -4.633  -3.917  12.098  0.00  0.00    +0.045 A 
ATOM     25  S   UNL     1      -3.029  -4.584  11.681  0.00  0.00    -0.101 S 
ATOM     26  C   UNL     1      -3.010  -4.109   9.976  0.00  0.00    -0.010 A 
ATOM     27  C   UNL     1      -1.958  -4.332   8.938  0.00  0.00    +0.024 C 
ATOM     28  C   UNL     1      -2.587  -4.043   7.565  0.00  0.00    -0.072 C 
ATOM     29  N   UNL     1      -3.309  -2.751   7.654  0.00  0.00    +0.393 N 
ATOM     30  H   UNL     1      -2.707  -2.067   8.129  0.00  0.00    -0.080 HD
BRANCH  21  34
ATOM     31  C   UNL     1      -6.376   0.932   8.897  0.00  0.00    +0.000 A 
ATOM     32  C   UNL     1      -7.163  -0.181   8.663  0.00  0.00    +0.000 A 
ATOM     33  C   UNL     1      -6.575  -1.423   8.512  0.00  0.00    +0.002 A 
ATOM     34  C   UNL     1      -5.201  -1.552   8.595  0.00  0.00    -0.057 A 
ATOM     35  C   UNL     1      -4.415  -0.440   8.834  0.00  0.00    +0.002 A 
ATOM     36  C   UNL     1      -5.003   0.802   8.980  0.00  0.00    +0.000 A 
ENDBRANCH  21  34
ENDBRANCH  20  29
ENDBRANCH   1  20
TORSDOF 6
