REMARK  Name = ZINC08680448
REMARK  5 active torsions:
REMARK  status: ('A' for Active; 'I' for Inactive)
REMARK    1  A    between atoms: C_6  and  N_7
REMARK    2  A    between atoms: C_8  and  C_10
REMARK    3  A    between atoms: C_10  and  N_11
REMARK    4  A    between atoms: N_15  and  S_18
REMARK    5  A    between atoms: S_18  and  C_21
REMARK                            x       y       z     vdW  Elec       q    Type
REMARK                         _______ _______ _______ _____ _____    ______ ____
ROOT
ATOM      1  N   UNL     1      -2.193  -4.265  -0.312  0.00  0.00    +0.386 N 
ATOM      2  C   UNL     1      -1.377  -4.484  -1.504  0.00  0.00    -0.077 C 
ATOM      3  C   UNL     1      -0.495  -5.694  -1.289  0.00  0.00    -0.001 C 
ATOM      4  C   UNL     1      -1.196  -6.946  -1.848  0.00  0.00    +0.107 C 
ATOM      5  N   UNL     1      -2.642  -6.921  -1.550  0.00  0.00    -0.178 NA
ATOM      6  C   UNL     1      -3.163  -6.492  -0.269  0.00  0.00    +0.091 C 
ATOM      7  C   UNL     1      -3.419  -4.966  -0.292  0.00  0.00    -0.061 C 
ATOM      8  H   UNL     1      -1.654  -4.543   0.495  0.00  0.00    -0.081 HD
ENDROOT
BRANCH   5   9
ATOM      9  S   UNL     1      -3.707  -7.402  -2.724  0.00  0.00    +0.067 S 
ATOM     10  O   UNL     1      -4.949  -6.780  -2.425  0.00  0.00    -0.152 OA
ATOM     11  O   UNL     1      -3.046  -7.225  -3.969  0.00  0.00    -0.152 OA
BRANCH   9  12
ATOM     12  C   UNL     1      -3.952  -9.136  -2.525  0.00  0.00    +0.144 A 
ATOM     13  C   UNL     1      -4.879  -9.787  -1.781  0.00  0.00    +0.037 A 
ATOM     14  C   UNL     1      -4.884 -11.169  -1.776  0.00  0.00    +0.025 A 
ATOM     15  C   UNL     1      -3.961 -11.833  -2.516  0.00  0.00    +0.057 A 
ATOM     16  S   UNL     1      -3.050 -10.490  -3.259  0.00  0.00    -0.062 S 
ATOM     17 BR   UNL     1      -3.710 -13.697  -2.715  0.00  0.00    -0.043 Br
ENDBRANCH   9  12
ENDBRANCH   5   9
BRANCH   1  18
ATOM     18  C   UNL     1      -2.479  -2.828  -0.204  0.00  0.00    +0.019 C 
BRANCH  18  20
ATOM     19  N   UNL     1      -1.200  -0.722   0.010  0.00  0.00    -0.287 N 
ATOM     20  C   UNL     1      -1.183  -2.065  -0.099  0.00  0.00    +0.201 C 
ATOM     21  O   UNL     1      -0.126  -2.659  -0.113  0.00  0.00    -0.278 OA
ATOM     22  H   UNL     1      -2.045  -0.252   0.089  0.00  0.00    +0.155 HD
BRANCH  19  28
ATOM     23  C   UNL     1       0.065   1.248  -0.586  0.00  0.00    +0.025 A 
ATOM     24  C   UNL     1       1.253   1.953  -0.584  0.00  0.00    +0.022 A 
ATOM     25  C   UNL     1       2.379   1.413   0.010  0.00  0.00    +0.041 A 
ATOM     26  C   UNL     1       2.319   0.165   0.605  0.00  0.00    +0.022 A 
ATOM     27  C   UNL     1       1.135  -0.545   0.606  0.00  0.00    +0.025 A 
ATOM     28  C   UNL     1       0.003  -0.005   0.010  0.00  0.00    +0.033 A 
ATOM     29 CL   UNL     1       3.870   2.302   0.009  0.00  0.00    -0.084 Cl
ENDBRANCH  19  28
ENDBRANCH  18  20
ENDBRANCH   1  18
TORSDOF 5
