REMARK  Name = ZINC36643466
REMARK  11 active torsions:
REMARK  status: ('A' for Active; 'I' for Inactive)
REMARK    1  A    between atoms: C_1  and  C_2
REMARK    2  A    between atoms: C_5  and  C_38
REMARK    3  A    between atoms: N_8  and  S_10
REMARK    4  A    between atoms: S_10  and  C_13
REMARK    5  A    between atoms: C_16  and  C_19
REMARK    6  A    between atoms: N_21  and  C_22
REMARK    7  A    between atoms: C_22  and  C_23
REMARK    8  A    between atoms: C_23  and  C_24
REMARK    9  A    between atoms: C_24  and  N_25
REMARK   10  A    between atoms: N_25  and  C_26
REMARK   11  A    between atoms: N_25  and  C_27
REMARK                            x       y       z     vdW  Elec       q    Type
REMARK                         _______ _______ _______ _____ _____    ______ ____
ROOT
ATOM      1  C   UNL     1       4.714  -3.566   5.837  0.00  0.00    +0.252 C 
ATOM      2  O   UNL     1       5.277  -4.613   5.587  0.00  0.00    -0.270 OA
ATOM      3  N   UNL     1       5.075  -2.848   6.919  0.00  0.00    -0.246 N 
ATOM      4  C   UNL     1       6.167  -3.238   7.676  0.00  0.00    +0.168 A 
ATOM      5  N   UNL     1       6.664  -2.679   8.754  0.00  0.00    -0.221 NA
ATOM      6  C   UNL     1       7.745  -3.173   9.396  0.00  0.00    +0.115 A 
ATOM      7  C   UNL     1       8.376  -2.670  10.560  0.00  0.00    +0.150 A 
ATOM      8  C   UNL     1       9.476  -3.299  11.087  0.00  0.00    +0.040 A 
ATOM      9  C   UNL     1      10.006  -4.442  10.505  0.00  0.00    +0.004 A 
ATOM     10  C   UNL     1       9.413  -4.960   9.368  0.00  0.00    +0.017 A 
ATOM     11  C   UNL     1       8.312  -4.338   8.833  0.00  0.00    +0.044 A 
ATOM     12  S   UNL     1       7.253  -4.637   7.438  0.00  0.00    -0.052 S 
ATOM     13  F   UNL     1       7.891  -1.559  11.156  0.00  0.00    -0.203 F 
ENDROOT
BRANCH   1  17
ATOM     14  C   UNL     1       1.606  -2.169   3.302  0.00  0.00    +0.106 A 
ATOM     15  C   UNL     1       2.781  -2.648   2.751  0.00  0.00    +0.029 A 
ATOM     16  C   UNL     1       3.794  -3.103   3.568  0.00  0.00    +0.015 A 
ATOM     17  C   UNL     1       3.633  -3.079   4.955  0.00  0.00    +0.037 A 
ATOM     18  C   UNL     1       2.445  -2.594   5.504  0.00  0.00    +0.015 A 
ATOM     19  C   UNL     1       1.441  -2.137   4.675  0.00  0.00    +0.029 A 
BRANCH  14  20
ATOM     20  S   UNL     1       0.316  -1.589   2.250  0.00  0.00    +0.061 S 
ATOM     21  O   UNL     1      -0.891  -1.694   2.992  0.00  0.00    -0.153 OA
ATOM     22  O   UNL     1       0.497  -2.230   0.995  0.00  0.00    -0.153 OA
BRANCH  20  28
ATOM     23  C   UNL     1      -1.299   3.169   2.966  0.00  0.00    +0.009 C 
ATOM     24  C   UNL     1      -0.794   2.043   2.062  0.00  0.00    +0.002 C 
ATOM     25  C   UNL     1       0.120   2.626   0.982  0.00  0.00    +0.009 C 
ATOM     26  C   UNL     1       0.599   1.505   0.057  0.00  0.00    +0.002 C 
ATOM     27  C   UNL     1       1.401   0.485   0.871  0.00  0.00    +0.112 C 
ATOM     28  N   UNL     1       0.578   0.026   1.998  0.00  0.00    -0.176 NA
ATOM     29  C   UNL     1      -0.008   1.029   2.899  0.00  0.00    +0.112 C 
ATOM     30  C   UNL     1       1.486   2.093  -1.042  0.00  0.00    +0.009 C 
ENDBRANCH  20  28
ENDBRANCH  14  20
ENDBRANCH   1  17
BRANCH   3  31
ATOM     31  C   UNL     1       4.313  -1.654   7.294  0.00  0.00    +0.114 C 
BRANCH  31  32
ATOM     32  C   UNL     1       3.317  -2.012   8.400  0.00  0.00    +0.001 C 
BRANCH  32  33
ATOM     33  C   UNL     1       2.430  -0.802   8.697  0.00  0.00    -0.078 C 
BRANCH  33  34
ATOM     34  N   UNL     1       1.474  -1.145   9.759  0.00  0.00    +0.376 N 
ATOM     35  C   UNL     1       2.203  -1.409  11.007  0.00  0.00    -0.097 C 
ATOM     36  C   UNL     1       0.545  -0.025   9.962  0.00  0.00    -0.097 C 
ATOM     37  H   UNL     1       0.956  -1.968   9.492  0.00  0.00    -0.083 HD
ENDBRANCH  33  34
ENDBRANCH  32  33
ENDBRANCH  31  32
ENDBRANCH   3  31
TORSDOF 7
