REMARK  Name = ZINC38980594
REMARK  6 active torsions:
REMARK  status: ('A' for Active; 'I' for Inactive)
REMARK    1  A    between atoms: C_1  and  C_2
REMARK    2  A    between atoms: C_2  and  C_3
REMARK    3  A    between atoms: C_6  and  N_9
REMARK    4  A    between atoms: N_9  and  C_10
REMARK    5  A    between atoms: N_13  and  S_14
REMARK    6  A    between atoms: S_14  and  C_17
REMARK                            x       y       z     vdW  Elec       q    Type
REMARK                         _______ _______ _______ _____ _____    ______ ____
ROOT
ATOM      1  C   UNL     1       4.116  -1.959  -4.674  0.00  0.00    +0.237 C 
ATOM      2  C   UNL     1       4.638  -1.173  -5.856  0.00  0.00    +0.192 C 
ATOM      3  N   UNL     1       4.380   0.096  -5.970  0.00  0.00    -0.110 NA
ATOM      4  N   UNL     1       5.373  -1.805  -6.785  0.00  0.00    -0.226 NA
ATOM      5  C   UNL     1       5.649  -3.089  -6.691  0.00  0.00    +0.089 A 
ATOM      6  C   UNL     1       6.428  -3.724  -7.691  0.00  0.00    +0.030 A 
ATOM      7  C   UNL     1       6.713  -5.042  -7.601  0.00  0.00    +0.002 A 
ATOM      8  C   UNL     1       6.267  -5.844  -6.537  0.00  0.00    +0.002 A 
ATOM      9  C   UNL     1       5.518  -5.340  -5.532  0.00  0.00    +0.027 A 
ATOM     10  C   UNL     1       5.164  -3.913  -5.556  0.00  0.00    +0.063 A 
ATOM     11  N   UNL     1       4.444  -3.392  -4.604  0.00  0.00    -0.359 N 
ATOM     12  H   UNL     1       4.131  -3.936  -3.865  0.00  0.00    +0.162 HD
ENDROOT
BRANCH   3  13
ATOM     13  S   UNL     1       4.958   0.945  -7.269  0.00  0.00    +0.103 S 
ATOM     14  O   UNL     1       6.373   0.964  -7.145  0.00  0.00    -0.146 OA
ATOM     15  O   UNL     1       4.301   0.427  -8.418  0.00  0.00    -0.146 OA
BRANCH  13  16
ATOM     16  C   UNL     1       4.414   2.611  -7.087  0.00  0.00    +0.141 A 
ATOM     17  C   UNL     1       5.319   3.600  -6.902  0.00  0.00    +0.031 A 
ATOM     18  C   UNL     1       4.925   4.930  -6.754  0.00  0.00    +0.004 A 
ATOM     19  C   UNL     1       3.620   5.289  -6.789  0.00  0.00    +0.031 A 
ATOM     20  C   UNL     1       2.614   4.304  -6.979  0.00  0.00    +0.102 A 
ATOM     21  C   UNL     1       3.026   2.914  -7.139  0.00  0.00    +0.127 A 
ATOM     22  N   UNL     1       2.001   2.080  -7.317  0.00  0.00    -0.189 NA
ATOM     23  S   UNL     1       0.682   3.000  -7.284  0.00  0.00    +0.117 S 
ATOM     24  N   UNL     1       1.292   4.469  -7.040  0.00  0.00    -0.191 NA
ENDBRANCH  13  16
ENDBRANCH   3  13
BRANCH   1  25
ATOM     25  N   UNL     1       2.656  -1.833  -4.663  0.00  0.00    -0.318 N 
ATOM     26  H   UNL     1       2.147  -2.029  -5.465  0.00  0.00    +0.148 HD
BRANCH  25  30
ATOM     27  C   UNL     1       0.695  -0.636  -1.191  0.00  0.00    -0.048 A 
ATOM     28  C   UNL     1       2.049  -0.916  -1.157  0.00  0.00    +0.005 A 
ATOM     29  C   UNL     1       2.703  -1.314  -2.307  0.00  0.00    +0.023 A 
ATOM     30  C   UNL     1       1.998  -1.432  -3.498  0.00  0.00    +0.029 A 
ATOM     31  C   UNL     1       0.639  -1.149  -3.529  0.00  0.00    +0.023 A 
ATOM     32  C   UNL     1      -0.010  -0.758  -2.374  0.00  0.00    +0.005 A 
BRANCH  27  34
ATOM     33  C   UNL     1      -0.541  -1.434   0.804  0.00  0.00    +0.009 C 
ATOM     34  C   UNL     1      -0.014  -0.202   0.066  0.00  0.00    +0.032 C 
ENDBRANCH  27  34
ENDBRANCH  25  30
ENDBRANCH   1  25
TORSDOF 5
