REMARK  Name = ZINC42294402
REMARK  6 active torsions:
REMARK  status: ('A' for Active; 'I' for Inactive)
REMARK    1  A    between atoms: C_1  and  C_2
REMARK    2  A    between atoms: C_3  and  N_17
REMARK    3  A    between atoms: C_4  and  N_8
REMARK    4  A    between atoms: N_5  and  C_7
REMARK    5  A    between atoms: N_8  and  C_9
REMARK    6  A    between atoms: C_9  and  C_10
REMARK                            x       y       z     vdW  Elec       q    Type
REMARK                         _______ _______ _______ _____ _____    ______ ____
ROOT
ATOM      1  C   UNL     1      -0.383   1.587   0.246  0.00  0.00    +0.067 C 
ATOM      2  C   UNL     1      -0.125   0.103   0.203  0.00  0.00    +0.054 A 
ATOM      3  C   UNL     1       0.077  -0.659  -0.954  0.00  0.00    +0.085 A 
ATOM      4  C   UNL     1       0.276  -1.953  -0.571  0.00  0.00    +0.136 A 
ATOM      5  N   UNL     1       0.200  -1.993   0.787  0.00  0.00    -0.275 N 
ATOM      6  N   UNL     1      -0.047  -0.691   1.241  0.00  0.00    -0.299 N 
ATOM      7  C   UNL     1       0.354  -3.184   1.625  0.00  0.00    +0.172 C 
ATOM      8  H   UNL     1      -0.146  -0.423   2.168  0.00  0.00    +0.187 HD
ENDROOT
BRANCH   3   9
ATOM      9  N   UNL     1       0.074  -0.174  -2.282  0.00  0.00    -0.354 N 
ATOM     10  H   UNL     1      -0.078   0.769  -2.454  0.00  0.00    +0.142 HD
ATOM     11  H   UNL     1       0.224  -0.783  -3.021  0.00  0.00    +0.142 HD
ENDBRANCH   3   9
BRANCH   4  12
ATOM     12  N   UNL     1       0.515  -3.038  -1.418  0.00  0.00    -0.324 N 
ATOM     13  H   UNL     1       0.565  -2.903  -2.377  0.00  0.00    +0.148 HD
BRANCH  12  14
ATOM     14  C   UNL     1       0.692  -4.380  -0.857  0.00  0.00    +0.138 C 
BRANCH  14  15
ATOM     15  C   UNL     1       1.081  -5.336  -1.955  0.00  0.00    -0.030 A 
ATOM     16  C   UNL     1       0.103  -6.007  -2.666  0.00  0.00    +0.006 A 
ATOM     17  C   UNL     1       0.460  -6.883  -3.673  0.00  0.00    +0.015 A 
ATOM     18  C   UNL     1       1.795  -7.089  -3.970  0.00  0.00    +0.018 A 
ATOM     19  C   UNL     1       2.773  -6.418  -3.259  0.00  0.00    +0.015 A 
ATOM     20  C   UNL     1       2.415  -5.537  -2.255  0.00  0.00    +0.006 A 
ATOM     21 BR   UNL     1       2.284  -8.289  -5.348  0.00  0.00    -0.050 Br
ENDBRANCH  14  15
ENDBRANCH  12  14
ENDBRANCH   4  12
TORSDOF 4
