REMARK  Name = ZINC48395444
REMARK  8 active torsions:
REMARK  status: ('A' for Active; 'I' for Inactive)
REMARK    1  A    between atoms: C_1  and  S_2
REMARK    2  A    between atoms: S_2  and  N_5
REMARK    3  A    between atoms: N_5  and  C_6
REMARK    4  A    between atoms: C_6  and  C_7
REMARK    5  A    between atoms: C_7  and  C_8
REMARK    6  A    between atoms: C_8  and  N_9
REMARK    7  A    between atoms: N_12  and  C_13
REMARK    8  A    between atoms: N_16  and  C_19
REMARK                            x       y       z     vdW  Elec       q    Type
REMARK                         _______ _______ _______ _____ _____    ______ ____
ROOT
ATOM      1  N   UNL     1       4.828  -1.247  -4.031  0.00  0.00    -0.299 N 
ATOM      2  C   UNL     1       6.122  -1.086  -4.374  0.00  0.00    +0.300 C 
ATOM      3  O   UNL     1       6.823  -0.312  -3.753  0.00  0.00    -0.253 OA
ATOM      4  N   UNL     1       6.637  -1.784  -5.405  0.00  0.00    -0.297 N 
ATOM      5  H   UNL     1       4.268  -1.865  -4.526  0.00  0.00    +0.150 HD
ATOM      6  H   UNL     1       6.077  -2.402  -5.900  0.00  0.00    +0.151 HD
ENDROOT
BRANCH   4   7
ATOM      7  C   UNL     1       8.043  -1.610  -5.777  0.00  0.00    +0.071 C 
ATOM      8  C   UNL     1       8.177  -0.414  -6.724  0.00  0.00    +0.004 C 
ATOM      9  C   UNL     1       9.635  -0.285  -7.172  0.00  0.00    -0.077 C 
ATOM     10  N   UNL     1      10.046  -1.510  -7.868  0.00  0.00    +0.382 N 
ATOM     11  C   UNL     1       9.988  -2.651  -6.946  0.00  0.00    -0.077 C 
ATOM     12  C   UNL     1       8.544  -2.870  -6.489  0.00  0.00    +0.004 C 
ATOM     13  H   UNL     1       9.427  -1.677  -8.647  0.00  0.00    -0.081 HD
BRANCH  10  14
ATOM     14  C   UNL     1      11.420  -1.353  -8.364  0.00  0.00    -0.069 C 
ATOM     15  C   UNL     1      11.619  -1.266  -9.878  0.00  0.00    -0.017 C 
ATOM     16  C   UNL     1      12.037  -2.529  -9.123  0.00  0.00    -0.017 C 
ENDBRANCH  10  14
ENDBRANCH   4   7
BRANCH   1  17
ATOM     17  C   UNL     1       4.268  -0.488  -2.910  0.00  0.00    +0.107 C 
BRANCH  17  18
ATOM     18  C   UNL     1       2.792  -0.854  -2.733  0.00  0.00    +0.035 C 
BRANCH  18  19
ATOM     19  C   UNL     1       2.207  -0.061  -1.563  0.00  0.00    +0.107 C 
BRANCH  19  20
ATOM     20  N   UNL     1       0.795  -0.411  -1.394  0.00  0.00    -0.195 NA
ATOM     21  H   UNL     1       0.324  -0.881  -2.099  0.00  0.00    +0.148 HD
BRANCH  20  23
ATOM     22  C   UNL     1      -0.022   1.810   0.012  0.00  0.00    +0.214 C 
ATOM     23  S   UNL     1       0.002  -0.004   0.002  0.00  0.00    +0.027 S 
ATOM     24  O   UNL     1       0.835  -0.488   1.046  0.00  0.00    -0.158 OA
ATOM     25  O   UNL     1      -1.315  -0.510  -0.168  0.00  0.00    -0.158 OA
ENDBRANCH  20  23
ENDBRANCH  19  20
ENDBRANCH  18  19
ENDBRANCH  17  18
ENDBRANCH   1  17
TORSDOF 7
