REMARK  Name = ZINC52094621
REMARK  6 active torsions:
REMARK  status: ('A' for Active; 'I' for Inactive)
REMARK    1  A    between atoms: C_1  and  C_2
REMARK    2  A    between atoms: C_2  and  N_3
REMARK    3  A    between atoms: N_3  and  C_4
REMARK    4  A    between atoms: C_4  and  C_6
REMARK    5  A    between atoms: C_4  and  C_19
REMARK    6  A    between atoms: C_22  and  C_24
REMARK                            x       y       z     vdW  Elec       q    Type
REMARK                         _______ _______ _______ _____ _____    ______ ____
ROOT
ATOM      1  C   UNL     1      -0.743  -2.471   1.291  0.00  0.00    -0.045 A 
ATOM      2  C   UNL     1      -1.261  -2.053   2.502  0.00  0.00    +0.031 A 
ATOM      3  C   UNL     1      -0.697  -2.503   3.686  0.00  0.00    +0.067 A 
ATOM      4  C   UNL     1       0.392  -3.377   3.650  0.00  0.00    +0.068 A 
ATOM      5  C   UNL     1       0.905  -3.791   2.430  0.00  0.00    +0.043 A 
ATOM      6  C   UNL     1       0.333  -3.341   1.255  0.00  0.00    +0.022 A 
ATOM      7 BR   UNL     1       1.027  -3.912  -0.409  0.00  0.00    -0.050 Br
ATOM      8  N   UNL     1       0.734  -3.649   4.972  0.00  0.00    -0.306 N 
ATOM      9  H   UNL     1       1.456  -4.227   5.264  0.00  0.00    +0.170 HD
ATOM     10  C   UNL     1      -0.108  -2.972   5.776  0.00  0.00    +0.325 A 
ATOM     11  O   UNL     1      -0.081  -2.990   6.992  0.00  0.00    -0.247 OA
ATOM     12  N   UNL     1      -0.982  -2.271   5.029  0.00  0.00    -0.306 N 
ATOM     13  H   UNL     1      -1.691  -1.702   5.369  0.00  0.00    +0.170 HD
ENDROOT
BRANCH   1  14
ATOM     14  C   UNL     1      -1.356  -1.981   0.004  0.00  0.00    -0.036 C 
BRANCH  14  15
ATOM     15  C   UNL     1      -2.558  -2.858  -0.353  0.00  0.00    -0.018 C 
ATOM     16  C   UNL     1      -2.560  -3.527  -1.729  0.00  0.00    +0.006 C 
ATOM     17  C   UNL     1      -2.324  -4.365  -0.470  0.00  0.00    -0.012 C 
ATOM     18  C   UNL     1      -3.453  -5.293  -0.017  0.00  0.00    +0.008 C 
ENDBRANCH  14  15
BRANCH  14  19
ATOM     19  N   UNL     1      -1.797  -0.590   0.170  0.00  0.00    +0.384 N 
ATOM     20  H   UNL     1      -2.419  -0.526   0.962  0.00  0.00    -0.085 HD
ATOM     21  H   UNL     1      -2.280  -0.289  -0.663  0.00  0.00    -0.085 HD
BRANCH  19  23
ATOM     22  C   UNL     1      -1.086   1.720   0.567  0.00  0.00    -0.017 C 
ATOM     23  C   UNL     1      -0.627   0.271   0.395  0.00  0.00    -0.085 C 
ENDBRANCH  19  23
ENDBRANCH  14  19
ENDBRANCH   1  14
TORSDOF 4
