REMARK  Name = ZINC01437163
REMARK  7 active torsions:
REMARK  status: ('A' for Active; 'I' for Inactive)
REMARK    1  A    between atoms: C_1  and  C_2
REMARK    2  A    between atoms: C_2  and  C_35
REMARK    3  A    between atoms: C_6  and  C_26
REMARK    4  A    between atoms: C_8  and  C_24
REMARK    5  A    between atoms: C_9  and  N_23
REMARK    6  A    between atoms: N_10  and  C_11
REMARK    7  A    between atoms: C_12  and  C_21
REMARK                            x       y       z     vdW  Elec       q    Type
REMARK                         _______ _______ _______ _____ _____    ______ ____
ROOT
ATOM      1  C   UNL     1      -0.306  -0.440  -3.311  0.00  0.00    +0.011 C 
ATOM      2  C   UNL     1      -1.712  -0.959  -3.617  0.00  0.00    -0.023 C 
ATOM      3  C   UNL     1      -2.174  -1.887  -2.491  0.00  0.00    +0.058 C 
ATOM      4  C   UNL     1      -2.230  -1.121  -1.193  0.00  0.00    +0.025 C 
ATOM      5  C   UNL     1      -2.508   0.199  -1.175  0.00  0.00    +0.025 C 
ATOM      6  C   UNL     1      -2.567   0.963   0.123  0.00  0.00    +0.099 C 
ATOM      7  C   UNL     1      -2.715   0.034   1.292  0.00  0.00    +0.077 C 
ATOM      8  C   UNL     1      -2.425  -1.288   1.179  0.00  0.00    +0.107 C 
ATOM      9  N   UNL     1      -1.996  -1.800  -0.025  0.00  0.00    -0.253 N 
ATOM     10  C   UNL     1      -2.749   0.905  -2.368  0.00  0.00    +0.162 C 
ATOM     11  O   UNL     1      -3.011   2.091  -2.317  0.00  0.00    -0.292 OA
ATOM     12  C   UNL     1      -2.688   0.219  -3.705  0.00  0.00    +0.086 C 
ATOM     13  C   UNL     1      -1.701  -1.724  -4.942  0.00  0.00    +0.011 C 
ENDROOT
BRANCH   9  14
ATOM     14  C   UNL     1      -1.321  -3.014  -0.057  0.00  0.00    +0.095 A 
ATOM     15  C   UNL     1      -1.848  -4.289  -0.176  0.00  0.00    +0.084 A 
ATOM     16  C   UNL     1      -0.918  -5.409  -0.187  0.00  0.00    -0.018 A 
ATOM     17  C   UNL     1       0.384  -5.069  -0.067  0.00  0.00    -0.004 A 
ATOM     18  S   UNL     1       0.385  -3.299   0.036  0.00  0.00    -0.076 S 
ATOM     19  C   UNL     1       1.570  -5.982  -0.029  0.00  0.00    +0.043 C 
ATOM     20  C   UNL     1       1.476  -6.979  -1.191  0.00  0.00    +0.005 C 
ATOM     21  C   UNL     1       0.701  -8.204  -0.716  0.00  0.00    +0.001 C 
ATOM     22  C   UNL     1      -0.361  -7.792   0.302  0.00  0.00    +0.005 C 
ATOM     23  C   UNL     1      -1.378  -6.853  -0.338  0.00  0.00    +0.037 C 
BRANCH  15  24
ATOM     24  C   UNL     1      -3.260  -4.499  -0.285  0.00  0.00    +0.102 C 
ATOM     25  N   UNL     1      -4.380  -4.665  -0.371  0.00  0.00    -0.191 NA
ENDBRANCH  15  24
ENDBRANCH   9  14
BRANCH   6  26
ATOM     26  C   UNL     1      -1.300   1.762   0.285  0.00  0.00    -0.017 A 
ATOM     27  C   UNL     1      -1.349   3.144   0.381  0.00  0.00    +0.007 A 
ATOM     28  C   UNL     1      -0.158   3.839   0.523  0.00  0.00    +0.020 A 
ATOM     29  C   UNL     1       1.031   3.135   0.569  0.00  0.00    +0.111 A 
ATOM     30  N   UNL     1       1.039   1.819   0.480  0.00  0.00    -0.263 NA
ATOM     31  C   UNL     1      -0.074   1.126   0.344  0.00  0.00    +0.115 A 
ENDBRANCH   6  26
BRANCH   8  32
ATOM     32  N   UNL     1      -2.561  -2.116   2.268  0.00  0.00    -0.345 N 
ATOM     33  H   UNL     1      -2.779  -1.743   3.137  0.00  0.00    +0.144 HD
ATOM     34  H   UNL     1      -2.439  -3.073   2.168  0.00  0.00    +0.144 HD
ENDBRANCH   8  32
BRANCH   7  35
ATOM     35  C   UNL     1      -3.169   0.550   2.549  0.00  0.00    +0.099 C 
ATOM     36  N   UNL     1      -3.529   0.960   3.545  0.00  0.00    -0.191 NA
ENDBRANCH   7  35
TORSDOF 5
