REMARK  Name = ZINC38547624
REMARK  10 active torsions:
REMARK  status: ('A' for Active; 'I' for Inactive)
REMARK    1  A    between atoms: C_1  and  C_2
REMARK    2  A    between atoms: C_6  and  N_8
REMARK    3  A    between atoms: N_8  and  C_9
REMARK    4  A    between atoms: C_9  and  C_11
REMARK    5  A    between atoms: C_9  and  C_21
REMARK    6  A    between atoms: C_14  and  C_17
REMARK    7  A    between atoms: C_22  and  C_35
REMARK    8  A    between atoms: C_23  and  C_34
REMARK    9  A    between atoms: C_25  and  N_26
REMARK   10  A    between atoms: C_27  and  C_29
REMARK                            x       y       z     vdW  Elec       q    Type
REMARK                         _______ _______ _______ _____ _____    ______ ____
ROOT
ATOM      1  C   UNL     1       0.238  -4.195   2.542  0.00  0.00    +0.135 C 
ENDROOT
BRANCH   1   2
ATOM      2  C   UNL     1      -1.002  -4.802   1.939  0.00  0.00    +0.009 A 
ATOM      3  C   UNL     1      -1.674  -5.821   2.589  0.00  0.00    -0.033 A 
ATOM      4  C   UNL     1      -2.786  -6.345   2.019  0.00  0.00    -0.008 A 
ATOM      5  S   UNL     1      -2.918  -5.393   0.515  0.00  0.00    -0.078 S 
ATOM      6  C   UNL     1      -1.485  -4.354   0.747  0.00  0.00    +0.078 A 
ATOM      7  C   UNL     1      -3.680  -7.448   2.525  0.00  0.00    +0.052 C 
ATOM      8  C   UNL     1      -1.176  -6.343   3.913  0.00  0.00    +0.045 C 
BRANCH   6   9
ATOM      9  N   UNL     1      -0.987  -3.346  -0.081  0.00  0.00    -0.273 N 
ATOM     10  C   UNL     1      -1.649  -3.007  -1.204  0.00  0.00    +0.284 C 
ATOM     11  O   UNL     1      -2.730  -3.511  -1.449  0.00  0.00    -0.266 OA
ATOM     12  H   UNL     1      -0.163  -2.889   0.153  0.00  0.00    +0.156 HD
BRANCH  10  13
ATOM     13  C   UNL     1      -1.069  -2.030  -2.131  0.00  0.00    +0.189 A 
ATOM     14  C   UNL     1      -1.673  -1.527  -3.248  0.00  0.00    +0.054 A 
ATOM     15  C   UNL     1      -0.763  -0.630  -3.830  0.00  0.00    +0.042 A 
ATOM     16  C   UNL     1       0.342  -0.625  -3.052  0.00  0.00    +0.196 A 
ATOM     17  O   UNL     1       0.151  -1.466  -2.027  0.00  0.00    -0.458 OA
ENDBRANCH  10  13
ENDBRANCH   6   9
ENDBRANCH   1   2
BRANCH   1  18
ATOM     18  C   UNL     1       1.456  -4.737   1.839  0.00  0.00    -0.023 A 
ATOM     19  C   UNL     1       1.940  -4.104   0.710  0.00  0.00    +0.006 A 
ATOM     20  C   UNL     1       3.057  -4.601   0.065  0.00  0.00    +0.013 A 
ATOM     21  C   UNL     1       3.690  -5.730   0.550  0.00  0.00    +0.055 A 
ATOM     22  C   UNL     1       3.207  -6.362   1.680  0.00  0.00    +0.013 A 
ATOM     23  C   UNL     1       2.092  -5.862   2.328  0.00  0.00    +0.006 A 
BRANCH  21  24
ATOM     24  C   UNL     1       4.908  -6.273  -0.154  0.00  0.00    +0.417 C 
ATOM     25  F   UNL     1       6.058  -5.683   0.382  0.00  0.00    -0.166 F 
ATOM     26  F   UNL     1       4.969  -7.659   0.023  0.00  0.00    -0.166 F 
ATOM     27  F   UNL     1       4.826  -5.980  -1.519  0.00  0.00    -0.166 F 
ENDBRANCH  21  24
ENDBRANCH   1  18
BRANCH   1  28
ATOM     28  N   UNL     1       0.193  -2.739   2.388  0.00  0.00    -0.320 N 
ATOM     29  H   UNL     1       0.637  -2.316   1.637  0.00  0.00    +0.148 HD
BRANCH  28  35
ATOM     30  C   UNL     1      -0.951   1.630   3.978  0.00  0.00    +0.063 C 
ATOM     31  C   UNL     1      -1.054   0.132   4.107  0.00  0.00    +0.014 A 
ATOM     32  C   UNL     1      -1.808  -0.413   5.128  0.00  0.00    +0.021 A 
ATOM     33  C   UNL     1      -1.900  -1.794   5.242  0.00  0.00    +0.005 A 
ATOM     34  C   UNL     1      -1.228  -2.579   4.322  0.00  0.00    +0.041 A 
ATOM     35  C   UNL     1      -0.487  -1.962   3.319  0.00  0.00    +0.097 A 
ATOM     36  N   UNL     1      -0.428  -0.641   3.241  0.00  0.00    -0.347 N 
ATOM     37  H   UNL     1       0.090  -0.233   2.530  0.00  0.00    +0.167 HD
ENDBRANCH  28  35
ENDBRANCH   1  28
TORSDOF 7
