REMARK  Name = ZINC19354140
REMARK  1 active torsions:
REMARK  status: ('A' for Active; 'I' for Inactive)
REMARK    1  A    between atoms: C_2  and  C_13
REMARK                            x       y       z     vdW  Elec       q    Type
REMARK                         _______ _______ _______ _____ _____    ______ ____
ROOT
ATOM      1  C   UNL     1      -1.103  -0.969  -0.009  0.00  0.00    +0.218 C 
ATOM      2  N   UNL     1      -0.570  -2.227   0.544  0.00  0.00    -0.337 N 
ATOM      3  C   UNL     1       0.715  -2.607   0.261  0.00  0.00    +0.159 C 
ATOM      4  N   UNL     1       1.663  -1.718   0.025  0.00  0.00    -0.259 N 
ATOM      5  C   UNL     1       1.324  -0.407  -0.002  0.00  0.00    +0.205 A 
ATOM      6  N   UNL     1       0.002  -0.004   0.002  0.00  0.00    -0.286 N 
ATOM      7  C   UNL     1      -0.017   1.371   0.010  0.00  0.00    +0.076 A 
ATOM      8  C   UNL     1      -1.024   2.326   0.029  0.00  0.00    +0.077 A 
ATOM      9  C   UNL     1      -0.698   3.669   0.032  0.00  0.00    +0.164 A 
ATOM     10  C   UNL     1       0.634   4.072   0.025  0.00  0.00    +0.164 A 
ATOM     11  C   UNL     1       1.647   3.137   0.007  0.00  0.00    +0.079 A 
ATOM     12  C   UNL     1       1.332   1.775  -0.001  0.00  0.00    +0.095 A 
ATOM     13  N   UNL     1       2.096   0.648  -0.014  0.00  0.00    -0.214 NA
ATOM     14  O   UNL     1       0.934   5.405   0.033  0.00  0.00    -0.488 OA
ATOM     15  C   UNL     1       0.599   6.128  -1.152  0.00  0.00    +0.232 C 
ATOM     16  C   UNL     1      -0.855   6.572  -1.121  0.00  0.00    +0.082 C 
ATOM     17  C   UNL     1      -1.819   5.396  -1.139  0.00  0.00    +0.232 C 
ATOM     18  O   UNL     1      -1.687   4.612   0.047  0.00  0.00    -0.488 OA
ATOM     19  N   UNL     1       1.024  -3.940   0.222  0.00  0.00    -0.332 N 
ATOM     20  H   UNL     1       2.052  -4.260  -0.004  0.00  0.00    +0.145 HD
ATOM     21  H   UNL     1       2.698  -2.049  -0.144  0.00  0.00    +0.158 HD
ATOM     22  H   UNL     1       0.244  -4.691   0.417  0.00  0.00    +0.145 HD
ATOM     23  H   UNL     1      -1.203  -2.859   1.184  0.00  0.00    +0.164 HD
ENDROOT
BRANCH   1  25
ATOM     24  C   UNL     1      -2.718  -0.538  -1.873  0.00  0.00    +0.057 A 
ATOM     25  C   UNL     1      -1.583  -1.188  -1.421  0.00  0.00    +0.000 A 
ATOM     26  C   UNL     1      -0.883  -2.033  -2.262  0.00  0.00    +0.031 A 
ATOM     27  C   UNL     1      -1.321  -2.244  -3.559  0.00  0.00    +0.087 A 
ATOM     28  C   UNL     1      -2.457  -1.595  -4.013  0.00  0.00    +0.180 A 
ATOM     29  C   UNL     1      -3.155  -0.743  -3.170  0.00  0.00    +0.164 A 
ATOM     30  O   UNL     1      -4.274  -0.109  -3.628  0.00  0.00    -0.488 OA
ATOM     31  C   UNL     1      -4.062   0.886  -4.631  0.00  0.00    +0.232 C 
ATOM     32  C   UNL     1      -3.991   0.254  -6.012  0.00  0.00    +0.082 C 
ATOM     33  C   UNL     1      -2.790  -0.666  -6.167  0.00  0.00    +0.232 C 
ATOM     34  O   UNL     1      -2.897  -1.790  -5.291  0.00  0.00    -0.487 OA
ATOM     35 CL   UNL     1      -0.446  -3.311  -4.612  0.00  0.00    -0.080 Cl
ENDBRANCH   1  25
TORSDOF 1
