REMARK  Name = ZINC63682873
REMARK  8 active torsions:
REMARK  status: ('A' for Active; 'I' for Inactive)
REMARK    1  A    between atoms: C_1  and  O_2
REMARK    2  A    between atoms: O_2  and  C_3
REMARK    3  A    between atoms: C_5  and  C_26
REMARK    4  A    between atoms: C_6  and  N_11
REMARK    5  A    between atoms: C_8  and  O_9
REMARK    6  A    between atoms: O_9  and  C_10
REMARK    7  A    between atoms: C_12  and  C_14
REMARK    8  A    between atoms: C_20  and  N_23
REMARK                            x       y       z     vdW  Elec       q    Type
REMARK                         _______ _______ _______ _____ _____    ______ ____
ROOT
ATOM      1  N   UNL     1       2.524  -2.534   4.206  0.00  0.00    -0.279 N 
ATOM      2  C   UNL     1       3.193  -3.683   3.986  0.00  0.00    +0.267 C 
ATOM      3  O   UNL     1       3.317  -4.108   2.853  0.00  0.00    -0.268 OA
ATOM      4  H   UNL     1       2.491  -2.155   5.098  0.00  0.00    +0.155 HD
ENDROOT
BRANCH   2   5
ATOM      5  C   UNL     1       3.773  -4.423   5.116  0.00  0.00    +0.127 A 
ATOM      6  C   UNL     1       4.471  -5.586   5.022  0.00  0.00    +0.043 A 
ATOM      7  C   UNL     1       4.854  -5.967   6.331  0.00  0.00    +0.005 A 
ATOM      8  C   UNL     1       5.574  -7.053   6.845  0.00  0.00    +0.010 A 
ATOM      9  C   UNL     1       5.787  -7.151   8.189  0.00  0.00    +0.003 A 
ATOM     10  C   UNL     1       5.295  -6.182   9.056  0.00  0.00    +0.035 A 
ATOM     11  C   UNL     1       4.584  -5.106   8.575  0.00  0.00    +0.152 A 
ATOM     12  C   UNL     1       4.354  -4.983   7.207  0.00  0.00    +0.102 A 
ATOM     13  N   UNL     1       3.701  -4.045   6.443  0.00  0.00    -0.240 NA
BRANCH  11  14
ATOM     14  N   UNL     1       4.066  -4.082   9.509  0.00  0.00    +0.059 N 
ATOM     15  O   UNL     1       4.266  -4.190  10.697  0.00  0.00    -0.126 OA
ATOM     16  O   UNL     1       3.441  -3.137   9.085  0.00  0.00    -0.126 OA
ENDBRANCH  11  14
ENDBRANCH   2   5
BRANCH   1  20
ATOM     17  C   UNL     1       0.597  -0.598   1.046  0.00  0.00    +0.162 A 
ATOM     18  C   UNL     1       1.183   0.151   2.046  0.00  0.00    +0.064 A 
ATOM     19  C   UNL     1       1.830  -0.488   3.108  0.00  0.00    +0.061 A 
ATOM     20  C   UNL     1       1.881  -1.890   3.151  0.00  0.00    +0.050 A 
ATOM     21  C   UNL     1       1.289  -2.632   2.141  0.00  0.00    +0.073 A 
ATOM     22  C   UNL     1       0.645  -1.992   1.095  0.00  0.00    +0.163 A 
BRANCH  19  23
ATOM     23  C   UNL     1       2.457   0.307   4.178  0.00  0.00    +0.243 C 
ATOM     24  O   UNL     1       2.940  -0.248   5.146  0.00  0.00    -0.270 OA
ATOM     25  N   UNL     1       2.495   1.651   4.084  0.00  0.00    -0.325 N 
ATOM     26  H   UNL     1       2.110   2.095   3.312  0.00  0.00    +0.145 HD
ATOM     27  H   UNL     1       2.908   2.175   4.788  0.00  0.00    +0.145 HD
ENDBRANCH  19  23
BRANCH  17  29
ATOM     28  C   UNL     1      -0.044   1.453   0.025  0.00  0.00    +0.277 C 
ATOM     29  O   UNL     1      -0.033   0.024   0.013  0.00  0.00    -0.491 OA
ENDBRANCH  17  29
BRANCH  22  30
ATOM     30  O   UNL     1       0.062  -2.723   0.110  0.00  0.00    -0.491 OA
ATOM     31  C   UNL     1       0.147  -4.145   0.221  0.00  0.00    +0.277 C 
ENDBRANCH  22  30
ENDBRANCH   1  20
TORSDOF 6
