REMARK  Name = ZINC02858052
REMARK  10 active torsions:
REMARK  status: ('A' for Active; 'I' for Inactive)
REMARK    1  A    between atoms: C_1  and  C_2
REMARK    2  A    between atoms: C_3  and  C_8
REMARK    3  A    between atoms: N_5  and  C_7
REMARK    4  A    between atoms: C_8  and  C_10
REMARK    5  A    between atoms: C_8  and  N_11
REMARK    6  A    between atoms: N_11  and  C_12
REMARK    7  A    between atoms: C_12  and  N_14
REMARK    8  A    between atoms: N_14  and  C_15
REMARK    9  A    between atoms: C_18  and  S_21
REMARK   10  A    between atoms: S_21  and  N_24
REMARK                            x       y       z     vdW  Elec       q    Type
REMARK                         _______ _______ _______ _____ _____    ______ ____
ROOT
ATOM      1  N   UNL     1      -1.738   5.056   0.626  0.00  0.00    -0.297 N 
ATOM      2  H   UNL     1      -0.936   5.508   0.930  0.00  0.00    +0.154 HD
ENDROOT
BRANCH   1   3
ATOM      3  C   UNL     1      -2.683   5.747  -0.140  0.00  0.00    +0.033 A 
ATOM      4  C   UNL     1      -2.271   6.551  -1.195  0.00  0.00    +0.025 A 
ATOM      5  C   UNL     1      -3.206   7.228  -1.952  0.00  0.00    +0.030 A 
ATOM      6  C   UNL     1      -4.552   7.114  -1.655  0.00  0.00    +0.105 A 
ATOM      7  C   UNL     1      -4.966   6.319  -0.602  0.00  0.00    +0.030 A 
ATOM      8  C   UNL     1      -4.036   5.635   0.156  0.00  0.00    +0.025 A 
BRANCH   6   9
ATOM      9  S   UNL     1      -5.742   7.985  -2.620  0.00  0.00    +0.056 S 
ATOM     10  O   UNL     1      -5.141   8.227  -3.885  0.00  0.00    -0.153 OA
ATOM     11  O   UNL     1      -6.970   7.282  -2.482  0.00  0.00    -0.153 OA
BRANCH   9  12
ATOM     12  N   UNL     1      -5.962   9.464  -1.909  0.00  0.00    -0.204 NA
ATOM     13  H   UNL     1      -5.466   9.695  -1.108  0.00  0.00    +0.144 HD
ATOM     14  H   UNL     1      -6.585  10.100  -2.294  0.00  0.00    +0.144 HD
ENDBRANCH   9  12
ENDBRANCH   6   9
ENDBRANCH   1   3
BRANCH   1  15
ATOM     15  C   UNL     1      -1.943   3.762   0.941  0.00  0.00    +0.135 C 
ATOM     16  S   UNL     1      -3.407   2.994   0.498  0.00  0.00    -0.019 S 
BRANCH  15  17
ATOM     17  N   UNL     1      -0.995   3.072   1.606  0.00  0.00    -0.320 N 
ATOM     18  H   UNL     1      -0.165   3.507   1.857  0.00  0.00    +0.148 HD
BRANCH  17  19
ATOM     19  C   UNL     1      -1.217   1.665   1.949  0.00  0.00    +0.102 C 
ATOM     20  C   UNL     1      -0.821   0.783   0.763  0.00  0.00    +0.033 C 
BRANCH  19  23
ATOM     21  C   UNL     1      -1.702  -0.798   3.882  0.00  0.00    +0.068 C 
ATOM     22  C   UNL     1      -0.592   0.215   4.001  0.00  0.00    +0.065 A 
ATOM     23  C   UNL     1      -0.380   1.302   3.148  0.00  0.00    +0.013 A 
ATOM     24  C   UNL     1       0.715   1.967   3.585  0.00  0.00    +0.113 A 
ATOM     25  N   UNL     1       1.173   1.328   4.682  0.00  0.00    -0.274 N 
ATOM     26  N   UNL     1       0.338   0.230   4.922  0.00  0.00    -0.176 NA
ATOM     27  C   UNL     1       2.341   1.713   5.479  0.00  0.00    +0.172 C 
ENDBRANCH  19  23
ENDBRANCH  17  19
ENDBRANCH  15  17
ENDBRANCH   1  15
TORSDOF 7
