REMARK  Name = ZINC17045864
REMARK  9 active torsions:
REMARK  status: ('A' for Active; 'I' for Inactive)
REMARK    1  A    between atoms: C_4  and  C_7
REMARK    2  A    between atoms: C_7  and  O_8
REMARK    3  A    between atoms: O_8  and  C_9
REMARK    4  A    between atoms: C_11  and  N_24
REMARK    5  A    between atoms: C_13  and  O_23
REMARK    6  A    between atoms: C_15  and  O_22
REMARK    7  A    between atoms: C_17  and  C_20
REMARK    8  A    between atoms: C_20  and  O_21
REMARK    9  A    between atoms: C_25  and  C_27
REMARK                            x       y       z     vdW  Elec       q    Type
REMARK                         _______ _______ _______ _____ _____    ______ ____
ROOT
ATOM      1  C   UNL     1      -3.111   4.332  -1.397  0.00  0.00    +0.274 C 
ATOM      2  C   UNL     1      -2.597   4.183   0.037  0.00  0.00    +0.160 C 
ATOM      3  C   UNL     1      -2.397   5.574   0.647  0.00  0.00    +0.171 C 
ATOM      4  C   UNL     1      -1.433   6.372  -0.236  0.00  0.00    +0.176 C 
ATOM      5  C   UNL     1      -1.992   6.437  -1.660  0.00  0.00    +0.178 C 
ATOM      6  O   UNL     1      -2.184   5.110  -2.156  0.00  0.00    -0.341 OA
ENDROOT
BRANCH   2   7
ATOM      7  N   UNL     1      -1.320   3.464   0.027  0.00  0.00    -0.301 N 
ATOM      8  C   UNL     1      -1.305   2.116   0.020  0.00  0.00    +0.245 C 
ATOM      9  O   UNL     1      -2.351   1.497   0.021  0.00  0.00    -0.270 OA
ATOM     10  H   UNL     1      -0.486   3.958   0.026  0.00  0.00    +0.150 HD
BRANCH   8  11
ATOM     11  C   UNL     1      -0.017   1.391   0.010  0.00  0.00    +0.037 A 
ATOM     12  C   UNL     1       1.186   2.100   0.002  0.00  0.00    +0.013 A 
ATOM     13  C   UNL     1       2.385   1.417  -0.013  0.00  0.00    +0.001 A 
ATOM     14  C   UNL     1       2.396   0.034  -0.021  0.00  0.00    +0.000 A 
ATOM     15  C   UNL     1       1.208  -0.674  -0.013  0.00  0.00    +0.001 A 
ATOM     16  C   UNL     1       0.002  -0.004   0.002  0.00  0.00    +0.013 A 
ENDBRANCH   8  11
ENDBRANCH   2   7
BRANCH   4  17
ATOM     17  O   UNL     1      -1.294   7.696   0.282  0.00  0.00    -0.387 OA
ATOM     18  H   UNL     1      -0.700   8.260  -0.232  0.00  0.00    +0.210 HD
ENDBRANCH   4  17
BRANCH   3  19
ATOM     19  O   UNL     1      -1.847   5.446   1.960  0.00  0.00    -0.387 OA
ATOM     20  H   UNL     1      -1.694   6.290   2.406  0.00  0.00    +0.210 HD
ENDBRANCH   3  19
BRANCH   1  21
ATOM     21  O   UNL     1      -4.382   4.985  -1.382  0.00  0.00    -0.345 OA
BRANCH  21  22
ATOM     22  C   UNL     1      -5.056   4.975  -2.642  0.00  0.00    +0.198 C 
BRANCH  22  26
ATOM     23  C   UNL     1      -8.802   6.994  -2.272  0.00  0.00    +0.000 A 
ATOM     24  C   UNL     1      -7.667   7.702  -2.623  0.00  0.00    +0.000 A 
ATOM     25  C   UNL     1      -6.455   7.048  -2.742  0.00  0.00    +0.006 A 
ATOM     26  C   UNL     1      -6.377   5.687  -2.511  0.00  0.00    -0.022 A 
ATOM     27  C   UNL     1      -7.513   4.979  -2.165  0.00  0.00    +0.006 A 
ATOM     28  C   UNL     1      -8.724   5.634  -2.040  0.00  0.00    +0.000 A 
ENDBRANCH  22  26
ENDBRANCH  21  22
ENDBRANCH   1  21
BRANCH   5  29
ATOM     29  C   UNL     1      -1.006   7.181  -2.562  0.00  0.00    +0.190 C 
BRANCH  29  30
ATOM     30  O   UNL     1      -1.578   7.343  -3.862  0.00  0.00    -0.392 OA
ATOM     31  H   UNL     1      -1.007   7.808  -4.488  0.00  0.00    +0.210 HD
ENDBRANCH  29  30
ENDBRANCH   5  29
TORSDOF 9
