REMARK  Name = ZINC40760833
REMARK  11 active torsions:
REMARK  status: ('A' for Active; 'I' for Inactive)
REMARK    1  A    between atoms: C_1  and  C_2
REMARK    2  A    between atoms: C_5  and  S_8
REMARK    3  A    between atoms: S_8  and  N_11
REMARK    4  A    between atoms: N_11  and  N_12
REMARK    5  A    between atoms: C_14  and  N_30
REMARK    6  A    between atoms: C_15  and  N_19
REMARK    7  A    between atoms: N_19  and  C_20
REMARK    8  A    between atoms: C_22  and  C_28
REMARK    9  A    between atoms: C_22  and  C_29
REMARK   10  A    between atoms: C_24  and  C_26
REMARK   11  A    between atoms: C_24  and  C_27
REMARK                            x       y       z     vdW  Elec       q    Type
REMARK                         _______ _______ _______ _____ _____    ______ ____
ROOT
ATOM      1  N   UNL     1       2.216  -4.806   1.155  0.00  0.00    -0.244 N 
ATOM      2  C   UNL     1       2.893  -5.782   1.878  0.00  0.00    +0.159 A 
ATOM      3  C   UNL     1       3.787  -5.423   2.888  0.00  0.00    +0.106 A 
ATOM      4  C   UNL     1       4.439  -6.442   3.584  0.00  0.00    +0.145 A 
ATOM      5  N   UNL     1       4.186  -7.708   3.260  0.00  0.00    -0.219 NA
ATOM      6  C   UNL     1       3.333  -8.004   2.300  0.00  0.00    +0.225 A 
ATOM      7  N   UNL     1       2.693  -7.072   1.623  0.00  0.00    -0.218 NA
ATOM      8  H   UNL     1       2.368  -3.868   1.348  0.00  0.00    +0.169 HD
ENDROOT
BRANCH   3   9
ATOM      9  N   UNL     1       4.025  -4.073   3.196  0.00  0.00    -0.353 N 
ATOM     10  H   UNL     1       3.565  -3.375   2.704  0.00  0.00    +0.143 HD
ATOM     11  H   UNL     1       4.649  -3.839   3.900  0.00  0.00    +0.143 HD
ENDBRANCH   3   9
BRANCH   1  12
ATOM     12  N   UNL     1       1.317  -5.178   0.148  0.00  0.00    -0.109 NA
ATOM     13  H   UNL     1       1.608  -5.759  -0.572  0.00  0.00    +0.172 HD
BRANCH  12  14
ATOM     14  S   UNL     1      -0.244  -4.627   0.187  0.00  0.00    +0.074 S 
ATOM     15  O   UNL     1      -0.765  -4.970   1.464  0.00  0.00    -0.152 OA
ATOM     16  O   UNL     1      -0.855  -5.051  -1.024  0.00  0.00    -0.152 OA
BRANCH  14  21
ATOM     17  C   UNL     1      -0.016   1.399  -0.016  0.00  0.00    +0.044 C 
ATOM     18  C   UNL     1      -0.073  -0.106   0.035  0.00  0.00    -0.050 A 
ATOM     19  C   UNL     1      -0.141  -0.835  -1.138  0.00  0.00    +0.005 A 
ATOM     20  C   UNL     1      -0.194  -2.216  -1.091  0.00  0.00    +0.029 A 
ATOM     21  C   UNL     1      -0.177  -2.867   0.128  0.00  0.00    +0.107 A 
ATOM     22  C   UNL     1      -0.107  -2.138   1.300  0.00  0.00    +0.029 A 
ATOM     23  C   UNL     1      -0.051  -0.758   1.254  0.00  0.00    +0.005 A 
ENDBRANCH  14  21
ENDBRANCH  12  14
ENDBRANCH   1  12
BRANCH   4  24
ATOM     24  N   UNL     1       5.340  -6.140   4.598  0.00  0.00    -0.325 N 
ATOM     25  H   UNL     1       5.520  -5.215   4.827  0.00  0.00    +0.148 HD
BRANCH  24  26
ATOM     26  C   UNL     1       6.020  -7.221   5.322  0.00  0.00    +0.069 C 
ATOM     27  C   UNL     1       5.139  -7.677   6.487  0.00  0.00    +0.009 C 
ATOM     28  C   UNL     1       5.839  -8.795   7.259  0.00  0.00    -0.072 C 
ATOM     29  N   UNL     1       7.176  -8.412   7.688  0.00  0.00    +0.386 N 
ATOM     30  C   UNL     1       8.042  -7.774   6.709  0.00  0.00    -0.072 C 
ATOM     31  C   UNL     1       7.336  -6.696   5.894  0.00  0.00    +0.009 C 
ATOM     32  C   UNL     1       9.191  -7.085   7.484  0.00  0.00    -0.010 C 
ATOM     33  C   UNL     1       8.687  -8.798   5.771  0.00  0.00    -0.010 C 
ATOM     34  C   UNL     1       5.002  -9.068   8.530  0.00  0.00    -0.010 C 
ATOM     35  C   UNL     1       5.845 -10.083   6.436  0.00  0.00    -0.010 C 
ATOM     36  H   UNL     1       7.088  -7.788   8.494  0.00  0.00    -0.084 HD
ATOM     37  H   UNL     1       7.651  -9.245   8.043  0.00  0.00    -0.084 HD
ENDBRANCH  24  26
ENDBRANCH   4  24
TORSDOF 6
