REMARK  Name = ZINC63135268
REMARK  7 active torsions:
REMARK  status: ('A' for Active; 'I' for Inactive)
REMARK    1  A    between atoms: C_7  and  C_10
REMARK    2  A    between atoms: C_10  and  C_12
REMARK    3  A    between atoms: C_10  and  C_29
REMARK    4  A    between atoms: C_12  and  N_13
REMARK    5  A    between atoms: C_14  and  C_16
REMARK    6  A    between atoms: C_16  and  N_17
REMARK    7  A    between atoms: C_21  and  C_24
REMARK                            x       y       z     vdW  Elec       q    Type
REMARK                         _______ _______ _______ _____ _____    ______ ____
ROOT
ATOM      1  C   UNL     1       0.691  -3.186  -0.024  0.00  0.00    +0.066 C 
ENDROOT
BRANCH   1   8
ATOM      2  C   UNL     1      -0.016   1.348   0.009  0.00  0.00    +0.001 A 
ATOM      3  C   UNL     1       1.166   2.101   0.002  0.00  0.00    +0.002 A 
ATOM      4  C   UNL     1       2.391   1.535  -0.013  0.00  0.00    +0.026 A 
ATOM      5  C   UNL     1       2.529   0.120  -0.022  0.00  0.00    +0.043 A 
ATOM      6  N   UNL     1       3.587  -0.654  -0.037  0.00  0.00    -0.380 N 
ATOM      7  C   UNL     1       3.143  -2.053  -0.041  0.00  0.00    +0.145 C 
ATOM      8  C   UNL     1       1.631  -2.008  -0.025  0.00  0.00    -0.033 C 
ATOM      9  C   UNL     1       1.295  -0.698  -0.014  0.00  0.00    -0.000 A 
ATOM     10  C   UNL     1       0.002  -0.004   0.002  0.00  0.00    +0.010 A 
ATOM     11  H   UNL     1       4.509  -0.353  -0.045  0.00  0.00    +0.160 HD
ENDBRANCH   1   8
BRANCH   1  12
ATOM     12  C   UNL     1       0.944  -4.029   1.199  0.00  0.00    -0.020 A 
ATOM     13  C   UNL     1       2.189  -4.591   1.405  0.00  0.00    +0.006 A 
ATOM     14  C   UNL     1       2.422  -5.365   2.527  0.00  0.00    +0.000 A 
ATOM     15  C   UNL     1       1.408  -5.577   3.443  0.00  0.00    +0.001 A 
ATOM     16  C   UNL     1       0.162  -5.016   3.238  0.00  0.00    +0.020 A 
ATOM     17  C   UNL     1      -0.069  -4.237   2.118  0.00  0.00    +0.045 A 
ATOM     18 CL   UNL     1      -1.632  -3.525   1.863  0.00  0.00    -0.083 Cl
ENDBRANCH   1  12
BRANCH   1  19
ATOM     19  C   UNL     1       0.923  -4.026  -1.281  0.00  0.00    +0.116 C 
BRANCH  19  20
ATOM     20  N   UNL     1      -0.070  -5.102  -1.340  0.00  0.00    -0.313 N 
ATOM     21  C   UNL     1      -0.058  -5.974  -2.367  0.00  0.00    +0.232 C 
ATOM     22  O   UNL     1       0.774  -5.869  -3.243  0.00  0.00    -0.274 OA
ATOM     23  H   UNL     1      -0.735  -5.186  -0.639  0.00  0.00    +0.149 HD
BRANCH  21  24
ATOM     24  C   UNL     1      -1.080  -7.080  -2.428  0.00  0.00    +0.226 C 
BRANCH  24  25
ATOM     25  N   UNL     1      -0.857  -7.886  -3.631  0.00  0.00    -0.190 N 
ATOM     26  C   UNL     1      -1.334  -7.600  -4.857  0.00  0.00    +0.419 C 
ATOM     27  O   UNL     1      -2.011  -6.627  -5.125  0.00  0.00    -0.225 OA
ATOM     28  O   UNL     1      -0.958  -8.541  -5.747  0.00  0.00    -0.424 OA
ATOM     29  C   UNL     1       0.134  -9.250  -5.128  0.00  0.00    +0.302 C 
ATOM     30  N   UNL     1      -0.124  -9.044  -3.685  0.00  0.00    -0.192 NA
ATOM     31  H   UNL     1       0.740  -8.950  -3.172  0.00  0.00    +0.149 HD
BRANCH  29  32
ATOM     32  C   UNL     1       0.091 -10.714  -5.484  0.00  0.00    +0.046 A 
ATOM     33  C   UNL     1       0.694 -11.361  -6.512  0.00  0.00    +0.016 A 
ATOM     34  C   UNL     1       0.512 -12.725  -6.644  0.00  0.00    +0.008 A 
ATOM     35  C   UNL     1      -0.262 -13.376  -5.741  0.00  0.00    +0.045 A 
ATOM     36  S   UNL     1      -0.759 -12.048  -4.656  0.00  0.00    -0.096 S 
ENDBRANCH  29  32
ENDBRANCH  24  25
ENDBRANCH  21  24
ENDBRANCH  19  20
ENDBRANCH   1  19
TORSDOF 7
