REMARK  Name = ZINC39710497
REMARK  13 active torsions:
REMARK  status: ('A' for Active; 'I' for Inactive)
REMARK    1  A    between atoms: C_1  and  C_2
REMARK    2  A    between atoms: C_2  and  C_3
REMARK    3  A    between atoms: C_10  and  C_15
REMARK    4  A    between atoms: C_15  and  C_17
REMARK    5  A    between atoms: C_15  and  N_27
REMARK    6  A    between atoms: N_22  and  C_23
REMARK    7  A    between atoms: C_23  and  C_24
REMARK    8  A    between atoms: C_23  and  C_25
REMARK    9  A    between atoms: C_23  and  C_26
REMARK   10  A    between atoms: C_30  and  C_33
REMARK   11  A    between atoms: C_33  and  O_35
REMARK   12  A    between atoms: O_35  and  C_36
REMARK   13  A    between atoms: C_36  and  C_37
REMARK                            x       y       z     vdW  Elec       q    Type
REMARK                         _______ _______ _______ _____ _____    ______ ____
ROOT
ATOM      1  C   UNL     1       5.410  -0.359  -4.470  0.00  0.00    -0.010 C 
ENDROOT
BRANCH   1   9
ATOM      2  C   UNL     1       3.093  -4.859  -7.374  0.00  0.00    -0.047 A 
ATOM      3  C   UNL     1       4.198  -5.666  -7.102  0.00  0.00    +0.005 A 
ATOM      4  C   UNL     1       5.147  -5.326  -6.191  0.00  0.00    +0.024 A 
ATOM      5  C   UNL     1       5.048  -4.120  -5.472  0.00  0.00    +0.040 A 
ATOM      6  N   UNL     1       5.986  -3.797  -4.582  0.00  0.00    -0.285 N 
ATOM      7  C   UNL     1       5.954  -2.681  -3.873  0.00  0.00    +0.223 C 
ATOM      8  O   UNL     1       6.839  -2.440  -3.074  0.00  0.00    -0.275 OA
ATOM      9  C   UNL     1       4.813  -1.706  -4.059  0.00  0.00    +0.088 C 
ATOM     10  C   UNL     1       3.744  -2.070  -5.071  0.00  0.00    -0.006 C 
ATOM     11  C   UNL     1       3.891  -3.249  -5.739  0.00  0.00    -0.007 A 
ATOM     12  C   UNL     1       2.909  -3.674  -6.737  0.00  0.00    +0.013 A 
ATOM     13  H   UNL     1       6.726  -4.409  -4.447  0.00  0.00    +0.155 HD
BRANCH   2  15
ATOM     14  C   UNL     1       2.495  -4.790  -9.779  0.00  0.00    +0.009 C 
ATOM     15  C   UNL     1       2.085  -5.309  -8.400  0.00  0.00    +0.032 C 
ENDBRANCH   2  15
ENDBRANCH   1   9
BRANCH   1  16
ATOM     16  N   UNL     1       6.064  -0.492  -5.778  0.00  0.00    +0.385 N 
ATOM     17  C   UNL     1       5.050  -0.753  -6.806  0.00  0.00    -0.077 C 
ATOM     18  C   UNL     1       5.733  -0.973  -8.158  0.00  0.00    -0.004 C 
ATOM     19  C   UNL     1       6.529   0.281  -8.531  0.00  0.00    +0.094 C 
ATOM     20  C   UNL     1       7.533   0.587  -7.416  0.00  0.00    -0.004 C 
ATOM     21  C   UNL     1       6.783   0.749  -6.092  0.00  0.00    -0.077 C 
ATOM     22  H   UNL     1       6.717  -1.260  -5.750  0.00  0.00    -0.081 HD
BRANCH  19  23
ATOM     23  C   UNL     1       7.267   0.043  -9.823  0.00  0.00    +0.310 C 
ATOM     24  O   UNL     1       7.168  -1.020 -10.389  0.00  0.00    -0.251 OA
BRANCH  23  25
ATOM     25  O   UNL     1       8.035   1.013 -10.346  0.00  0.00    -0.465 OA
BRANCH  25  26
ATOM     26  C   UNL     1       8.706   0.718 -11.572  0.00  0.00    +0.229 C 
ATOM     27  C   UNL     1       9.526   1.934 -12.009  0.00  0.00    +0.048 C 
ENDBRANCH  25  26
ENDBRANCH  23  25
ENDBRANCH  19  23
ENDBRANCH   1  16
BRANCH   1  28
ATOM     28  C   UNL     1       6.439   0.082  -3.427  0.00  0.00    +0.205 C 
ATOM     29  N   UNL     1       7.446  -0.968  -3.225  0.00  0.00    -0.152 NA
ATOM     30  N   UNL     1       7.405  -1.339  -2.050  0.00  0.00    -0.070 NA
ATOM     31  N   UNL     1       6.441  -0.665  -1.302  0.00  0.00    -0.179 N 
ATOM     32  N   UNL     1       5.798   0.244  -2.105  0.00  0.00    -0.183 NA
ATOM     33  H   UNL     1       6.254  -0.814  -0.362  0.00  0.00    +0.191 HD
BRANCH  32  34
ATOM     34  C   UNL     1       4.359  -0.043  -2.180  0.00  0.00    +0.035 C 
ATOM     35  C   UNL     1       4.117  -1.520  -1.866  0.00  0.00    +0.029 C 
ATOM     36  C   UNL     1       3.613   0.824  -1.163  0.00  0.00    +0.029 C 
ATOM     37  C   UNL     1       3.849   0.270  -3.588  0.00  0.00    +0.029 C 
ENDBRANCH  32  34
ENDBRANCH   1  28
TORSDOF 8
