REMARK  Name = ZINC30594780
REMARK  8 active torsions:
REMARK  status: ('A' for Active; 'I' for Inactive)
REMARK    1  A    between atoms: C_4  and  C_7
REMARK    2  A    between atoms: C_8  and  S_9
REMARK    3  A    between atoms: S_9  and  N_12
REMARK    4  A    between atoms: N_15  and  C_18
REMARK    5  A    between atoms: C_18  and  C_19
REMARK    6  A    between atoms: N_24  and  C_25
REMARK    7  A    between atoms: C_25  and  C_26
REMARK    8  A    between atoms: C_26  and  C_27
REMARK                            x       y       z     vdW  Elec       q    Type
REMARK                         _______ _______ _______ _____ _____    ______ ____
ROOT
ATOM      1  N   UNL     1       0.663  -0.477  -1.441  0.00  0.00    -0.181 NA
ATOM      2  C   UNL     1      -0.185  -0.711  -2.619  0.00  0.00    +0.091 C 
ATOM      3  C   UNL     1       0.397   0.086  -3.798  0.00  0.00    -0.061 C 
ATOM      4  N   UNL     1       1.812  -0.269  -3.971  0.00  0.00    +0.387 N 
ATOM      5  C   UNL     1       2.605   0.110  -2.794  0.00  0.00    -0.061 C 
ATOM      6  C   UNL     1       2.114  -0.680  -1.576  0.00  0.00    +0.091 C 
ATOM      7  H   UNL     1       1.872  -1.362  -4.077  0.00  0.00    -0.081 HD
ENDROOT
BRANCH   1   8
ATOM      8  S   UNL     1       0.002  -0.004   0.002  0.00  0.00    +0.054 S 
ATOM      9  O   UNL     1       0.913  -0.404   1.017  0.00  0.00    -0.153 OA
ATOM     10  O   UNL     1      -1.354  -0.428  -0.014  0.00  0.00    -0.153 OA
BRANCH   8  12
ATOM     11  C   UNL     1      -1.179   2.405   0.021  0.00  0.00    +0.028 C 
ATOM     12  C   UNL     1      -0.022   1.758   0.012  0.00  0.00    +0.153 C 
BRANCH  11  16
ATOM     13  C   UNL     1      -1.236   6.652   0.044  0.00  0.00    +0.000 A 
ATOM     14  C   UNL     1      -2.427   5.947   0.046  0.00  0.00    +0.001 A 
ATOM     15  C   UNL     1      -2.415   4.567   0.038  0.00  0.00    +0.008 A 
ATOM     16  C   UNL     1      -1.199   3.883   0.029  0.00  0.00    -0.024 A 
ATOM     17  C   UNL     1      -0.002   4.600   0.033  0.00  0.00    +0.008 A 
ATOM     18  C   UNL     1      -0.027   5.979   0.035  0.00  0.00    +0.001 A 
ENDBRANCH  11  16
ENDBRANCH   8  12
ENDBRANCH   1   8
BRANCH   4  19
ATOM     19  C   UNL     1       2.361   0.336  -5.192  0.00  0.00    +0.019 C 
BRANCH  19  20
ATOM     20  C   UNL     1       1.683  -0.263  -6.397  0.00  0.00    +0.204 C 
ATOM     21  O   UNL     1       0.828  -1.110  -6.254  0.00  0.00    -0.277 OA
ATOM     22  N   UNL     1       2.028   0.143  -7.636  0.00  0.00    -0.242 N 
ATOM     23  C   UNL     1       1.422  -0.392  -8.714  0.00  0.00    +0.306 C 
ATOM     24  O   UNL     1       0.565  -1.241  -8.569  0.00  0.00    -0.252 OA
ATOM     25  N   UNL     1       1.767   0.014  -9.952  0.00  0.00    -0.299 N 
ATOM     26  H   UNL     1       2.804   0.912  -7.766  0.00  0.00    +0.159 HD
ATOM     27  H   UNL     1       2.543   0.782 -10.082  0.00  0.00    +0.150 HD
BRANCH  25  28
ATOM     28  C   UNL     1       1.108  -0.568 -11.124  0.00  0.00    +0.111 C 
BRANCH  28  29
ATOM     29  C   UNL     1       1.680   0.062 -12.395  0.00  0.00    +0.061 C 
BRANCH  29  30
ATOM     30  C   UNL     1       1.002  -0.537 -13.601  0.00  0.00    -0.009 A 
ATOM     31  C   UNL     1      -0.121  -0.128 -14.239  0.00  0.00    +0.011 A 
ATOM     32  C   UNL     1      -0.562  -0.838 -15.341  0.00  0.00    +0.008 A 
ATOM     33  C   UNL     1       0.136  -1.928 -15.743  0.00  0.00    +0.045 A 
ATOM     34  S   UNL     1       1.467  -1.974 -14.554  0.00  0.00    -0.102 S 
ENDBRANCH  29  30
ENDBRANCH  28  29
ENDBRANCH  25  28
ENDBRANCH  19  20
ENDBRANCH   4  19
TORSDOF 8
