REMARK  Name = ZINC08677334
REMARK  8 active torsions:
REMARK  status: ('A' for Active; 'I' for Inactive)
REMARK    1  A    between atoms: C_1  and  C_2
REMARK    2  A    between atoms: C_2  and  O_3
REMARK    3  A    between atoms: O_3  and  C_4
REMARK    4  A    between atoms: C_4  and  C_6
REMARK    5  A    between atoms: C_6  and  C_35
REMARK    6  A    between atoms: C_11  and  C_14
REMARK    7  A    between atoms: C_19  and  C_20
REMARK    8  A    between atoms: N_23  and  C_26
REMARK                            x       y       z     vdW  Elec       q    Type
REMARK                         _______ _______ _______ _____ _____    ______ ____
ROOT
ATOM      1  C   UNL     1      -2.867  -2.532  -0.007  0.00  0.00    +0.070 C 
ATOM      2  C   UNL     1      -2.914  -3.922  -0.675  0.00  0.00    +0.090 C 
ATOM      3  C   UNL     1      -4.247  -3.937  -1.471  0.00  0.00    +0.078 C 
ATOM      4  C   UNL     1      -4.887  -2.560  -1.196  0.00  0.00    -0.026 C 
ATOM      5  N   UNL     1      -3.735  -1.676  -0.857  0.00  0.00    +0.398 N 
ATOM      6  C   UNL     1      -3.793  -4.011  -2.912  0.00  0.00    +0.229 C 
ATOM      7  O   UNL     1      -4.526  -4.043  -3.877  0.00  0.00    -0.275 OA
ATOM      8  N   UNL     1      -2.456  -4.036  -2.955  0.00  0.00    -0.210 N 
ATOM      9  C   UNL     1      -1.849  -3.996  -1.746  0.00  0.00    +0.229 C 
ATOM     10  O   UNL     1      -0.654  -4.013  -1.545  0.00  0.00    -0.275 OA
ATOM     11  H   UNL     1      -4.053  -0.872  -0.337  0.00  0.00    -0.083 HD
ATOM     12  H   UNL     1      -3.241  -1.389  -1.688  0.00  0.00    -0.083 HD
ENDROOT
BRANCH   8  13
ATOM     13  C   UNL     1      -1.737  -4.104  -4.158  0.00  0.00    +0.048 A 
ATOM     14  C   UNL     1      -1.762  -3.035  -5.044  0.00  0.00    +0.028 A 
ATOM     15  C   UNL     1      -1.054  -3.101  -6.228  0.00  0.00    +0.051 A 
ATOM     16  C   UNL     1      -0.317  -4.233  -6.536  0.00  0.00    +0.166 A 
ATOM     17  C   UNL     1      -0.290  -5.307  -5.649  0.00  0.00    +0.168 A 
ATOM     18  C   UNL     1      -0.996  -5.238  -4.460  0.00  0.00    +0.073 A 
ATOM     19  O   UNL     1       0.498  -6.289  -6.177  0.00  0.00    -0.453 OA
ATOM     20  C   UNL     1       0.622  -5.972  -7.576  0.00  0.00    +0.466 C 
ATOM     21  O   UNL     1       0.455  -4.543  -7.619  0.00  0.00    -0.453 OA
ENDBRANCH   8  13
BRANCH   4  22
ATOM     22  C   UNL     1      -5.580  -2.046  -2.432  0.00  0.00    -0.058 A 
ATOM     23  C   UNL     1      -4.913  -1.197  -3.296  0.00  0.00    +0.002 A 
ATOM     24  C   UNL     1      -5.548  -0.726  -4.429  0.00  0.00    +0.000 A 
ATOM     25  C   UNL     1      -6.849  -1.105  -4.700  0.00  0.00    +0.000 A 
ATOM     26  C   UNL     1      -7.516  -1.955  -3.838  0.00  0.00    +0.003 A 
ATOM     27  C   UNL     1      -6.879  -2.429  -2.706  0.00  0.00    -0.049 A 
ATOM     28  C   UNL     1      -7.604  -3.360  -1.768  0.00  0.00    +0.044 C 
ENDBRANCH   4  22
BRANCH   1  29
ATOM     29  C   UNL     1      -3.412  -2.603   1.396  0.00  0.00    -0.047 A 
ATOM     30  C   UNL     1      -3.251  -3.755   2.143  0.00  0.00    +0.003 A 
ATOM     31  C   UNL     1      -3.750  -3.820   3.430  0.00  0.00    +0.000 A 
ATOM     32  C   UNL     1      -4.410  -2.732   3.971  0.00  0.00    +0.000 A 
ATOM     33  C   UNL     1      -4.570  -1.579   3.224  0.00  0.00    +0.000 A 
ATOM     34  C   UNL     1      -4.067  -1.513   1.939  0.00  0.00    +0.003 A 
ENDBRANCH   1  29
BRANCH   1  35
ATOM     35  C   UNL     1      -1.456  -2.002   0.004  0.00  0.00    +0.301 C 
ATOM     36  O   UNL     1      -0.770  -2.132   0.990  0.00  0.00    -0.252 OA
BRANCH  35  37
ATOM     37  O   UNL     1      -0.962  -1.386  -1.081  0.00  0.00    -0.466 OA
BRANCH  37  39
ATOM     38  C   UNL     1       0.767  -0.241  -2.322  0.00  0.00    +0.048 C 
ATOM     39  C   UNL     1       0.382  -0.909  -1.001  0.00  0.00    +0.228 C 
ENDBRANCH  37  39
ENDBRANCH  35  37
ENDBRANCH   1  35
TORSDOF 6
