REMARK  Name = ZINC34869317
REMARK  8 active torsions:
REMARK  status: ('A' for Active; 'I' for Inactive)
REMARK    1  A    between atoms: C_1  and  O_2
REMARK    2  A    between atoms: O_2  and  C_3
REMARK    3  A    between atoms: C_6  and  N_9
REMARK    4  A    between atoms: C_13  and  N_17
REMARK    5  A    between atoms: N_17  and  C_18
REMARK    6  A    between atoms: C_18  and  C_19
REMARK    7  A    between atoms: C_19  and  N_20
REMARK    8  A    between atoms: N_20  and  C_21
REMARK                            x       y       z     vdW  Elec       q    Type
REMARK                         _______ _______ _______ _____ _____    ______ ____
ROOT
ATOM      1  N   UNL     1      -6.965  -4.992  -1.236  0.00  0.00    +0.388 N 
ATOM      2  H   UNL     1      -7.930  -4.979  -1.531  0.00  0.00    -0.085 HD
ATOM      3  H   UNL     1      -6.411  -4.438  -1.872  0.00  0.00    -0.085 HD
ENDROOT
BRANCH   1   8
ATOM      4  N   UNL     1      -5.225  -2.890   0.719  0.00  0.00    -0.212 N 
ATOM      5  C   UNL     1      -6.324  -2.139   0.572  0.00  0.00    +0.225 C 
ATOM      6  O   UNL     1      -6.380  -0.939   0.731  0.00  0.00    -0.275 OA
ATOM      7  C   UNL     1      -7.484  -3.026   0.177  0.00  0.00    +0.090 C 
ATOM      8  C   UNL     1      -6.859  -4.435   0.119  0.00  0.00    +0.026 C 
ATOM      9  C   UNL     1      -5.410  -4.195   0.483  0.00  0.00    +0.213 C 
ATOM     10  O   UNL     1      -4.553  -5.049   0.552  0.00  0.00    -0.277 OA
BRANCH   4  14
ATOM     11  C   UNL     1      -1.527  -1.293   1.804  0.00  0.00    +0.120 A 
ATOM     12  C   UNL     1      -1.806  -1.552   0.469  0.00  0.00    +0.047 A 
ATOM     13  C   UNL     1      -3.030  -2.081   0.110  0.00  0.00    +0.027 A 
ATOM     14  C   UNL     1      -3.981  -2.353   1.084  0.00  0.00    +0.044 A 
ATOM     15  C   UNL     1      -3.702  -2.093   2.418  0.00  0.00    +0.027 A 
ATOM     16  C   UNL     1      -2.475  -1.569   2.777  0.00  0.00    +0.047 A 
BRANCH  11  18
ATOM     17  C   UNL     1       0.607  -0.512   1.103  0.00  0.00    +0.277 C 
ATOM     18  O   UNL     1      -0.322  -0.773   2.157  0.00  0.00    -0.495 OA
ENDBRANCH  11  18
ENDBRANCH   4  14
ENDBRANCH   1   8
BRANCH   1  19
ATOM     19  C   UNL     1      -6.473  -6.376  -1.236  0.00  0.00    -0.063 C 
BRANCH  19  20
ATOM     20  C   UNL     1      -6.583  -6.957  -2.647  0.00  0.00    +0.082 C 
BRANCH  20  21
ATOM     21  N   UNL     1      -6.092  -8.337  -2.647  0.00  0.00    -0.343 N 
ATOM     22  H   UNL     1      -5.661  -8.699  -1.857  0.00  0.00    +0.146 HD
BRANCH  21  23
ATOM     23  C   UNL     1      -6.243  -9.133  -3.787  0.00  0.00    +0.067 A 
ATOM     24  C   UNL     1      -6.064 -10.509  -3.704  0.00  0.00    +0.083 A 
ATOM     25  C   UNL     1      -6.215 -11.294  -4.833  0.00  0.00    +0.081 A 
ATOM     26  C   UNL     1      -6.543 -10.711  -6.045  0.00  0.00    +0.080 A 
ATOM     27  C   UNL     1      -6.721  -9.340  -6.131  0.00  0.00    +0.081 A 
ATOM     28  C   UNL     1      -6.578  -8.551  -5.003  0.00  0.00    +0.083 A 
ATOM     29 CL   UNL     1      -6.808  -6.834  -5.110  0.00  0.00    -0.080 Cl
ATOM     30 CL   UNL     1      -7.131  -8.612  -7.652  0.00  0.00    -0.080 Cl
ATOM     31 CL   UNL     1      -6.730 -11.699  -7.460  0.00  0.00    -0.080 Cl
ATOM     32 CL   UNL     1      -5.991 -13.013  -4.730  0.00  0.00    -0.080 Cl
ATOM     33 CL   UNL     1      -5.653 -11.241  -2.185  0.00  0.00    -0.080 Cl
ENDBRANCH  21  23
ENDBRANCH  20  21
ENDBRANCH  19  20
ENDBRANCH   1  19
TORSDOF 7
