REMARK  Name = ZINC39532265
REMARK  7 active torsions:
REMARK  status: ('A' for Active; 'I' for Inactive)
REMARK    1  A    between atoms: C_1  and  O_2
REMARK    2  A    between atoms: O_2  and  C_3
REMARK    3  A    between atoms: C_8  and  C_9
REMARK    4  A    between atoms: C_12  and  C_14
REMARK    5  A    between atoms: C_14  and  N_15
REMARK    6  A    between atoms: C_18  and  C_22
REMARK    7  A    between atoms: C_22  and  N_23
REMARK                            x       y       z     vdW  Elec       q    Type
REMARK                         _______ _______ _______ _____ _____    ______ ____
ROOT
ATOM      1  C   UNL     1       2.950  -5.771  -0.060  0.00  0.00    +0.147 C 
ENDROOT
BRANCH   1   2
ATOM      2  N   UNL     1       3.271  -6.161   1.315  0.00  0.00    -0.324 N 
ATOM      3  C   UNL     1       4.139  -7.214   1.552  0.00  0.00    +0.122 A 
ATOM      4  C   UNL     1       4.721  -7.907   0.488  0.00  0.00    +0.064 A 
ATOM      5  C   UNL     1       5.580  -8.949   0.777  0.00  0.00    +0.029 A 
ATOM      6  N   UNL     1       5.824  -9.255   2.044  0.00  0.00    -0.242 NA
ATOM      7  C   UNL     1       5.259  -8.581   3.025  0.00  0.00    +0.223 A 
ATOM      8  N   UNL     1       4.437  -7.577   2.796  0.00  0.00    -0.221 NA
ATOM      9  H   UNL     1       2.874  -5.683   2.059  0.00  0.00    +0.148 HD
BRANCH   5  10
ATOM     10  C   UNL     1       6.233  -9.729  -0.335  0.00  0.00    -0.030 C 
BRANCH  10  11
ATOM     11  N   UNL     1       7.565  -9.172  -0.607  0.00  0.00    +0.382 N 
ATOM     12  H   UNL     1       7.476  -8.206  -0.882  0.00  0.00    -0.090 HD
ATOM     13  H   UNL     1       8.132  -9.234   0.225  0.00  0.00    -0.090 HD
ATOM     14  H   UNL     1       8.002  -9.694  -1.352  0.00  0.00    -0.090 HD
ENDBRANCH  10  11
ENDBRANCH   5  10
ENDBRANCH   1   2
BRANCH   1  18
ATOM     15  C   UNL     1      -0.011  -2.830  -0.013  0.00  0.00    +0.112 A 
ATOM     16  N   UNL     1       1.249  -2.419  -0.017  0.00  0.00    -0.247 NA
ATOM     17  C   UNL     1       2.245  -3.275  -0.032  0.00  0.00    +0.124 A 
ATOM     18  C   UNL     1       1.991  -4.610  -0.043  0.00  0.00    +0.027 A 
ATOM     19  S   UNL     1       0.203  -4.606  -0.025  0.00  0.00    -0.070 S 
BRANCH  15  25
ATOM     20  C   UNL     1      -1.200  -0.637   0.010  0.00  0.00    +0.130 A 
ATOM     21  C   UNL     1      -2.373   0.099   0.019  0.00  0.00    +0.046 A 
ATOM     22  C   UNL     1      -3.595  -0.546   0.028  0.00  0.00    +0.004 A 
ATOM     23  C   UNL     1      -3.656  -1.929   0.027  0.00  0.00    +0.001 A 
ATOM     24  C   UNL     1      -2.497  -2.676   0.018  0.00  0.00    +0.014 A 
ATOM     25  C   UNL     1      -1.257  -2.036   0.003  0.00  0.00    +0.049 A 
BRANCH  20  27
ATOM     26  C   UNL     1      -0.017   1.425   0.010  0.00  0.00    +0.277 C 
ATOM     27  O   UNL     1       0.002  -0.004   0.002  0.00  0.00    -0.494 OA
ENDBRANCH  20  27
ENDBRANCH  15  25
ENDBRANCH   1  18
TORSDOF 6
