REMARK  Name = ZINC35455019
REMARK  16 active torsions:
REMARK  status: ('A' for Active; 'I' for Inactive)
REMARK    1  A    between atoms: C_1  and  C_2
REMARK    2  A    between atoms: C_2  and  C_3
REMARK    3  A    between atoms: C_3  and  C_4
REMARK    4  A    between atoms: C_4  and  C_5
REMARK    5  A    between atoms: C_5  and  C_6
REMARK    6  A    between atoms: C_6  and  O_7
REMARK    7  A    between atoms: O_7  and  C_8
REMARK    8  A    between atoms: C_10  and  O_36
REMARK    9  A    between atoms: C_12  and  O_35
REMARK   10  A    between atoms: C_14  and  O_34
REMARK   11  A    between atoms: C_16  and  C_19
REMARK   12  A    between atoms: C_19  and  O_20
REMARK   13  A    between atoms: O_20  and  C_21
REMARK   14  A    between atoms: C_23  and  O_33
REMARK   15  A    between atoms: C_25  and  O_32
REMARK   16  A    between atoms: C_27  and  O_31
REMARK                            x       y       z     vdW  Elec       q    Type
REMARK                         _______ _______ _______ _____ _____    ______ ____
ROOT
ATOM      1  C   UNL     1      -4.261  -6.043   0.010  0.00  0.00    +0.282 C 
ATOM      2  C   UNL     1      -5.715  -6.459  -0.228  0.00  0.00    +0.201 C 
ATOM      3  C   UNL     1      -5.818  -7.986  -0.174  0.00  0.00    +0.179 C 
ATOM      4  C   UNL     1      -5.288  -8.475   1.177  0.00  0.00    +0.177 C 
ATOM      5  C   UNL     1      -3.850  -7.982   1.362  0.00  0.00    +0.178 C 
ATOM      6  O   UNL     1      -3.821  -6.556   1.270  0.00  0.00    -0.341 OA
ENDROOT
BRANCH   4   7
ATOM      7  O   UNL     1      -6.109  -7.959   2.227  0.00  0.00    -0.386 OA
ATOM      8  H   UNL     1      -7.036  -8.229   2.170  0.00  0.00    +0.210 HD
ENDBRANCH   4   7
BRANCH   3   9
ATOM      9  O   UNL     1      -7.183  -8.379  -0.325  0.00  0.00    -0.386 OA
ATOM     10  H   UNL     1      -7.584  -8.097  -1.158  0.00  0.00    +0.210 HD
ENDBRANCH   3   9
BRANCH   2  11
ATOM     11  O   UNL     1      -6.140  -5.995  -1.512  0.00  0.00    -0.384 OA
ATOM     12  H   UNL     1      -6.097  -5.035  -1.617  0.00  0.00    +0.210 HD
ENDBRANCH   2  11
BRANCH   1  13
ATOM     13  O   UNL     1      -4.168  -4.617   0.017  0.00  0.00    -0.349 OA
BRANCH  13  14
ATOM     14  C   UNL     1      -2.827  -4.123   0.007  0.00  0.00    +0.163 C 
BRANCH  14  15
ATOM     15  C   UNL     1      -2.848  -2.593   0.015  0.00  0.00    +0.028 C 
BRANCH  15  16
ATOM     16  C   UNL     1      -1.413  -2.063   0.004  0.00  0.00    +0.002 C 
BRANCH  16  17
ATOM     17  C   UNL     1      -1.433  -0.534   0.013  0.00  0.00    -0.000 C 
BRANCH  17  19
ATOM     18  C   UNL     1      -0.019   1.526   0.010  0.00  0.00    +0.004 C 
ATOM     19  C   UNL     1       0.002  -0.004   0.002  0.00  0.00    -0.003 C 
ENDBRANCH  17  19
ENDBRANCH  16  17
ENDBRANCH  15  16
ENDBRANCH  14  15
ENDBRANCH  13  14
ENDBRANCH   1  13
BRANCH   5  20
ATOM     20  C   UNL     1      -3.334  -8.415   2.735  0.00  0.00    +0.197 C 
BRANCH  20  21
ATOM     21  O   UNL     1      -1.956  -8.057   2.861  0.00  0.00    -0.346 OA
BRANCH  21  22
ATOM     22  C   UNL     1      -1.374  -8.419   4.115  0.00  0.00    +0.281 C 
ATOM     23  C   UNL     1       0.010  -7.777   4.239  0.00  0.00    +0.201 C 
ATOM     24  C   UNL     1       0.652  -8.218   5.558  0.00  0.00    +0.178 C 
ATOM     25  C   UNL     1       0.716  -9.748   5.595  0.00  0.00    +0.171 C 
ATOM     26  C   UNL     1      -0.695 -10.314   5.418  0.00  0.00    +0.197 C 
ATOM     27  O   UNL     1      -1.246  -9.841   4.188  0.00  0.00    -0.346 OA
BRANCH  25  28
ATOM     28  O   UNL     1       1.556 -10.217   4.539  0.00  0.00    -0.387 OA
ATOM     29  H   UNL     1       1.643 -11.179   4.502  0.00  0.00    +0.210 HD
ENDBRANCH  25  28
BRANCH  24  30
ATOM     30  O   UNL     1       1.973  -7.680   5.650  0.00  0.00    -0.386 OA
ATOM     31  H   UNL     1       2.440  -7.920   6.462  0.00  0.00    +0.210 HD
ENDBRANCH  24  30
BRANCH  23  32
ATOM     32  O   UNL     1       0.830  -8.192   3.145  0.00  0.00    -0.384 OA
ATOM     33  H   UNL     1       0.480  -7.949   2.277  0.00  0.00    +0.210 HD
ENDBRANCH  23  32
ENDBRANCH  21  22
ENDBRANCH  20  21
ENDBRANCH   5  20
TORSDOF 15
