REMARK  Name = ZINC19352211
REMARK  11 active torsions:
REMARK  status: ('A' for Active; 'I' for Inactive)
REMARK    1  A    between atoms: C_1  and  C_2
REMARK    2  A    between atoms: C_2  and  O_3
REMARK    3  A    between atoms: O_3  and  C_4
REMARK    4  A    between atoms: C_7  and  C_10
REMARK    5  A    between atoms: C_13  and  S_16
REMARK    6  A    between atoms: N_14  and  N_15
REMARK    7  A    between atoms: S_16  and  C_17
REMARK    8  A    between atoms: C_17  and  C_18
REMARK    9  A    between atoms: N_20  and  C_21
REMARK   10  A    between atoms: C_21  and  C_23
REMARK   11  A    between atoms: C_21  and  C_30
REMARK                            x       y       z     vdW  Elec       q    Type
REMARK                         _______ _______ _______ _____ _____    ______ ____
ROOT
ATOM      1  S   UNL     1      -3.400   0.263  -3.547  0.00  0.00    -0.075 S 
ENDROOT
BRANCH   1   5
ATOM      2  C   UNL     1      -5.882   1.566  -6.269  0.00  0.00    +0.182 A 
ATOM      3  N   UNL     1      -4.921   2.460  -6.302  0.00  0.00    -0.127 NA
ATOM      4  N   UNL     1      -4.016   2.163  -5.441  0.00  0.00    -0.121 NA
ATOM      5  C   UNL     1      -4.337   1.056  -4.810  0.00  0.00    +0.209 A 
ATOM      6  N   UNL     1      -5.537   0.639  -5.313  0.00  0.00    -0.224 N 
BRANCH   2  10
ATOM      7  C   UNL     1      -9.391   1.539  -8.665  0.00  0.00    +0.121 A 
ATOM      8  C   UNL     1      -9.332   0.764  -7.513  0.00  0.00    +0.046 A 
ATOM      9  C   UNL     1      -8.196   0.770  -6.734  0.00  0.00    +0.015 A 
ATOM     10  C   UNL     1      -7.103   1.556  -7.103  0.00  0.00    +0.021 A 
ATOM     11  C   UNL     1      -7.168   2.337  -8.258  0.00  0.00    +0.015 A 
ATOM     12  C   UNL     1      -8.306   2.322  -9.035  0.00  0.00    +0.046 A 
BRANCH   7  13
ATOM     13  O   UNL     1     -10.514   1.530  -9.430  0.00  0.00    -0.492 OA
BRANCH  13  15
ATOM     14  C   UNL     1     -11.845   2.212 -11.329  0.00  0.00    +0.048 C 
ATOM     15  C   UNL     1     -10.507   2.350 -10.601  0.00  0.00    +0.225 C 
ENDBRANCH  13  15
ENDBRANCH   7  13
ENDBRANCH   2  10
BRANCH   6  16
ATOM     16  N   UNL     1      -6.247  -0.468  -4.943  0.00  0.00    -0.295 N 
ATOM     17  H   UNL     1      -5.858  -1.134  -4.158  0.00  0.00    +0.163 HD
ATOM     18  H   UNL     1      -7.207  -0.694  -5.429  0.00  0.00    +0.163 HD
ENDBRANCH   6  16
ENDBRANCH   1   5
BRANCH   1  19
ATOM     19  C   UNL     1      -1.987   1.389  -3.449  0.00  0.00    +0.173 C 
BRANCH  19  20
ATOM     20  C   UNL     1      -1.023   0.896  -2.401  0.00  0.00    +0.224 C 
ATOM     21  O   UNL     1      -1.267  -0.117  -1.781  0.00  0.00    -0.275 OA
ATOM     22  N   UNL     1       0.111   1.581  -2.152  0.00  0.00    -0.303 N 
ATOM     23  H   UNL     1       0.332   2.501  -2.715  0.00  0.00    +0.150 HD
BRANCH  22  24
ATOM     24  C   UNL     1       1.048   1.102  -1.134  0.00  0.00    +0.140 C 
BRANCH  24  25
ATOM     25  C   UNL     1       2.431   1.613  -1.444  0.00  0.00    -0.022 A 
ATOM     26  C   UNL     1       2.603   2.902  -1.912  0.00  0.00    +0.008 A 
ATOM     27  C   UNL     1       3.871   3.374  -2.192  0.00  0.00    +0.038 A 
ATOM     28  C   UNL     1       4.970   2.550  -2.013  0.00  0.00    +0.123 A 
ATOM     29  C   UNL     1       4.797   1.258  -1.549  0.00  0.00    +0.038 A 
ATOM     30  C   UNL     1       3.528   0.790  -1.265  0.00  0.00    +0.008 A 
ATOM     31  F   UNL     1       6.210   3.009  -2.291  0.00  0.00    -0.205 F 
ENDBRANCH  24  25
BRANCH  24  32
ATOM     32  C   UNL     1       0.618   1.605   0.221  0.00  0.00    +0.014 A 
ATOM     33  C   UNL     1       0.626   0.959   1.412  0.00  0.00    +0.013 A 
ATOM     34  C   UNL     1       0.181   1.626   2.539  0.00  0.00    +0.008 A 
ATOM     35  C   UNL     1      -0.249   2.905   2.418  0.00  0.00    +0.045 A 
ATOM     36  S   UNL     1      -0.025   3.207   0.672  0.00  0.00    -0.099 S 
ENDBRANCH  24  32
ENDBRANCH  22  24
ENDBRANCH  19  20
ENDBRANCH   1  19
TORSDOF 10
