REMARK  Name = ZINC63572444
REMARK  6 active torsions:
REMARK  status: ('A' for Active; 'I' for Inactive)
REMARK    1  A    between atoms: C_1  and  C_2
REMARK    2  A    between atoms: C_2  and  O_3
REMARK    3  A    between atoms: O_3  and  C_4
REMARK    4  A    between atoms: C_4  and  C_6
REMARK    5  A    between atoms: C_11  and  N_12
REMARK    6  A    between atoms: C_28  and  C_30
REMARK                            x       y       z     vdW  Elec       q    Type
REMARK                         _______ _______ _______ _____ _____    ______ ____
ROOT
ATOM      1  N   UNL     1      -2.011  -5.337   1.526  0.00  0.00    -0.269 N 
ATOM      2  C   UNL     1      -2.226  -6.410   0.739  0.00  0.00    +0.307 C 
ATOM      3  O   UNL     1      -3.362  -6.746   0.465  0.00  0.00    -0.252 OA
ATOM      4  N   UNL     1      -1.181  -7.112   0.257  0.00  0.00    -0.276 N 
ATOM      5  C   UNL     1       0.185  -6.638   0.500  0.00  0.00    +0.114 C 
ATOM      6  C   UNL     1       0.902  -6.430  -0.847  0.00  0.00    +0.052 C 
ATOM      7  C   UNL     1       0.604  -7.646  -1.688  0.00  0.00    -0.035 C 
ATOM      8  C   UNL     1       1.403  -8.473  -2.350  0.00  0.00    +0.001 A 
ATOM      9  C   UNL     1       2.854  -8.445  -2.596  0.00  0.00    +0.030 A 
ATOM     10  C   UNL     1       3.361  -9.484  -3.313  0.00  0.00    +0.042 A 
ATOM     11  C   UNL     1       2.578 -10.535  -3.804  0.00  0.00    +0.022 A 
ATOM     12  C   UNL     1       1.236 -10.636  -3.632  0.00  0.00    +0.027 A 
ATOM     13  C   UNL     1       0.588  -9.598  -2.900  0.00  0.00    +0.043 A 
ATOM     14  N   UNL     1      -0.669  -9.432  -2.611  0.00  0.00    -0.375 N 
ATOM     15  C   UNL     1      -0.815  -8.161  -1.901  0.00  0.00    +0.131 C 
ATOM     16  C   UNL     1      -1.423  -8.349  -0.502  0.00  0.00    +0.134 C 
ATOM     17 CL   UNL     1       5.066  -9.508  -3.637  0.00  0.00    -0.084 Cl
ATOM     18  H   UNL     1      -1.107  -5.023   1.682  0.00  0.00    +0.156 HD
ATOM     19  H   UNL     1      -1.387 -10.047  -2.828  0.00  0.00    +0.160 HD
ENDROOT
BRANCH  16  20
ATOM     20  C   UNL     1      -2.906  -8.596  -0.617  0.00  0.00    -0.025 A 
ATOM     21  C   UNL     1      -3.670  -7.826  -1.473  0.00  0.00    +0.008 A 
ATOM     22  C   UNL     1      -5.029  -8.051  -1.579  0.00  0.00    +0.038 A 
ATOM     23  C   UNL     1      -5.626  -9.049  -0.827  0.00  0.00    +0.123 A 
ATOM     24  C   UNL     1      -4.859  -9.819   0.031  0.00  0.00    +0.038 A 
ATOM     25  C   UNL     1      -3.499  -9.596   0.131  0.00  0.00    +0.008 A 
ATOM     26  F   UNL     1      -6.955  -9.270  -0.930  0.00  0.00    -0.205 F 
ENDBRANCH  16  20
BRANCH   1  32
ATOM     27  C   UNL     1      -3.051  -3.287   2.292  0.00  0.00    +0.080 A 
ATOM     28  C   UNL     1      -4.141  -2.637   2.878  0.00  0.00    +0.017 A 
ATOM     29  C   UNL     1      -5.239  -3.365   3.281  0.00  0.00    +0.001 A 
ATOM     30  C   UNL     1      -5.269  -4.740   3.109  0.00  0.00    +0.002 A 
ATOM     31  C   UNL     1      -4.201  -5.396   2.532  0.00  0.00    +0.024 A 
ATOM     32  C   UNL     1      -3.088  -4.678   2.114  0.00  0.00    +0.049 A 
BRANCH  27  33
ATOM     33  C   UNL     1      -1.873  -2.515   1.858  0.00  0.00    +0.341 C 
ATOM     34  O   UNL     1      -0.895  -3.091   1.426  0.00  0.00    -0.245 OA
BRANCH  33  35
ATOM     35  O   UNL     1      -1.882  -1.169   1.940  0.00  0.00    -0.461 OA
BRANCH  35  37
ATOM     36  C   UNL     1      -0.902   1.023   1.670  0.00  0.00    +0.048 C 
ATOM     37  C   UNL     1      -0.706  -0.485   1.502  0.00  0.00    +0.229 C 
ENDBRANCH  35  37
ENDBRANCH  33  35
ENDBRANCH  27  33
ENDBRANCH   1  32
TORSDOF 5
