REMARK  Name = ZINC16213773
REMARK  10 active torsions:
REMARK  status: ('A' for Active; 'I' for Inactive)
REMARK    1  A    between atoms: C_1  and  O_2
REMARK    2  A    between atoms: O_2  and  C_3
REMARK    3  A    between atoms: C_5  and  C_12
REMARK    4  A    between atoms: C_7  and  O_10
REMARK    5  A    between atoms: C_8  and  O_9
REMARK    6  A    between atoms: O_10  and  C_11
REMARK    7  A    between atoms: C_15  and  C_24
REMARK    8  A    between atoms: C_16  and  C_18
REMARK    9  A    between atoms: C_27  and  C_30
REMARK   10  A    between atoms: C_30  and  C_32
REMARK                            x       y       z     vdW  Elec       q    Type
REMARK                         _______ _______ _______ _____ _____    ______ ____
ROOT
ATOM      1  C   UNL     1      -4.933  -0.387   0.288  0.00  0.00    +0.117 A 
ATOM      2  N   UNL     1      -6.210  -0.822   0.489  0.00  0.00    -0.339 N 
ATOM      3  H   UNL     1      -6.479  -1.717   0.749  0.00  0.00    +0.167 HD
ATOM      4  C   UNL     1      -7.045   0.248   0.254  0.00  0.00    +0.072 A 
ATOM      5  C   UNL     1      -6.226   1.314  -0.088  0.00  0.00    +0.072 A 
ATOM      6  N   UNL     1      -4.957   0.883  -0.049  0.00  0.00    -0.339 N 
ATOM      7  H   UNL     1      -4.176   1.426  -0.241  0.00  0.00    +0.167 HD
ENDROOT
BRANCH   1  10
ATOM      8  C   UNL     1      -1.316  -1.399   0.441  0.00  0.00    +0.166 A 
ATOM      9  C   UNL     1      -2.454  -0.625   0.305  0.00  0.00    +0.061 A 
ATOM     10  C   UNL     1      -3.715  -1.212   0.431  0.00  0.00    +0.023 A 
ATOM     11  C   UNL     1      -3.823  -2.579   0.693  0.00  0.00    +0.061 A 
ATOM     12  C   UNL     1      -2.681  -3.348   0.828  0.00  0.00    +0.166 A 
ATOM     13  C   UNL     1      -1.426  -2.762   0.696  0.00  0.00    +0.201 A 
BRANCH   8  15
ATOM     14  C   UNL     1      -0.048   0.576   0.056  0.00  0.00    +0.277 C 
ATOM     15  O   UNL     1      -0.087  -0.828   0.318  0.00  0.00    -0.491 OA
ENDBRANCH   8  15
BRANCH  13  16
ATOM     16  O   UNL     1      -0.305  -3.522   0.823  0.00  0.00    -0.501 OA
ATOM     17  H   UNL     1       0.030  -3.580   1.728  0.00  0.00    +0.292 HD
ENDBRANCH  13  16
BRANCH  12  18
ATOM     18  O   UNL     1      -2.786  -4.680   1.083  0.00  0.00    -0.491 OA
ATOM     19  C   UNL     1      -4.105  -5.217   1.200  0.00  0.00    +0.277 C 
ENDBRANCH  12  18
ENDBRANCH   1  10
BRANCH   5  20
ATOM     20  C   UNL     1      -6.674   2.685  -0.430  0.00  0.00    +0.000 A 
ATOM     21  C   UNL     1      -7.598   3.342   0.382  0.00  0.00    +0.010 A 
ATOM     22  C   UNL     1      -8.010   4.619   0.059  0.00  0.00    +0.001 A 
ATOM     23  C   UNL     1      -7.509   5.246  -1.068  0.00  0.00    +0.000 A 
ATOM     24  C   UNL     1      -6.593   4.599  -1.877  0.00  0.00    +0.001 A 
ATOM     25  C   UNL     1      -6.168   3.325  -1.561  0.00  0.00    +0.010 A 
ENDBRANCH   5  20
BRANCH   4  26
ATOM     26  C   UNL     1      -8.514   0.258   0.347  0.00  0.00    +0.000 A 
ATOM     27  C   UNL     1      -9.278   0.809  -0.689  0.00  0.00    +0.011 A 
ATOM     28  C   UNL     1     -10.640   0.818  -0.602  0.00  0.00    +0.012 A 
ATOM     29  C   UNL     1     -11.273   0.277   0.523  0.00  0.00    +0.022 A 
ATOM     30  C   UNL     1     -10.510  -0.274   1.559  0.00  0.00    +0.012 A 
ATOM     31  C   UNL     1      -9.148  -0.288   1.470  0.00  0.00    +0.011 A 
BRANCH  29  32
ATOM     32  C   UNL     1     -12.744   0.287   0.616  0.00  0.00    +0.193 C 
ATOM     33  O   UNL     1     -13.285   0.268   1.706  0.00  0.00    -0.287 OA
BRANCH  32  34
ATOM     34  C   UNL     1     -13.562   0.319  -0.613  0.00  0.00    +0.022 A 
ATOM     35  C   UNL     1     -13.006  -0.066  -1.835  0.00  0.00    +0.014 A 
ATOM     36  C   UNL     1     -13.774  -0.035  -2.979  0.00  0.00    +0.039 A 
ATOM     37  C   UNL     1     -15.096   0.380  -2.918  0.00  0.00    +0.123 A 
ATOM     38  C   UNL     1     -15.653   0.764  -1.708  0.00  0.00    +0.039 A 
ATOM     39  C   UNL     1     -14.896   0.731  -0.556  0.00  0.00    +0.014 A 
ATOM     40  F   UNL     1     -15.844   0.410  -4.043  0.00  0.00    -0.205 F 
ENDBRANCH  32  34
ENDBRANCH  29  32
ENDBRANCH   4  26
TORSDOF 8
