REMARK  Name = ZINC37100409
REMARK  5 active torsions:
REMARK  status: ('A' for Active; 'I' for Inactive)
REMARK    1  A    between atoms: C_1  and  C_2
REMARK    2  A    between atoms: C_5  and  N_26
REMARK    3  A    between atoms: C_7  and  N_8
REMARK    4  A    between atoms: C_9  and  C_11
REMARK    5  A    between atoms: C_11  and  C_12
REMARK                            x       y       z     vdW  Elec       q    Type
REMARK                         _______ _______ _______ _____ _____    ______ ____
ROOT
ATOM      1  C   UNL     1      -0.169   0.052   4.882  0.00  0.00    +0.089 C 
ENDROOT
BRANCH   1   2
ATOM      2  C   UNL     1      -0.245  -0.948   6.037  0.00  0.00    +0.025 C 
ATOM      3  C   UNL     1      -0.488  -0.207   7.321  0.00  0.00    +0.200 C 
ATOM      4  O   UNL     1      -1.302   0.692   7.323  0.00  0.00    -0.278 OA
ATOM      5  N   UNL     1       0.149  -0.491   8.462  0.00  0.00    -0.315 N 
ATOM      6  C   UNL     1       1.180  -1.529   8.542  0.00  0.00    +0.059 C 
ATOM      7  C   UNL     1       2.555  -0.857   8.490  0.00  0.00    +0.020 C 
ATOM      8  C   UNL     1       3.654  -1.920   8.507  0.00  0.00    +0.002 C 
ATOM      9  C   UNL     1       3.500  -2.822   7.280  0.00  0.00    -0.001 C 
ATOM     10  C   UNL     1       2.138  -3.517   7.338  0.00  0.00    -0.014 C 
ATOM     11  C   UNL     1       1.013  -2.488   7.364  0.00  0.00    -0.050 C 
ATOM     12  N   UNL     1       1.015  -1.698   6.115  0.00  0.00    +0.390 N 
ATOM     13  H   UNL     1      -0.079   0.007   9.263  0.00  0.00    +0.149 HD
ATOM     14  H   UNL     1       1.088  -2.322   5.325  0.00  0.00    -0.084 HD
ATOM     15  H   UNL     1       1.793  -1.055   6.114  0.00  0.00    -0.084 HD
ENDBRANCH   1   2
BRANCH   1  17
ATOM     16  N   UNL     1       0.025  -0.015   2.417  0.00  0.00    -0.285 N 
ATOM     17  C   UNL     1      -0.057  -0.694   3.578  0.00  0.00    +0.216 C 
ATOM     18  O   UNL     1      -0.040  -1.907   3.573  0.00  0.00    -0.276 OA
ATOM     19  H   UNL     1       0.077   0.954   2.425  0.00  0.00    +0.155 HD
BRANCH  16  26
ATOM     20  C   UNL     1      -1.265   1.183   0.181  0.00  0.00    +0.045 C 
ATOM     21  C   UNL     1      -0.584  -0.158   0.084  0.00  0.00    -0.029 A 
ATOM     22  C   UNL     1      -0.569  -0.841  -1.117  0.00  0.00    +0.007 A 
ATOM     23  C   UNL     1       0.056  -2.071  -1.206  0.00  0.00    +0.033 A 
ATOM     24  C   UNL     1       0.667  -2.622  -0.095  0.00  0.00    +0.128 A 
ATOM     25  C   UNL     1       0.656  -1.944   1.109  0.00  0.00    +0.056 A 
ATOM     26  C   UNL     1       0.034  -0.706   1.201  0.00  0.00    +0.038 A 
BRANCH  24  27
ATOM     27  N   UNL     1       1.334  -3.940  -0.195  0.00  0.00    +0.056 N 
ATOM     28  O   UNL     1       1.344  -4.534  -1.248  0.00  0.00    -0.126 OA
ATOM     29  O   UNL     1       1.868  -4.422   0.776  0.00  0.00    -0.126 OA
ENDBRANCH  24  27
ENDBRANCH  16  26
ENDBRANCH   1  17
TORSDOF 4
