REMARK  Name = ZINC04165387
REMARK  16 active torsions:
REMARK  status: ('A' for Active; 'I' for Inactive)
REMARK    1  A    between atoms: C_1  and  C_2
REMARK    2  A    between atoms: C_2  and  C_3
REMARK    3  A    between atoms: C_3  and  O_47
REMARK    4  A    between atoms: C_5  and  O_32
REMARK    5  A    between atoms: C_12  and  O_13
REMARK    6  A    between atoms: C_17  and  O_25
REMARK    7  A    between atoms: C_20  and  O_24
REMARK    8  A    between atoms: C_26  and  C_28
REMARK    9  A    between atoms: C_28  and  O_30
REMARK   10  A    between atoms: O_30  and  C_31
REMARK   11  A    between atoms: O_32  and  C_33
REMARK   12  A    between atoms: C_36  and  N_77
REMARK   13  A    between atoms: C_38  and  O_44
REMARK   14  A    between atoms: C_40  and  C_43
REMARK   15  A    between atoms: C_45  and  N_77
REMARK   16  A    between atoms: C_46  and  N_77
REMARK                            x       y       z     vdW  Elec       q    Type
REMARK                         _______ _______ _______ _____ _____    ______ ____
ROOT
ATOM      1  C   UNL     1       5.171   9.302  -0.137  0.00  0.00    +0.085 C 
ATOM      2  C   UNL     1       3.815   8.859  -0.700  0.00  0.00    +0.072 C 
ATOM      3  C   UNL     1       3.390   7.582   0.021  0.00  0.00    +0.158 C 
ATOM      4  C   UNL     1       4.497   6.561  -0.010  0.00  0.00    +0.028 A 
ATOM      5  C   UNL     1       5.803   6.892  -0.287  0.00  0.00    -0.021 A 
ATOM      6  C   UNL     1       6.788   5.908  -0.294  0.00  0.00    +0.017 A 
ATOM      7  C   UNL     1       6.469   4.584  -0.025  0.00  0.00    +0.037 A 
ATOM      8  C   UNL     1       5.134   4.237   0.255  0.00  0.00    +0.075 A 
ATOM      9  C   UNL     1       4.156   5.232   0.260  0.00  0.00    +0.134 A 
ATOM     10  C   UNL     1       4.779   2.836   0.541  0.00  0.00    +0.202 C 
ATOM     11  O   UNL     1       3.625   2.537   0.782  0.00  0.00    -0.286 OA
ATOM     12  C   UNL     1       5.823   1.796   0.531  0.00  0.00    +0.078 A 
ATOM     13  C   UNL     1       5.495   0.465   0.799  0.00  0.00    +0.129 A 
ATOM     14  C   UNL     1       6.490  -0.511   0.788  0.00  0.00    +0.050 A 
ATOM     15  C   UNL     1       7.796  -0.174   0.514  0.00  0.00    +0.050 A 
ATOM     16  C   UNL     1       8.144   1.149   0.244  0.00  0.00    +0.129 A 
ATOM     17  C   UNL     1       7.161   2.142   0.251  0.00  0.00    +0.078 A 
ATOM     18  C   UNL     1       7.517   3.542  -0.033  0.00  0.00    +0.198 C 
ATOM     19  O   UNL     1       8.671   3.841  -0.273  0.00  0.00    -0.286 OA
ATOM     20  C   UNL     1       6.231   8.304  -0.597  0.00  0.00    +0.160 C 
ENDROOT
BRANCH   1  22
ATOM     21  C   UNL     1       4.461  11.697  -0.178  0.00  0.00    +0.007 C 
ATOM     22  C   UNL     1       5.515  10.698  -0.659  0.00  0.00    +0.032 C 
ENDBRANCH   1  22
BRANCH   9  23
ATOM     23  O   UNL     1       2.867   4.908   0.528  0.00  0.00    -0.506 OA
ATOM     24  H   UNL     1       2.349   4.676  -0.255  0.00  0.00    +0.292 HD
ENDBRANCH   9  23
BRANCH  16  25
ATOM     25  O   UNL     1       9.433   1.471  -0.024  0.00  0.00    -0.506 OA
ATOM     26  H   UNL     1       9.662   1.427  -0.963  0.00  0.00    +0.292 HD
ENDBRANCH  16  25
BRANCH  13  27
ATOM     27  O   UNL     1       4.210   0.123   1.064  0.00  0.00    -0.506 OA
ATOM     28  H   UNL     1       3.979   0.158   2.003  0.00  0.00    +0.292 HD
ENDBRANCH  13  27
BRANCH  20  29
ATOM     29  C   UNL     1       6.436   8.447  -2.083  0.00  0.00    +0.317 C 
ATOM     30  O   UNL     1       5.740   7.824  -2.850  0.00  0.00    -0.250 OA
BRANCH  29  31
ATOM     31  O   UNL     1       7.390   9.264  -2.554  0.00  0.00    -0.467 OA
ATOM     32  C   UNL     1       7.531   9.352  -3.996  0.00  0.00    +0.280 C 
ENDBRANCH  29  31
ENDBRANCH  20  29
BRANCH   1  33
ATOM     33  O   UNL     1       5.116   9.322   1.291  0.00  0.00    -0.387 OA
ATOM     34  H   UNL     1       4.462   9.937   1.651  0.00  0.00    +0.210 HD
ENDBRANCH   1  33
BRANCH   3  35
ATOM     35  O   UNL     1       3.073   7.891   1.380  0.00  0.00    -0.343 OA
BRANCH  35  36
ATOM     36  C   UNL     1       1.706   7.662   1.725  0.00  0.00    +0.250 C 
ATOM     37  C   UNL     1       1.530   7.806   3.239  0.00  0.00    +0.049 C 
ATOM     38  C   UNL     1       1.880   9.239   3.652  0.00  0.00    -0.033 C 
ATOM     39  C   UNL     1       0.996  10.215   2.868  0.00  0.00    +0.130 C 
ATOM     40  C   UNL     1       1.192   9.978   1.369  0.00  0.00    +0.145 C 
ATOM     41  O   UNL     1       0.879   8.618   1.058  0.00  0.00    -0.346 OA
ATOM     42  C   UNL     1       0.269  10.908   0.580  0.00  0.00    +0.040 C 
BRANCH  38  45
ATOM     43  C   UNL     1       2.467   8.479   5.874  0.00  0.00    -0.096 C 
ATOM     44  C   UNL     1       1.878  10.798   5.505  0.00  0.00    -0.096 C 
ATOM     45  N   UNL     1       1.614   9.402   5.097  0.00  0.00    +0.380 N 
ATOM     46  H   UNL     1       0.629   9.181   5.281  0.00  0.00    -0.082 HD
ENDBRANCH  38  45
BRANCH  39  47
ATOM     47  O   UNL     1      -0.374   9.999   3.212  0.00  0.00    -0.391 OA
ATOM     48  H   UNL     1      -0.992  10.584   2.752  0.00  0.00    +0.210 HD
ENDBRANCH  39  47
ENDBRANCH  35  36
ENDBRANCH   3  35
TORSDOF 11
