REMARK  Name = ZINC37813883
REMARK  4 active torsions:
REMARK  status: ('A' for Active; 'I' for Inactive)
REMARK    1  A    between atoms: C_10  and  C_13
REMARK    2  A    between atoms: N_15  and  C_16
REMARK    3  A    between atoms: N_15  and  C_20
REMARK    4  A    between atoms: C_16  and  C_17
REMARK                            x       y       z     vdW  Elec       q    Type
REMARK                         _______ _______ _______ _____ _____    ______ ____
ROOT
ATOM      1  C   UNL     1       3.180  -3.119  -1.765  0.00  0.00    +0.202 C 
ATOM      2  O   UNL     1       4.128  -2.878  -1.048  0.00  0.00    -0.277 OA
ATOM      3  N   UNL     1       2.926  -4.388  -2.141  0.00  0.00    -0.291 N 
ENDROOT
BRANCH   1  11
ATOM      4  C   UNL     1      -0.019   1.533   0.011  0.00  0.00    +0.000 C 
ATOM      5  C   UNL     1       1.393   2.111   0.000  0.00  0.00    -0.002 C 
ATOM      6  C   UNL     1       2.213   1.567  -1.182  0.00  0.00    -0.015 C 
ATOM      7  C   UNL     1       2.224   0.057  -1.066  0.00  0.00    -0.068 C 
ATOM      8  C   UNL     1       0.763  -0.438  -1.239  0.00  0.00    -0.026 C 
ATOM      9  C   UNL     1       0.002  -0.004   0.002  0.00  0.00    +0.002 C 
ATOM     10  C   UNL     1       0.999  -1.951  -1.368  0.00  0.00    -0.005 C 
ATOM     11  C   UNL     1       2.287  -2.000  -2.235  0.00  0.00    +0.017 C 
ATOM     12  N   UNL     1       2.961  -0.694  -2.076  0.00  0.00    +0.389 N 
ATOM     13  H   UNL     1       2.953  -0.192  -2.951  0.00  0.00    -0.084 HD
ATOM     14  H   UNL     1       3.910  -0.842  -1.770  0.00  0.00    -0.084 HD
ENDBRANCH   1  11
BRANCH   3  15
ATOM     15  C   UNL     1       1.780  -4.680  -3.007  0.00  0.00    +0.077 C 
ATOM     16  C   UNL     1       0.846  -5.699  -2.322  0.00  0.00    +0.022 C 
ATOM     17  C   UNL     1       0.346  -6.595  -3.482  0.00  0.00    +0.002 C 
ATOM     18  C   UNL     1       1.602  -6.727  -4.378  0.00  0.00    +0.002 C 
ATOM     19  C   UNL     1       2.261  -5.333  -4.314  0.00  0.00    +0.022 C 
ENDBRANCH   3  15
BRANCH   3  20
ATOM     20  C   UNL     1       3.794  -5.476  -1.684  0.00  0.00    +0.203 C 
BRANCH  20  21
ATOM     21  C   UNL     1       3.270  -6.023  -0.381  0.00  0.00    +0.228 C 
ATOM     22  O   UNL     1       2.270  -5.552   0.116  0.00  0.00    -0.274 OA
ATOM     23  N   UNL     1       3.913  -7.037   0.231  0.00  0.00    -0.328 N 
ATOM     24  H   UNL     1       4.713  -7.415  -0.167  0.00  0.00    +0.145 HD
ATOM     25  H   UNL     1       3.576  -7.390   1.069  0.00  0.00    +0.145 HD
ENDBRANCH  20  21
ENDBRANCH   3  20
TORSDOF 4
