REMARK  Name = ZINC39308690
REMARK  8 active torsions:
REMARK  status: ('A' for Active; 'I' for Inactive)
REMARK    1  A    between atoms: C_1  and  C_2
REMARK    2  A    between atoms: C_6  and  O_30
REMARK    3  A    between atoms: C_7  and  O_29
REMARK    4  A    between atoms: N_12  and  C_13
REMARK    5  A    between atoms: C_13  and  C_14
REMARK    6  A    between atoms: N_16  and  C_17
REMARK    7  A    between atoms: C_22  and  C_23
REMARK    8  A    between atoms: C_23  and  C_25
REMARK                            x       y       z     vdW  Elec       q    Type
REMARK                         _______ _______ _______ _____ _____    ______ ____
ROOT
ATOM      1  C   UNL     1       2.134  -0.081   1.095  0.00  0.00    +0.020 C 
ENDROOT
BRANCH   1  12
ATOM      2  C   UNL     1      -0.028   1.542   0.037  0.00  0.00    -0.008 C 
ATOM      3  C   UNL     1      -0.001   0.012   0.009  0.00  0.00    -0.040 C 
ATOM      4  C   UNL     1      -1.414  -0.509   0.002  0.00  0.00    -0.054 A 
ATOM      5  C   UNL     1      -2.354   0.140  -0.786  0.00  0.00    +0.051 A 
ATOM      6  C   UNL     1      -3.662  -0.307  -0.825  0.00  0.00    +0.158 A 
ATOM      7  C   UNL     1      -4.037  -1.415  -0.070  0.00  0.00    +0.158 A 
ATOM      8  C   UNL     1      -3.096  -2.058   0.716  0.00  0.00    +0.053 A 
ATOM      9  C   UNL     1      -1.786  -1.605   0.752  0.00  0.00    -0.044 A 
ATOM     10  C   UNL     1      -0.796  -2.331   1.627  0.00  0.00    +0.017 C 
ATOM     11  C   UNL     1       0.628  -1.946   1.226  0.00  0.00    -0.073 C 
ATOM     12  N   UNL     1       0.723  -0.479   1.185  0.00  0.00    +0.390 N 
ATOM     13  H   UNL     1       0.314  -0.090   2.021  0.00  0.00    -0.080 HD
BRANCH   7  14
ATOM     14  O   UNL     1      -5.321  -1.862  -0.102  0.00  0.00    -0.503 OA
ATOM     15  H   UNL     1      -5.490  -2.522  -0.789  0.00  0.00    +0.292 HD
ENDBRANCH   7  14
BRANCH   6  16
ATOM     16  O   UNL     1      -4.579   0.333  -1.599  0.00  0.00    -0.503 OA
ATOM     17  H   UNL     1      -4.643  -0.013  -2.500  0.00  0.00    +0.292 HD
ENDBRANCH   6  16
ENDBRANCH   1  12
BRANCH   1  18
ATOM     18  C   UNL     1       2.850  -0.479   2.360  0.00  0.00    +0.201 C 
ATOM     19  O   UNL     1       2.245  -1.040   3.249  0.00  0.00    -0.278 OA
ATOM     20  N   UNL     1       4.163  -0.213   2.504  0.00  0.00    -0.286 N 
ATOM     21  H   UNL     1       4.666   0.162   1.763  0.00  0.00    +0.155 HD
BRANCH  20  22
ATOM     22  C   UNL     1       4.799  -0.475   3.715  0.00  0.00    +0.048 A 
ATOM     23  C   UNL     1       4.069  -0.500   4.892  0.00  0.00    +0.073 A 
ATOM     24  C   UNL     1       4.699  -0.761   6.098  0.00  0.00    +0.168 A 
ATOM     25  C   UNL     1       6.077  -1.001   6.135  0.00  0.00    +0.167 A 
ATOM     26  C   UNL     1       6.815  -0.980   4.972  0.00  0.00    +0.062 A 
ATOM     27  C   UNL     1       6.184  -0.722   3.747  0.00  0.00    +0.042 A 
ATOM     28  O   UNL     1       6.443  -1.228   7.432  0.00  0.00    -0.453 OA
ATOM     29  C   UNL     1       5.359  -0.720   8.231  0.00  0.00    +0.466 C 
ATOM     30  O   UNL     1       4.212  -0.839   7.369  0.00  0.00    -0.453 OA
BRANCH  27  31
ATOM     31  C   UNL     1       6.963  -0.704   2.507  0.00  0.00    +0.162 C 
ATOM     32  O   UNL     1       6.433  -0.388   1.462  0.00  0.00    -0.292 OA
ATOM     33  C   UNL     1       8.423  -1.077   2.529  0.00  0.00    +0.091 C 
ENDBRANCH  27  31
ENDBRANCH  20  22
ENDBRANCH   1  18
TORSDOF 6
