REMARK  Name = ZINC39446121
REMARK  8 active torsions:
REMARK  status: ('A' for Active; 'I' for Inactive)
REMARK    1  A    between atoms: C_1  and  C_2
REMARK    2  A    between atoms: C_2  and  O_3
REMARK    3  A    between atoms: O_3  and  C_4
REMARK    4  A    between atoms: C_7  and  C_10
REMARK    5  A    between atoms: N_16  and  C_27
REMARK    6  A    between atoms: C_17  and  C_19
REMARK    7  A    between atoms: C_24  and  O_25
REMARK    8  A    between atoms: O_25  and  C_26
REMARK                            x       y       z     vdW  Elec       q    Type
REMARK                         _______ _______ _______ _____ _____    ______ ____
ROOT
ATOM      1  C   UNL     1      -2.001  -6.092  -0.011  0.00  0.00    +0.159 C 
ATOM      2  C   UNL     1      -2.358  -6.593   1.367  0.00  0.00    +0.016 C 
ATOM      3  C   UNL     1      -3.578  -7.156   1.225  0.00  0.00    +0.149 C 
ATOM      4  C   UNL     1      -4.006  -7.676   2.541  0.00  0.00    +0.272 C 
ATOM      5  O   UNL     1      -5.060  -8.242   2.755  0.00  0.00    -0.268 OA
ATOM      6  N   UNL     1      -3.062  -7.434   3.468  0.00  0.00    -0.255 N 
ATOM      7  C   UNL     1      -1.953  -6.735   2.805  0.00  0.00    +0.146 C 
ATOM      8  N   UNL     1      -3.978  -7.043  -0.078  0.00  0.00    -0.173 NA
ATOM      9  N   UNL     1      -3.171  -6.475  -0.821  0.00  0.00    -0.297 N 
ATOM     10  H   UNL     1      -3.285  -6.309  -1.770  0.00  0.00    +0.183 HD
ENDROOT
BRANCH   6  11
ATOM     11  C   UNL     1      -3.125  -7.785   4.821  0.00  0.00    +0.038 A 
ATOM     12  C   UNL     1      -2.074  -7.465   5.672  0.00  0.00    +0.024 A 
ATOM     13  C   UNL     1      -2.139  -7.812   7.007  0.00  0.00    +0.017 A 
ATOM     14  C   UNL     1      -3.249  -8.477   7.497  0.00  0.00    +0.018 A 
ATOM     15  C   UNL     1      -4.297  -8.796   6.652  0.00  0.00    +0.017 A 
ATOM     16  C   UNL     1      -4.240  -8.447   5.317  0.00  0.00    +0.024 A 
ATOM     17 BR   UNL     1      -3.334  -8.950   9.326  0.00  0.00    -0.050 Br
ENDBRANCH   6  11
BRANCH   1  21
ATOM     18  C   UNL     1      -1.498  -1.848   0.006  0.00  0.00    +0.121 A 
ATOM     19  C   UNL     1      -0.388  -2.679  -0.003  0.00  0.00    +0.046 A 
ATOM     20  C   UNL     1      -0.553  -4.051  -0.008  0.00  0.00    +0.009 A 
ATOM     21  C   UNL     1      -1.823  -4.596  -0.005  0.00  0.00    -0.019 A 
ATOM     22  C   UNL     1      -2.932  -3.769   0.004  0.00  0.00    +0.009 A 
ATOM     23  C   UNL     1      -2.772  -2.397   0.016  0.00  0.00    +0.046 A 
BRANCH  18  24
ATOM     24  O   UNL     1      -1.339  -0.499   0.012  0.00  0.00    -0.492 OA
BRANCH  24  26
ATOM     25  C   UNL     1      -0.019   1.526   0.010  0.00  0.00    +0.048 C 
ATOM     26  C   UNL     1       0.002  -0.004   0.002  0.00  0.00    +0.225 C 
ENDBRANCH  24  26
ENDBRANCH  18  24
ENDBRANCH   1  21
BRANCH   7  27
ATOM     27  C   UNL     1      -1.751  -5.376   3.424  0.00  0.00    +0.019 A 
ATOM     28  C   UNL     1      -2.739  -4.822   4.215  0.00  0.00    +0.009 A 
ATOM     29  C   UNL     1      -2.555  -3.575   4.782  0.00  0.00    +0.001 A 
ATOM     30  C   UNL     1      -1.381  -2.879   4.561  0.00  0.00    +0.004 A 
ATOM     31  C   UNL     1      -0.389  -3.428   3.772  0.00  0.00    +0.046 A 
ATOM     32  C   UNL     1      -0.570  -4.682   3.205  0.00  0.00    +0.125 A 
BRANCH  32  33
ATOM     33  O   UNL     1       0.406  -5.227   2.432  0.00  0.00    -0.495 OA
ATOM     34  C   UNL     1       1.596  -4.456   2.250  0.00  0.00    +0.277 C 
ENDBRANCH  32  33
ENDBRANCH   7  27
TORSDOF 6
