REMARK  Name = ZINC51101970
REMARK  11 active torsions:
REMARK  status: ('A' for Active; 'I' for Inactive)
REMARK    1  A    between atoms: C_1  and  C_2
REMARK    2  A    between atoms: C_2  and  C_3
REMARK    3  A    between atoms: C_2  and  N_4
REMARK    4  A    between atoms: C_8  and  C_10
REMARK    5  A    between atoms: C_10  and  N_11
REMARK    6  A    between atoms: C_15  and  C_17
REMARK    7  A    between atoms: C_17  and  N_18
REMARK    8  A    between atoms: N_18  and  S_19
REMARK    9  A    between atoms: S_19  and  C_22
REMARK   10  A    between atoms: C_22  and  C_23
REMARK   11  A    between atoms: C_22  and  C_24
REMARK                            x       y       z     vdW  Elec       q    Type
REMARK                         _______ _______ _______ _____ _____    ______ ____
ROOT
ATOM      1  N   UNL     1      -5.718  -4.559  -1.904  0.00  0.00    +0.386 N 
ATOM      2  C   UNL     1      -5.415  -4.486  -3.338  0.00  0.00    -0.078 C 
ATOM      3  C   UNL     1      -5.084  -5.884  -3.865  0.00  0.00    -0.018 C 
ATOM      4  C   UNL     1      -6.287  -6.805  -3.642  0.00  0.00    +0.001 C 
ATOM      5  C   UNL     1      -6.641  -6.815  -2.152  0.00  0.00    -0.012 C 
ATOM      6  C   UNL     1      -6.913  -5.382  -1.688  0.00  0.00    -0.073 C 
ATOM      7  H   UNL     1      -4.935  -4.970  -1.417  0.00  0.00    -0.081 HD
ENDROOT
BRANCH   1   8
ATOM      8  C   UNL     1      -5.958  -3.205  -1.386  0.00  0.00    +0.019 C 
BRANCH   8  13
ATOM      9  N   UNL     1      -3.527   0.894  -0.757  0.00  0.00    -0.297 N 
ATOM     10  C   UNL     1      -3.544  -0.387  -1.174  0.00  0.00    +0.306 C 
ATOM     11  O   UNL     1      -2.538  -0.888  -1.638  0.00  0.00    -0.252 OA
ATOM     12  N   UNL     1      -4.675  -1.112  -1.077  0.00  0.00    -0.242 N 
ATOM     13  C   UNL     1      -4.692  -2.394  -1.495  0.00  0.00    +0.204 C 
ATOM     14  O   UNL     1      -3.689  -2.894  -1.957  0.00  0.00    -0.277 OA
ATOM     15  H   UNL     1      -4.329   1.295  -0.387  0.00  0.00    +0.151 HD
ATOM     16  H   UNL     1      -5.478  -0.712  -0.707  0.00  0.00    +0.159 HD
BRANCH   9  18
ATOM     17  C   UNL     1      -2.648   3.170  -0.935  0.00  0.00    +0.027 C 
ATOM     18  C   UNL     1      -2.296   1.683  -0.862  0.00  0.00    +0.068 C 
ATOM     19  C   UNL     1      -1.419   1.425   0.364  0.00  0.00    +0.027 C 
ENDBRANCH   9  18
ENDBRANCH   8  13
ENDBRANCH   1   8
BRANCH   5  20
ATOM     20  C   UNL     1      -7.889  -7.671  -1.928  0.00  0.00    +0.107 C 
BRANCH  20  21
ATOM     21  N   UNL     1      -7.592  -9.065  -2.265  0.00  0.00    -0.194 NA
ATOM     22  H   UNL     1      -6.791  -9.283  -2.767  0.00  0.00    +0.148 HD
BRANCH  21  23
ATOM     23  S   UNL     1      -8.623 -10.270  -1.788  0.00  0.00    +0.032 S 
ATOM     24  O   UNL     1      -9.904  -9.849  -2.237  0.00  0.00    -0.158 OA
ATOM     25  O   UNL     1      -8.038 -11.466  -2.285  0.00  0.00    -0.158 OA
BRANCH  23  26
ATOM     26  C   UNL     1      -8.559 -10.248   0.025  0.00  0.00    +0.142 C 
ATOM     27  C   UNL     1      -9.482 -11.335   0.580  0.00  0.00    +0.033 C 
ATOM     28  C   UNL     1      -7.125 -10.512   0.487  0.00  0.00    +0.033 C 
ENDBRANCH  23  26
ENDBRANCH  21  23
ENDBRANCH  20  21
ENDBRANCH   5  20
TORSDOF 7
