REMARK  Name = ZINC08876180
REMARK  9 active torsions:
REMARK  status: ('A' for Active; 'I' for Inactive)
REMARK    1  A    between atoms: C_1  and  C_2
REMARK    2  A    between atoms: C_2  and  C_3
REMARK    3  A    between atoms: C_3  and  C_4
REMARK    4  A    between atoms: C_4  and  C_5
REMARK    5  A    between atoms: C_8  and  N_11
REMARK    6  A    between atoms: C_16  and  C_34
REMARK    7  A    between atoms: C_26  and  C_33
REMARK    8  A    between atoms: C_27  and  C_32
REMARK    9  A    between atoms: C_34  and  C_35
REMARK                            x       y       z     vdW  Elec       q    Type
REMARK                         _______ _______ _______ _____ _____    ______ ____
ROOT
ATOM      1  N   UNL     1      -2.429   1.039   0.019  0.00  0.00    -0.210 N 
ATOM      2  C   UNL     1      -2.481  -0.293  -0.092  0.00  0.00    +0.228 C 
ATOM      3  O   UNL     1      -1.520  -1.024  -0.203  0.00  0.00    -0.275 OA
ATOM      4  C   UNL     1      -3.923  -0.746  -0.054  0.00  0.00    +0.074 C 
ATOM      5  C   UNL     1      -4.316  -1.281  -1.448  0.00  0.00    -0.049 C 
ATOM      6  C   UNL     1      -5.519   0.707  -1.199  0.00  0.00    +0.050 C 
ATOM      7  C   UNL     1      -4.712   0.584   0.099  0.00  0.00    +0.088 C 
ATOM      8  C   UNL     1      -3.623   1.633   0.126  0.00  0.00    +0.229 C 
ATOM      9  O   UNL     1      -3.804   2.828   0.229  0.00  0.00    -0.275 OA
ATOM     10  C   UNL     1      -4.851   1.627  -2.181  0.00  0.00    -0.027 A 
ATOM     11  C   UNL     1      -3.619   1.623  -2.796  0.00  0.00    +0.005 A 
ATOM     12  C   UNL     1      -3.282   2.635  -3.677  0.00  0.00    +0.004 A 
ATOM     13  C   UNL     1      -4.186   3.648  -3.940  0.00  0.00    -0.046 A 
ATOM     14  C   UNL     1      -5.421   3.656  -3.326  0.00  0.00    -0.026 A 
ATOM     15  C   UNL     1      -5.768   2.642  -2.436  0.00  0.00    +0.039 A 
ATOM     16  N   UNL     1      -6.937   2.433  -1.702  0.00  0.00    -0.286 N 
ATOM     17  C   UNL     1      -6.871   1.318  -0.949  0.00  0.00    +0.211 C 
ATOM     18  O   UNL     1      -7.734   0.890  -0.212  0.00  0.00    -0.277 OA
ATOM     19  C   UNL     1      -6.398   4.765  -3.619  0.00  0.00    +0.046 C 
ATOM     20  C   UNL     1      -3.819   4.750  -4.901  0.00  0.00    +0.044 C 
ATOM     21  H   UNL     1      -7.708   3.021  -1.732  0.00  0.00    +0.155 HD
ATOM     22  N   UNL     1      -5.609  -0.647  -1.717  0.00  0.00    +0.394 N 
ATOM     23  H   UNL     1      -6.362  -1.159  -1.243  0.00  0.00    -0.083 HD
ATOM     24  H   UNL     1      -5.792  -0.628  -2.728  0.00  0.00    -0.083 HD
ENDROOT
BRANCH   1  28
ATOM     25  C   UNL     1       1.159   3.161   0.016  0.00  0.00    -0.047 A 
ATOM     26  C   UNL     1       0.380   3.124   1.158  0.00  0.00    +0.005 A 
ATOM     27  C   UNL     1      -0.811   2.425   1.161  0.00  0.00    +0.024 A 
ATOM     28  C   UNL     1      -1.224   1.754   0.017  0.00  0.00    +0.044 A 
ATOM     29  C   UNL     1      -0.442   1.798  -1.129  0.00  0.00    +0.024 A 
ATOM     30  C   UNL     1       0.748   2.499  -1.126  0.00  0.00    +0.005 A 
BRANCH  25  31
ATOM     31  C   UNL     1       2.458   3.925   0.016  0.00  0.00    +0.035 C 
BRANCH  31  32
ATOM     32  C   UNL     1       3.594   2.998   0.452  0.00  0.00    +0.004 C 
BRANCH  32  34
ATOM     33  C   UNL     1       6.050   2.846   0.888  0.00  0.00    +0.004 C 
ATOM     34  C   UNL     1       4.913   3.773   0.452  0.00  0.00    -0.003 C 
ENDBRANCH  32  34
ENDBRANCH  31  32
ENDBRANCH  25  31
ENDBRANCH   1  28
BRANCH   5  35
ATOM     35  C   UNL     1      -4.438  -2.805  -1.419  0.00  0.00    +0.080 C 
BRANCH  35  36
ATOM     36  C   UNL     1      -4.777  -3.309  -2.798  0.00  0.00    +0.209 C 
ATOM     37  O   UNL     1      -4.909  -2.525  -3.714  0.00  0.00    -0.276 OA
ATOM     38  N   UNL     1      -4.934  -4.630  -3.013  0.00  0.00    -0.329 N 
ATOM     39  H   UNL     1      -4.829  -5.257  -2.281  0.00  0.00    +0.145 HD
ATOM     40  H   UNL     1      -5.153  -4.954  -3.901  0.00  0.00    +0.145 HD
ENDBRANCH  35  36
ENDBRANCH   5  35
TORSDOF 6
