REMARK  Name = ZINC09359171
REMARK  5 active torsions:
REMARK  status: ('A' for Active; 'I' for Inactive)
REMARK    1  A    between atoms: C_1  and  O_2
REMARK    2  A    between atoms: O_2  and  C_3
REMARK    3  A    between atoms: C_8  and  N_9
REMARK    4  A    between atoms: C_24  and  C_30
REMARK    5  A    between atoms: N_32  and  C_33
REMARK                            x       y       z     vdW  Elec       q    Type
REMARK                         _______ _______ _______ _____ _____    ______ ____
ROOT
ATOM      1  N   UNL     1      -2.625  -1.505  -1.650  0.00  0.00    -0.206 N 
ATOM      2  C   UNL     1      -2.769  -0.224  -1.278  0.00  0.00    +0.232 C 
ATOM      3  O   UNL     1      -3.349   0.635  -1.906  0.00  0.00    -0.274 OA
ATOM      4  C   UNL     1      -2.085  -0.031   0.061  0.00  0.00    +0.113 C 
ATOM      5  C   UNL     1      -1.131   1.162  -0.009  0.00  0.00    +0.100 C 
ATOM      6  C   UNL     1      -1.197   1.967   1.286  0.00  0.00    -0.021 A 
ATOM      7  C   UNL     1      -2.384   2.124   1.963  0.00  0.00    +0.006 A 
ATOM      8  C   UNL     1      -2.420   2.862   3.134  0.00  0.00    +0.000 A 
ATOM      9  C   UNL     1      -1.266   3.444   3.628  0.00  0.00    +0.001 A 
ATOM     10  C   UNL     1      -0.070   3.295   2.957  0.00  0.00    +0.008 A 
ATOM     11  C   UNL     1      -0.024   2.554   1.775  0.00  0.00    -0.019 A 
ATOM     12  C   UNL     1       1.251   2.394   1.048  0.00  0.00    +0.022 C 
ATOM     13  C   UNL     1       1.366   1.423   0.121  0.00  0.00    +0.054 C 
ATOM     14  C   UNL     1       0.183  -0.785  -0.413  0.00  0.00    +0.156 C 
ATOM     15  C   UNL     1      -1.166  -1.284   0.145  0.00  0.00    +0.118 C 
ATOM     16  C   UNL     1      -1.816  -2.221  -0.856  0.00  0.00    +0.232 C 
ATOM     17  O   UNL     1      -1.633  -3.418  -0.926  0.00  0.00    -0.274 OA
ATOM     18  N   UNL     1       0.157   0.699  -0.450  0.00  0.00    -0.383 NA
ATOM     19  H   UNL     1       0.185   0.934  -1.449  0.00  0.00    +0.127 HD
ENDROOT
BRANCH   1  25
ATOM     20  C   UNL     1      -2.803  -1.754  -4.053  0.00  0.00    +0.142 A 
ATOM     21  C   UNL     1      -3.440  -2.294  -5.159  0.00  0.00    +0.047 A 
ATOM     22  C   UNL     1      -4.533  -3.123  -4.990  0.00  0.00    +0.004 A 
ATOM     23  C   UNL     1      -4.994  -3.416  -3.720  0.00  0.00    +0.002 A 
ATOM     24  C   UNL     1      -4.361  -2.885  -2.612  0.00  0.00    +0.027 A 
ATOM     25  C   UNL     1      -3.267  -2.049  -2.773  0.00  0.00    +0.085 A 
BRANCH  20  27
ATOM     26  C   UNL     1      -1.357  -0.614  -5.559  0.00  0.00    +0.277 C 
ATOM     27  O   UNL     1      -1.728  -0.938  -4.217  0.00  0.00    -0.493 OA
ENDBRANCH  20  27
ENDBRANCH   1  25
BRANCH  14  28
ATOM     28  C   UNL     1       0.237  -0.994  -1.905  0.00  0.00    +0.237 C 
ATOM     29  O   UNL     1      -0.009  -0.074  -2.656  0.00  0.00    -0.273 OA
ATOM     30  N   UNL     1       0.559  -2.204  -2.404  0.00  0.00    -0.284 N 
ATOM     31  H   UNL     1       0.671  -2.961  -1.808  0.00  0.00    +0.155 HD
BRANCH  30  32
ATOM     32  C   UNL     1       0.731  -2.368  -3.784  0.00  0.00    +0.034 A 
ATOM     33  C   UNL     1       1.377  -1.388  -4.525  0.00  0.00    +0.025 A 
ATOM     34  C   UNL     1       1.550  -1.555  -5.885  0.00  0.00    +0.022 A 
ATOM     35  C   UNL     1       1.071  -2.693  -6.511  0.00  0.00    +0.041 A 
ATOM     36  C   UNL     1       0.423  -3.669  -5.774  0.00  0.00    +0.022 A 
ATOM     37  C   UNL     1       0.252  -3.509  -4.413  0.00  0.00    +0.025 A 
ATOM     38 CL   UNL     1       1.285  -2.897  -8.221  0.00  0.00    -0.084 Cl
ENDBRANCH  30  32
ENDBRANCH  14  28
TORSDOF 4
