REMARK  Name = ZINC05945306
REMARK  14 active torsions:
REMARK  status: ('A' for Active; 'I' for Inactive)
REMARK    1  A    between atoms: C_1  and  C_2
REMARK    2  A    between atoms: C_2  and  C_32
REMARK    3  A    between atoms: C_4  and  N_10
REMARK    4  A    between atoms: C_6  and  C_8
REMARK    5  A    between atoms: C_6  and  C_9
REMARK    6  A    between atoms: N_10  and  C_11
REMARK    7  A    between atoms: N_10  and  C_19
REMARK    8  A    between atoms: C_11  and  C_12
REMARK    9  A    between atoms: C_19  and  N_21
REMARK   10  A    between atoms: N_21  and  C_22
REMARK   11  A    between atoms: C_26  and  O_30
REMARK   12  A    between atoms: C_27  and  O_28
REMARK   13  A    between atoms: O_28  and  C_29
REMARK   14  A    between atoms: O_30  and  C_31
REMARK                            x       y       z     vdW  Elec       q    Type
REMARK                         _______ _______ _______ _____ _____    ______ ____
ROOT
ATOM      1  N   UNL     1       2.830  -0.680  -2.663  0.00  0.00    -0.305 N 
ENDROOT
BRANCH   1   5
ATOM      2  C   UNL     1       1.284   2.405   0.074  0.00  0.00    -0.010 C 
ATOM      3  C   UNL     1       1.038   0.907   0.282  0.00  0.00    -0.072 C 
ATOM      4  C   UNL     1       1.210   0.168  -1.041  0.00  0.00    +0.009 C 
ATOM      5  C   UNL     1       2.692   0.062  -1.403  0.00  0.00    +0.073 C 
ATOM      6  C   UNL     1       3.401  -0.705  -0.286  0.00  0.00    +0.009 C 
ATOM      7  C   UNL     1       3.246   0.027   1.042  0.00  0.00    -0.072 C 
ATOM      8  N   UNL     1       1.870   0.378   1.349  0.00  0.00    +0.386 N 
ATOM      9  C   UNL     1       4.153   1.261   1.064  0.00  0.00    -0.010 C 
ATOM     10  C   UNL     1       3.747  -0.923   2.155  0.00  0.00    -0.010 C 
ATOM     11  C   UNL     1      -0.438   0.746   0.713  0.00  0.00    -0.010 C 
ATOM     12  H   UNL     1       1.875   1.055   2.118  0.00  0.00    -0.084 HD
ATOM     13  H   UNL     1       1.407  -0.451   1.735  0.00  0.00    -0.084 HD
ENDBRANCH   1   5
BRANCH   1  14
ATOM     14  C   UNL     1       2.394  -1.952  -2.747  0.00  0.00    +0.138 C 
ATOM     15  S   UNL     1       1.601  -2.676  -1.413  0.00  0.00    -0.018 S 
BRANCH  14  16
ATOM     16  N   UNL     1       2.581  -2.655  -3.882  0.00  0.00    -0.294 N 
ATOM     17  H   UNL     1       3.237  -3.369  -3.908  0.00  0.00    +0.154 HD
BRANCH  16  18
ATOM     18  C   UNL     1       1.828  -2.354  -5.025  0.00  0.00    +0.079 A 
ATOM     19  C   UNL     1       0.904  -1.318  -4.996  0.00  0.00    +0.027 A 
ATOM     20  C   UNL     1       0.162  -1.021  -6.123  0.00  0.00    +0.006 A 
ATOM     21  C   UNL     1       0.335  -1.753  -7.283  0.00  0.00    +0.049 A 
ATOM     22  C   UNL     1       1.256  -2.789  -7.321  0.00  0.00    +0.163 A 
ATOM     23  C   UNL     1       2.009  -3.089  -6.192  0.00  0.00    +0.183 A 
BRANCH  23  24
ATOM     24  O   UNL     1       2.917  -4.102  -6.227  0.00  0.00    -0.490 OA
ATOM     25  C   UNL     1       2.451  -5.404  -5.867  0.00  0.00    +0.277 C 
ENDBRANCH  23  24
BRANCH  22  26
ATOM     26  O   UNL     1       1.425  -3.507  -8.463  0.00  0.00    -0.491 OA
ATOM     27  C   UNL     1       0.621  -3.141  -9.586  0.00  0.00    +0.277 C 
ENDBRANCH  22  26
ENDBRANCH  16  18
ENDBRANCH  14  16
ENDBRANCH   1  14
BRANCH   1  28
ATOM     28  C   UNL     1       3.443  -0.036  -3.828  0.00  0.00    +0.145 C 
BRANCH  28  29
ATOM     29  C   UNL     1       4.943  -0.118  -3.715  0.00  0.00    +0.005 A 
ATOM     30  C   UNL     1       5.659   0.955  -3.216  0.00  0.00    +0.008 A 
ATOM     31  C   UNL     1       7.035   0.880  -3.113  0.00  0.00    +0.000 A 
ATOM     32  C   UNL     1       7.698  -0.267  -3.509  0.00  0.00    +0.003 A 
ATOM     33  C   UNL     1       6.985  -1.340  -4.007  0.00  0.00    +0.038 A 
ATOM     34  C   UNL     1       5.606  -1.269  -4.106  0.00  0.00    +0.128 A 
ATOM     35  F   UNL     1       4.907  -2.320  -4.590  0.00  0.00    -0.205 F 
ENDBRANCH  28  29
ENDBRANCH   1  28
TORSDOF 8
