REMARK  Name = ZINC58465075
REMARK  4 active torsions:
REMARK  status: ('A' for Active; 'I' for Inactive)
REMARK    1  A    between atoms: C_3  and  C_11
REMARK    2  A    between atoms: C_5  and  C_7
REMARK    3  A    between atoms: C_17  and  S_24
REMARK    4  A    between atoms: S_24  and  N_27
REMARK                            x       y       z     vdW  Elec       q    Type
REMARK                         _______ _______ _______ _____ _____    ______ ____
ROOT
ATOM      1  C   UNL     1       3.672   2.182  -0.022  0.00  0.00    +0.191 C 
ATOM      2  N   UNL     1       4.694   1.415  -0.731  0.00  0.00    -0.322 N 
ATOM      3  C   UNL     1       4.671   1.198  -2.106  0.00  0.00    +0.057 A 
ATOM      4  C   UNL     1       5.382   0.118  -2.627  0.00  0.00    +0.047 A 
ATOM      5  C   UNL     1       5.394  -0.115  -3.987  0.00  0.00    +0.069 A 
ATOM      6  C   UNL     1       4.700   0.723  -4.844  0.00  0.00    +0.125 A 
ATOM      7  C   UNL     1       3.987   1.792  -4.333  0.00  0.00    +0.060 A 
ATOM      8  C   UNL     1       3.968   2.023  -2.973  0.00  0.00    +0.128 A 
ATOM      9  S   UNL     1       3.023   3.367  -2.322  0.00  0.00    +0.062 S 
ATOM     10  O   UNL     1       3.487   4.549  -2.961  0.00  0.00    -0.153 OA
ATOM     11  O   UNL     1       1.660   2.966  -2.344  0.00  0.00    -0.153 OA
ATOM     12  N   UNL     1       3.476   3.471  -0.717  0.00  0.00    -0.166 NA
ATOM     13 CL   UNL     1       6.281  -1.463  -4.627  0.00  0.00    -0.081 Cl
ATOM     14  H   UNL     1       5.426   1.039  -0.217  0.00  0.00    +0.148 HD
ATOM     15  H   UNL     1       3.605   4.322  -0.269  0.00  0.00    +0.150 HD
ENDROOT
BRANCH   1  18
ATOM     16  C   UNL     1      -0.017   1.378   0.010  0.00  0.00    +0.001 A 
ATOM     17  C   UNL     1       1.171   2.085   0.002  0.00  0.00    +0.007 A 
ATOM     18  C   UNL     1       2.377   1.411  -0.013  0.00  0.00    -0.011 A 
ATOM     19  C   UNL     1       2.396   0.028  -0.020  0.00  0.00    +0.019 A 
ATOM     20  C   UNL     1       1.209  -0.679  -0.012  0.00  0.00    +0.055 A 
ATOM     21  C   UNL     1       0.002  -0.004   0.002  0.00  0.00    +0.012 A 
BRANCH  20  22
ATOM     22  C   UNL     1       1.229  -2.186  -0.020  0.00  0.00    +0.417 C 
ATOM     23  F   UNL     1       1.249  -2.660   1.296  0.00  0.00    -0.166 F 
ATOM     24  F   UNL     1       0.086  -2.664  -0.671  0.00  0.00    -0.166 F 
ATOM     25  F   UNL     1       2.371  -2.633  -0.694  0.00  0.00    -0.166 F 
ENDBRANCH  20  22
ENDBRANCH   1  18
BRANCH   6  26
ATOM     26  S   UNL     1       4.726   0.428  -6.581  0.00  0.00    +0.057 S 
ATOM     27  O   UNL     1       4.429  -0.950  -6.763  0.00  0.00    -0.153 OA
ATOM     28  O   UNL     1       3.954   1.460  -7.179  0.00  0.00    -0.153 OA
BRANCH  26  29
ATOM     29  N   UNL     1       6.286   0.647  -7.091  0.00  0.00    -0.203 NA
ATOM     30  H   UNL     1       6.622   0.147  -7.852  0.00  0.00    +0.144 HD
ATOM     31  H   UNL     1       6.864   1.275  -6.630  0.00  0.00    +0.144 HD
ENDBRANCH  26  29
ENDBRANCH   6  26
TORSDOF 4
