REMARK  Name = ZINC65536174
REMARK  11 active torsions:
REMARK  status: ('A' for Active; 'I' for Inactive)
REMARK    1  A    between atoms: C_1  and  N_2
REMARK    2  A    between atoms: C_9  and  C_24
REMARK    3  A    between atoms: C_9  and  C_27
REMARK    4  A    between atoms: C_11  and  C_13
REMARK    5  A    between atoms: C_16  and  O_22
REMARK    6  A    between atoms: C_17  and  C_19
REMARK    7  A    between atoms: C_19  and  C_20
REMARK    8  A    between atoms: O_22  and  C_23
REMARK    9  A    between atoms: C_24  and  C_25
REMARK   10  A    between atoms: C_25  and  O_26
REMARK   11  A    between atoms: C_27  and  O_28
REMARK                            x       y       z     vdW  Elec       q    Type
REMARK                         _______ _______ _______ _____ _____    ______ ____
ROOT
ATOM      1  C   UNL     1      -0.068   1.170  -0.402  0.00  0.00    -0.096 C 
ATOM      2  N   UNL     1       0.012  -0.294  -0.318  0.00  0.00    +0.378 N 
ATOM      3  C   UNL     1       0.866  -0.824  -1.411  0.00  0.00    -0.074 C 
ATOM      4  C   UNL     1       1.304  -2.212  -0.885  0.00  0.00    -0.003 C 
ATOM      5  C   UNL     1       1.497  -1.962   0.639  0.00  0.00    -0.002 C 
ATOM      6  C   UNL     1       0.673  -0.697   0.942  0.00  0.00    -0.074 C 
ATOM      7  C   UNL     1       2.994  -1.652   0.808  0.00  0.00    +0.046 C 
ATOM      8  N   UNL     1       3.589  -1.624  -0.545  0.00  0.00    -0.301 NA
ATOM      9  C   UNL     1       2.732  -2.506  -1.399  0.00  0.00    +0.086 C 
ATOM     10  H   UNL     1       3.603  -0.685  -0.915  0.00  0.00    +0.123 HD
ATOM     11  H   UNL     1      -0.912  -0.697  -0.370  0.00  0.00    -0.082 HD
ENDROOT
BRANCH   9  12
ATOM     12  C   UNL     1       2.850  -2.161  -2.862  0.00  0.00    -0.030 A 
ATOM     13  C   UNL     1       3.161  -0.869  -3.243  0.00  0.00    +0.009 A 
ATOM     14  C   UNL     1       3.269  -0.550  -4.583  0.00  0.00    +0.046 A 
ATOM     15  C   UNL     1       3.066  -1.528  -5.546  0.00  0.00    +0.124 A 
ATOM     16  C   UNL     1       2.754  -2.823  -5.161  0.00  0.00    -0.002 A 
ATOM     17  C   UNL     1       2.652  -3.138  -3.819  0.00  0.00    +0.012 A 
BRANCH  15  18
ATOM     18  O   UNL     1       3.171  -1.217  -6.865  0.00  0.00    -0.495 OA
ATOM     19  C   UNL     1       3.494   0.137  -7.188  0.00  0.00    +0.277 C 
ENDBRANCH  15  18
BRANCH  16  20
ATOM     20  C   UNL     1       2.532  -3.888  -6.204  0.00  0.00    +0.065 C 
BRANCH  20  21
ATOM     21  C   UNL     1       1.139  -3.759  -6.764  0.00  0.00    -0.030 C 
ATOM     22  C   UNL     1       0.961  -3.634  -8.056  0.00  0.00    +0.004 C 
ENDBRANCH  20  21
ENDBRANCH  16  20
ENDBRANCH   9  12
BRANCH   7  23
ATOM     23  C   UNL     1       3.661  -2.744   1.647  0.00  0.00    +0.052 C 
BRANCH  23  24
ATOM     24  C   UNL     1       5.171  -2.502   1.691  0.00  0.00    +0.157 C 
BRANCH  24  25
ATOM     25  O   UNL     1       5.781  -3.457   2.562  0.00  0.00    -0.395 OA
ATOM     26  H   UNL     1       6.740  -3.363   2.639  0.00  0.00    +0.209 HD
ENDBRANCH  24  25
ENDBRANCH  23  24
ENDBRANCH   7  23
BRANCH   7  27
ATOM     27  C   UNL     1       3.172  -0.290   1.483  0.00  0.00    +0.178 C 
BRANCH  27  28
ATOM     28  O   UNL     1       2.521  -0.301   2.755  0.00  0.00    -0.393 OA
ATOM     29  H   UNL     1       2.593   0.532   3.241  0.00  0.00    +0.209 HD
ENDBRANCH  27  28
ENDBRANCH   7  27
TORSDOF 9
