REMARK  Name = ZINC00719917
REMARK  8 active torsions:
REMARK  status: ('A' for Active; 'I' for Inactive)
REMARK    1  A    between atoms: C_1  and  O_2
REMARK    2  A    between atoms: O_2  and  C_3
REMARK    3  A    between atoms: C_6  and  C_11
REMARK    4  A    between atoms: C_8  and  O_9
REMARK    5  A    between atoms: O_9  and  C_10
REMARK    6  A    between atoms: C_14  and  C_39
REMARK    7  A    between atoms: C_19  and  C_21
REMARK    8  A    between atoms: C_28  and  N_79
REMARK                            x       y       z     vdW  Elec       q    Type
REMARK                         _______ _______ _______ _____ _____    ______ ____
ROOT
ATOM      1  C   UNL     1       0.367   2.022   0.046  0.00  0.00    +0.104 C 
ATOM      2  C   UNL     1      -1.009   1.385  -0.174  0.00  0.00    +0.063 C 
ATOM      3  C   UNL     1      -0.880  -0.143  -0.194  0.00  0.00    +0.215 C 
ATOM      4  N   UNL     1       0.195  -0.516  -1.118  0.00  0.00    -0.238 N 
ATOM      5  C   UNL     1       1.172   0.344  -1.531  0.00  0.00    +0.119 A 
ATOM      6  C   UNL     1       1.988  -0.320  -2.373  0.00  0.00    +0.078 A 
ATOM      7  C   UNL     1       1.500  -1.642  -2.486  0.00  0.00    +0.149 A 
ATOM      8  N   UNL     1       0.423  -1.749  -1.728  0.00  0.00    -0.164 NA
ATOM      9  N   UNL     1       1.235   1.671  -1.096  0.00  0.00    -0.322 N 
ATOM     10  H   UNL     1       1.814   2.324  -1.520  0.00  0.00    +0.148 HD
ENDROOT
BRANCH   7  11
ATOM     11  C   UNL     1       2.091  -2.716  -3.309  0.00  0.00    +0.267 C 
ATOM     12  O   UNL     1       3.019  -2.470  -4.055  0.00  0.00    -0.268 OA
ATOM     13  N   UNL     1       1.603  -3.970  -3.232  0.00  0.00    -0.300 N 
ATOM     14  C   UNL     1       2.223  -5.069  -3.987  0.00  0.00    +0.089 C 
ATOM     15  C   UNL     1       2.499  -6.227  -3.014  0.00  0.00    -0.059 C 
ATOM     16  C   UNL     1       0.775  -5.462  -1.490  0.00  0.00    -0.059 C 
ATOM     17  C   UNL     1       0.431  -4.274  -2.396  0.00  0.00    +0.089 C 
ATOM     18  N   UNL     1       1.235  -6.585  -2.335  0.00  0.00    +0.384 N 
ATOM     19  H   UNL     1       0.520  -6.783  -3.045  0.00  0.00    -0.081 HD
BRANCH  18  20
ATOM     20  C   UNL     1       1.434  -7.791  -1.505  0.00  0.00    -0.062 C 
ATOM     21  C   UNL     1       2.091  -8.880  -2.355  0.00  0.00    -0.024 C 
ATOM     22  C   UNL     1       2.276 -10.144  -1.512  0.00  0.00    +0.005 C 
ATOM     23  C   UNL     1       0.912 -10.634  -1.022  0.00  0.00    -0.010 C 
ATOM     24  C   UNL     1       0.021 -10.949  -2.226  0.00  0.00    +0.007 C 
ATOM     25  C   UNL     1      -0.163  -9.685  -3.069  0.00  0.00    -0.010 C 
ATOM     26  C   UNL     1       1.201  -9.195  -3.558  0.00  0.00    +0.005 C 
ATOM     27  C   UNL     1      -0.821  -8.597  -2.219  0.00  0.00    +0.005 C 
ATOM     28  C   UNL     1       0.069  -8.281  -1.015  0.00  0.00    -0.024 C 
ATOM     29  C   UNL     1       0.254  -9.545  -0.172  0.00  0.00    +0.005 C 
ENDBRANCH  18  20
ENDBRANCH   7  11
BRANCH   1  33
ATOM     30  C   UNL     1      -0.041   6.272   0.284  0.00  0.00    +0.162 A 
ATOM     31  C   UNL     1      -0.031   5.642  -0.950  0.00  0.00    +0.050 A 
ATOM     32  C   UNL     1       0.102   4.268  -1.024  0.00  0.00    +0.009 A 
ATOM     33  C   UNL     1       0.224   3.519   0.132  0.00  0.00    -0.024 A 
ATOM     34  C   UNL     1       0.209   4.141   1.367  0.00  0.00    +0.054 A 
ATOM     35  C   UNL     1       0.082   5.518   1.447  0.00  0.00    +0.162 A 
BRANCH  30  37
ATOM     36  C   UNL     1      -0.294   8.332  -0.877  0.00  0.00    +0.277 C 
ATOM     37  O   UNL     1      -0.172   7.623   0.358  0.00  0.00    -0.491 OA
ENDBRANCH  30  37
BRANCH  35  38
ATOM     38  O   UNL     1       0.073   6.132   2.661  0.00  0.00    -0.491 OA
ATOM     39  C   UNL     1       0.204   5.295   3.812  0.00  0.00    +0.277 C 
ENDBRANCH  35  38
ENDBRANCH   1  33
BRANCH   3  40
ATOM     40  C   UNL     1      -2.198  -0.762  -0.663  0.00  0.00    +0.412 C 
ATOM     41  F   UNL     1      -2.496  -0.304  -1.951  0.00  0.00    -0.168 F 
ATOM     42  F   UNL     1      -2.078  -2.156  -0.680  0.00  0.00    -0.168 F 
ATOM     43  F   UNL     1      -3.225  -0.394   0.212  0.00  0.00    -0.168 F 
ENDBRANCH   3  40
TORSDOF 6
