REMARK  Name = ZINC40986369
REMARK  14 active torsions:
REMARK  status: ('A' for Active; 'I' for Inactive)
REMARK    1  A    between atoms: C_1  and  C_2
REMARK    2  A    between atoms: C_5  and  C_8
REMARK    3  A    between atoms: C_8  and  S_9
REMARK    4  A    between atoms: S_9  and  C_12
REMARK    5  A    between atoms: C_15  and  C_19
REMARK    6  A    between atoms: N_21  and  C_22
REMARK    7  A    between atoms: C_22  and  C_23
REMARK    8  A    between atoms: C_23  and  C_25
REMARK    9  A    between atoms: C_23  and  N_34
REMARK   10  A    between atoms: C_28  and  N_31
REMARK   11  A    between atoms: N_31  and  C_32
REMARK   12  A    between atoms: N_31  and  C_33
REMARK   13  A    between atoms: N_34  and  C_35
REMARK   14  A    between atoms: N_34  and  C_36
REMARK                            x       y       z     vdW  Elec       q    Type
REMARK                         _______ _______ _______ _____ _____    ______ ____
ROOT
ATOM      1  C   UNL     1       1.711 -10.412   0.654  0.00  0.00    +0.248 C 
ATOM      2  O   UNL     1       1.926 -10.808  -0.475  0.00  0.00    -0.270 OA
ATOM      3  N   UNL     1       1.508 -11.295   1.651  0.00  0.00    -0.312 N 
ATOM      4  H   UNL     1       1.336 -10.978   2.552  0.00  0.00    +0.149 HD
ENDROOT
BRANCH   1   8
ATOM      5  C   UNL     1       1.606  -6.330   1.438  0.00  0.00    +0.272 A 
ATOM      6  N   UNL     1       1.403  -7.177   2.429  0.00  0.00    -0.219 NA
ATOM      7  C   UNL     1       1.428  -8.483   2.224  0.00  0.00    +0.130 A 
ATOM      8  C   UNL     1       1.673  -8.961   0.932  0.00  0.00    +0.092 A 
ATOM      9  C   UNL     1       1.883  -8.025  -0.089  0.00  0.00    +0.146 A 
ATOM     10  N   UNL     1       1.836  -6.736   0.205  0.00  0.00    -0.199 NA
ATOM     11 CL   UNL     1       2.194  -8.548  -1.715  0.00  0.00    -0.061 Cl
BRANCH   5  12
ATOM     12  S   UNL     1       1.560  -4.601   1.772  0.00  0.00    +0.036 S 
ATOM     13  O   UNL     1       2.372  -4.015   0.763  0.00  0.00    -0.166 OA
ATOM     14  O   UNL     1       1.915  -4.487   3.143  0.00  0.00    -0.166 OA
BRANCH  12  15
ATOM     15  C   UNL     1      -0.174  -4.125   1.533  0.00  0.00    +0.210 C 
BRANCH  15  20
ATOM     16  C   UNL     1      -0.779   1.533   2.538  0.00  0.00    +0.044 C 
ATOM     17  C   UNL     1      -0.621   0.057   2.276  0.00  0.00    -0.050 A 
ATOM     18  C   UNL     1      -0.326  -0.391   1.002  0.00  0.00    +0.003 A 
ATOM     19  C   UNL     1      -0.181  -1.744   0.762  0.00  0.00    +0.005 A 
ATOM     20  C   UNL     1      -0.331  -2.650   1.795  0.00  0.00    -0.026 A 
ATOM     21  C   UNL     1      -0.625  -2.202   3.070  0.00  0.00    +0.005 A 
ATOM     22  C   UNL     1      -0.766  -0.848   3.311  0.00  0.00    +0.003 A 
ENDBRANCH  15  20
ENDBRANCH  12  15
ENDBRANCH   5  12
ENDBRANCH   1   8
BRANCH   3  23
ATOM     23  C   UNL     1       1.545 -12.733   1.375  0.00  0.00    +0.094 C 
BRANCH  23  24
ATOM     24  C   UNL     1       1.379 -13.508   2.683  0.00  0.00    -0.021 C 
BRANCH  24  25
ATOM     25  C   UNL     1       0.025 -13.212   3.274  0.00  0.00    -0.059 A 
ATOM     26  C   UNL     1      -1.096 -13.863   2.792  0.00  0.00    +0.004 A 
ATOM     27  C   UNL     1      -2.338 -13.594   3.331  0.00  0.00    +0.023 A 
ATOM     28  C   UNL     1      -2.462 -12.668   4.359  0.00  0.00    +0.029 A 
ATOM     29  C   UNL     1      -1.334 -12.016   4.841  0.00  0.00    +0.023 A 
ATOM     30  C   UNL     1      -0.094 -12.294   4.302  0.00  0.00    +0.004 A 
BRANCH  28  31
ATOM     31  N   UNL     1      -3.717 -12.393   4.907  0.00  0.00    -0.336 N 
ATOM     32  C   UNL     1      -4.911 -13.048   4.366  0.00  0.00    +0.129 C 
ATOM     33  C   UNL     1      -3.840 -11.451   6.021  0.00  0.00    +0.129 C 
ENDBRANCH  28  31
ENDBRANCH  24  25
BRANCH  24  34
ATOM     34  N   UNL     1       1.493 -14.949   2.417  0.00  0.00    +0.382 N 
ATOM     35  C   UNL     1       2.795 -15.231   1.800  0.00  0.00    -0.096 C 
ATOM     36  C   UNL     1       1.378 -15.691   3.680  0.00  0.00    -0.096 C 
ATOM     37  H   UNL     1       0.755 -15.234   1.791  0.00  0.00    -0.082 HD
ENDBRANCH  24  34
ENDBRANCH  23  24
ENDBRANCH   3  23
TORSDOF 9
