REMARK  Name = ZINC09389484
REMARK  9 active torsions:
REMARK  status: ('A' for Active; 'I' for Inactive)
REMARK    1  A    between atoms: C_1  and  C_2
REMARK    2  A    between atoms: C_2  and  C_4
REMARK    3  A    between atoms: C_2  and  N_52
REMARK    4  A    between atoms: C_7  and  S_10
REMARK    5  A    between atoms: S_10  and  N_13
REMARK    6  A    between atoms: C_14  and  C_15
REMARK    7  A    between atoms: C_14  and  N_52
REMARK    8  A    between atoms: N_17  and  C_18
REMARK    9  A    between atoms: C_19  and  C_28
REMARK                            x       y       z     vdW  Elec       q    Type
REMARK                         _______ _______ _______ _____ _____    ______ ____
ROOT
ATOM      1  C   UNL     1      -0.013   1.086   0.008  0.00  0.00    +0.016 C 
ENDROOT
BRANCH   1   2
ATOM      2  C   UNL     1      -0.742   1.585  -1.213  0.00  0.00    +0.201 C 
ATOM      3  O   UNL     1      -1.736   2.268  -1.088  0.00  0.00    -0.278 OA
ATOM      4  N   UNL     1      -0.288   1.272  -2.443  0.00  0.00    -0.281 N 
ATOM      5  H   UNL     1       0.507   0.726  -2.543  0.00  0.00    +0.155 HD
BRANCH   4   6
ATOM      6  C   UNL     1      -0.960   1.732  -3.568  0.00  0.00    +0.090 A 
ATOM      7  C   UNL     1      -0.649   1.524  -4.901  0.00  0.00    +0.084 A 
ATOM      8  C   UNL     1      -1.525   2.115  -5.902  0.00  0.00    -0.018 A 
ATOM      9  C   UNL     1      -2.558   2.830  -5.404  0.00  0.00    -0.004 A 
ATOM     10  S   UNL     1      -2.386   2.712  -3.644  0.00  0.00    -0.077 S 
ATOM     11  C   UNL     1      -3.609   3.573  -6.168  0.00  0.00    +0.043 C 
ATOM     12  C   UNL     1      -4.184   2.659  -7.258  0.00  0.00    +0.005 C 
ATOM     13  C   UNL     1      -3.350   2.834  -8.523  0.00  0.00    +0.001 C 
ATOM     14  C   UNL     1      -1.894   3.118  -8.158  0.00  0.00    +0.005 C 
ATOM     15  C   UNL     1      -1.296   1.939  -7.398  0.00  0.00    +0.037 C 
BRANCH   7  16
ATOM     16  C   UNL     1       0.494   0.750  -5.282  0.00  0.00    +0.102 C 
ATOM     17  N   UNL     1       1.401   0.136  -5.585  0.00  0.00    -0.191 NA
ENDBRANCH   7  16
ENDBRANCH   4   6
ENDBRANCH   1   2
BRANCH   1  18
ATOM     18  N   UNL     1      -0.709   1.566   1.217  0.00  0.00    +0.389 N 
ATOM     19  H   UNL     1      -0.723   2.592   1.214  0.00  0.00    -0.084 HD
ATOM     20  H   UNL     1      -1.672   1.210   1.216  0.00  0.00    -0.084 HD
BRANCH  18  22
ATOM     21  C   UNL     1       1.120   2.054   2.778  0.00  0.00    -0.009 C 
ATOM     22  C   UNL     1      -0.016   1.091   2.429  0.00  0.00    -0.043 C 
BRANCH  22  23
ATOM     23  C   UNL     1      -0.998   1.038   3.571  0.00  0.00    -0.062 A 
ATOM     24  C   UNL     1      -1.935   2.043   3.724  0.00  0.00    +0.004 A 
ATOM     25  C   UNL     1      -2.839   1.992   4.769  0.00  0.00    +0.029 A 
ATOM     26  C   UNL     1      -2.799   0.942   5.667  0.00  0.00    +0.105 A 
ATOM     27  C   UNL     1      -1.858  -0.060   5.517  0.00  0.00    +0.029 A 
ATOM     28  C   UNL     1      -0.958  -0.012   4.470  0.00  0.00    +0.004 A 
BRANCH  26  29
ATOM     29  S   UNL     1      -3.946   0.881   7.003  0.00  0.00    +0.056 S 
ATOM     30  O   UNL     1      -5.073   1.651   6.606  0.00  0.00    -0.153 OA
ATOM     31  O   UNL     1      -4.052  -0.483   7.385  0.00  0.00    -0.153 OA
BRANCH  29  32
ATOM     32  N   UNL     1      -3.254   1.678   8.279  0.00  0.00    -0.204 NA
ATOM     33  H   UNL     1      -2.370   2.067   8.187  0.00  0.00    +0.144 HD
ATOM     34  H   UNL     1      -3.733   1.756   9.119  0.00  0.00    +0.144 HD
ENDBRANCH  29  32
ENDBRANCH  26  29
ENDBRANCH  22  23
ENDBRANCH  18  22
ENDBRANCH   1  18
TORSDOF 8
