REMARK  Name = ZINC44563391
REMARK  6 active torsions:
REMARK  status: ('A' for Active; 'I' for Inactive)
REMARK    1  A    between atoms: C_1  and  N_2
REMARK    2  A    between atoms: C_7  and  C_9
REMARK    3  A    between atoms: C_9  and  N_10
REMARK    4  A    between atoms: N_10  and  S_11
REMARK    5  A    between atoms: S_11  and  C_14
REMARK    6  A    between atoms: C_15  and  N_22
REMARK                            x       y       z     vdW  Elec       q    Type
REMARK                         _______ _______ _______ _____ _____    ______ ____
ROOT
ATOM      1  S   UNL     1      -1.462   2.195   3.621  0.00  0.00    +0.062 S 
ATOM      2  O   UNL     1      -1.359   3.571   3.283  0.00  0.00    -0.153 OA
ATOM      3  O   UNL     1      -2.712   1.554   3.837  0.00  0.00    -0.153 OA
ENDROOT
BRANCH   1   4
ATOM      4  C   UNL     1      -0.519   1.966   5.092  0.00  0.00    +0.144 A 
ATOM      5  C   UNL     1      -0.714   0.834   5.874  0.00  0.00    +0.054 A 
ATOM      6  C   UNL     1       0.032   0.657   7.032  0.00  0.00    +0.044 A 
ATOM      7  C   UNL     1       0.964   1.607   7.405  0.00  0.00    +0.044 A 
ATOM      8  C   UNL     1       1.156   2.734   6.625  0.00  0.00    +0.042 A 
ATOM      9  C   UNL     1       0.418   2.910   5.467  0.00  0.00    +0.070 A 
ATOM     10 CL   UNL     1       0.667   4.322   4.487  0.00  0.00    -0.081 Cl
ATOM     11 CL   UNL     1       1.895   1.387   8.853  0.00  0.00    -0.083 Cl
BRANCH   5  12
ATOM     12  N   UNL     1      -1.657  -0.124   5.495  0.00  0.00    -0.356 N 
ATOM     13  H   UNL     1      -2.048  -0.095   4.608  0.00  0.00    +0.142 HD
ATOM     14  H   UNL     1      -1.920  -0.818   6.119  0.00  0.00    +0.142 HD
ENDBRANCH   5  12
ENDBRANCH   1   4
BRANCH   1  15
ATOM     15  N   UNL     1      -0.700   1.353   2.416  0.00  0.00    -0.191 NA
ATOM     16  H   UNL     1      -0.313   1.827   1.663  0.00  0.00    +0.148 HD
BRANCH  15  17
ATOM     17  C   UNL     1      -0.611  -0.108   2.486  0.00  0.00    +0.090 C 
BRANCH  17  24
ATOM     18  C   UNL     1       2.023  -0.207   1.518  0.00  0.00    -0.096 C 
ATOM     19  N   UNL     1       0.914  -0.014   0.574  0.00  0.00    +0.381 N 
ATOM     20  C   UNL     1       1.272  -0.598  -0.725  0.00  0.00    -0.079 C 
ATOM     21  C   UNL     1       0.154  -0.329  -1.734  0.00  0.00    -0.019 C 
ATOM     22  C   UNL     1      -1.146  -0.961  -1.229  0.00  0.00    -0.003 C 
ATOM     23  C   UNL     1      -1.470  -0.400   0.159  0.00  0.00    -0.014 C 
ATOM     24  C   UNL     1      -0.292  -0.667   1.098  0.00  0.00    -0.053 C 
ATOM     25  H   UNL     1       0.739   0.973   0.460  0.00  0.00    -0.082 HD
ENDBRANCH  17  24
ENDBRANCH  15  17
ENDBRANCH   1  15
TORSDOF 5
