REMARK  Name = ZINC63486254
REMARK  9 active torsions:
REMARK  status: ('A' for Active; 'I' for Inactive)
REMARK    1  A    between atoms: C_1  and  C_2
REMARK    2  A    between atoms: C_13  and  C_15
REMARK    3  A    between atoms: C_15  and  C_16
REMARK    4  A    between atoms: C_16  and  C_17
REMARK    5  A    between atoms: N_19  and  C_20
REMARK    6  A    between atoms: C_20  and  C_21
REMARK    7  A    between atoms: C_21  and  C_22
REMARK    8  A    between atoms: C_25  and  O_31
REMARK    9  A    between atoms: O_31  and  C_32
REMARK                            x       y       z     vdW  Elec       q    Type
REMARK                         _______ _______ _______ _____ _____    ______ ____
ROOT
ATOM      1  C   UNL     1       0.441  -1.995   1.458  0.00  0.00    +0.024 C 
ENDROOT
BRANCH   1  13
ATOM      2  C   UNL     1      -0.019   1.526   0.010  0.00  0.00    +0.013 C 
ATOM      3  C   UNL     1       0.002  -0.004   0.002  0.00  0.00    +0.033 C 
ATOM      4  C   UNL     1       0.705  -0.489  -1.242  0.00  0.00    -0.001 A 
ATOM      5  C   UNL     1      -0.001  -0.507  -2.417  0.00  0.00    +0.019 A 
ATOM      6  C   UNL     1       0.606  -0.939  -3.594  0.00  0.00    +0.024 A 
ATOM      7  C   UNL     1       1.948  -1.360  -3.579  0.00  0.00    +0.139 A 
ATOM      8  C   UNL     1       2.649  -1.339  -2.383  0.00  0.00    +0.093 A 
ATOM      9  C   UNL     1       2.029  -0.907  -1.218  0.00  0.00    +0.139 A 
ATOM     10  O   UNL     1       2.755  -0.920  -0.066  0.00  0.00    -0.425 OA
ATOM     11  C   UNL     1       2.222  -0.312   1.013  0.00  0.00    +0.316 C 
ATOM     12  O   UNL     1       2.896   0.359   1.758  0.00  0.00    -0.250 OA
ATOM     13  C   UNL     1       0.740  -0.510   1.245  0.00  0.00    +0.106 C 
ATOM     14  O   UNL     1       2.273  -1.719  -4.839  0.00  0.00    -0.459 OA
ATOM     15  C   UNL     1       1.228  -1.558  -5.668  0.00  0.00    +0.109 A 
ATOM     16  C   UNL     1       0.174  -1.085  -4.983  0.00  0.00    +0.001 A 
ATOM     17  C   UNL     1      -1.174  -0.778  -5.579  0.00  0.00    +0.039 C 
ATOM     18  C   UNL     1      -1.024  -0.700  -7.104  0.00  0.00    +0.005 C 
ATOM     19  C   UNL     1      -0.266  -1.934  -7.601  0.00  0.00    +0.008 C 
ATOM     20  C   UNL     1       1.197  -1.852  -7.151  0.00  0.00    +0.075 C 
ENDBRANCH   1  13
BRANCH   1  21
ATOM     21  C   UNL     1       1.079  -2.461   2.768  0.00  0.00    +0.096 C 
BRANCH  21  22
ATOM     22  C   UNL     1       0.784  -3.925   2.977  0.00  0.00    +0.213 C 
ATOM     23  O   UNL     1       0.129  -4.534   2.159  0.00  0.00    -0.276 OA
ATOM     24  N   UNL     1       1.250  -4.555   4.074  0.00  0.00    -0.315 N 
ATOM     25  H   UNL     1       1.774  -4.068   4.728  0.00  0.00    +0.149 HD
BRANCH  24  26
ATOM     26  C   UNL     1       0.964  -5.978   4.277  0.00  0.00    +0.108 C 
BRANCH  26  27
ATOM     27  C   UNL     1       1.602  -6.444   5.587  0.00  0.00    +0.052 C 
BRANCH  27  28
ATOM     28  C   UNL     1       1.307  -7.907   5.797  0.00  0.00    -0.040 C 
ATOM     29  C   UNL     1       2.100  -8.951   5.465  0.00  0.00    +0.002 A 
ATOM     30  C   UNL     1       3.422  -9.036   4.835  0.00  0.00    +0.055 A 
ATOM     31  C   UNL     1       3.982 -10.251   4.622  0.00  0.00    +0.121 A 
ATOM     32  C   UNL     1       3.341 -11.448   4.985  0.00  0.00    +0.047 A 
ATOM     33  C   UNL     1       2.124 -11.472   5.570  0.00  0.00    +0.029 A 
ATOM     34  C   UNL     1       1.425 -10.213   5.848  0.00  0.00    +0.043 A 
ATOM     35  N   UNL     1       0.262  -9.958   6.394  0.00  0.00    -0.380 N 
ATOM     36  C   UNL     1       0.069  -8.504   6.426  0.00  0.00    +0.144 C 
ATOM     37  H   UNL     1      -0.365 -10.620   6.725  0.00  0.00    +0.160 HD
BRANCH  31  38
ATOM     38  O   UNL     1       5.207 -10.315   4.036  0.00  0.00    -0.495 OA
ATOM     39  C   UNL     1       5.761 -11.617   3.831  0.00  0.00    +0.277 C 
ENDBRANCH  31  38
ENDBRANCH  27  28
ENDBRANCH  26  27
ENDBRANCH  24  26
ENDBRANCH  21  22
ENDBRANCH   1  21
TORSDOF 7
