REMARK  Name = ZINC66472136
REMARK  10 active torsions:
REMARK  status: ('A' for Active; 'I' for Inactive)
REMARK    1  A    between atoms: C_1  and  C_2
REMARK    2  A    between atoms: C_2  and  C_4
REMARK    3  A    between atoms: C_2  and  N_16
REMARK    4  A    between atoms: N_9  and  C_10
REMARK    5  A    between atoms: C_10  and  C_11
REMARK    6  A    between atoms: N_16  and  C_17
REMARK    7  A    between atoms: N_16  and  C_18
REMARK    8  A    between atoms: C_18  and  C_19
REMARK    9  A    between atoms: C_23  and  O_25
REMARK   10  A    between atoms: O_25  and  C_26
REMARK                            x       y       z     vdW  Elec       q    Type
REMARK                         _______ _______ _______ _____ _____    ______ ____
ROOT
ATOM      1  C   UNL     1       0.512   1.371  -0.505  0.00  0.00    -0.004 C 
ATOM      2  C   UNL     1      -0.113   0.068  -0.003  0.00  0.00    +0.017 C 
ENDROOT
BRANCH   2   3
ATOM      3  C   UNL     1       0.505  -0.308   1.319  0.00  0.00    +0.207 C 
ATOM      4  O   UNL     1       1.461  -1.053   1.351  0.00  0.00    -0.277 OA
ATOM      5  N   UNL     1      -0.005   0.183   2.465  0.00  0.00    -0.242 N 
ATOM      6  C   UNL     1       0.547  -0.154   3.648  0.00  0.00    +0.306 C 
ATOM      7  O   UNL     1       1.505  -0.900   3.680  0.00  0.00    -0.252 OA
ATOM      8  N   UNL     1       0.036   0.338   4.794  0.00  0.00    -0.294 N 
ATOM      9  H   UNL     1      -0.770   0.779   2.439  0.00  0.00    +0.159 HD
ATOM     10  H   UNL     1      -0.729   0.934   4.768  0.00  0.00    +0.151 HD
BRANCH   8  11
ATOM     11  C   UNL     1       0.636  -0.028   6.080  0.00  0.00    +0.148 C 
BRANCH  11  12
ATOM     12  C   UNL     1      -0.115   0.650   7.196  0.00  0.00    +0.007 A 
ATOM     13  C   UNL     1      -1.185   0.203   7.899  0.00  0.00    +0.013 A 
ATOM     14  C   UNL     1      -1.716   1.005   8.892  0.00  0.00    +0.008 A 
ATOM     15  C   UNL     1      -1.152   2.213   9.133  0.00  0.00    +0.045 A 
ATOM     16  S   UNL     1       0.177   2.245   7.942  0.00  0.00    -0.100 S 
ENDBRANCH  11  12
ENDBRANCH   8  11
ENDBRANCH   2   3
BRANCH   2  17
ATOM     17  N   UNL     1       0.133  -1.001  -0.980  0.00  0.00    +0.388 N 
ATOM     18  C   UNL     1      -0.424  -0.612  -2.283  0.00  0.00    -0.095 C 
ATOM     19  H   UNL     1       1.127  -1.152  -1.071  0.00  0.00    -0.081 HD
BRANCH  17  20
ATOM     20  C   UNL     1      -0.511  -2.240  -0.523  0.00  0.00    -0.042 C 
BRANCH  20  21
ATOM     21  C   UNL     1      -0.142  -3.369  -1.450  0.00  0.00    -0.060 A 
ATOM     22  C   UNL     1      -0.925  -3.638  -2.558  0.00  0.00    +0.002 A 
ATOM     23  C   UNL     1      -0.590  -4.673  -3.410  0.00  0.00    +0.004 A 
ATOM     24  C   UNL     1       0.529  -5.443  -3.157  0.00  0.00    +0.046 A 
ATOM     25  C   UNL     1       1.316  -5.176  -2.047  0.00  0.00    +0.127 A 
ATOM     26  C   UNL     1       0.981  -4.132  -1.196  0.00  0.00    +0.047 A 
BRANCH  25  27
ATOM     27  O   UNL     1       2.418  -5.931  -1.796  0.00  0.00    -0.434 OA
BRANCH  27  28
ATOM     28  C   UNL     1       2.705  -6.985  -2.717  0.00  0.00    +0.541 C 
ATOM     29  F   UNL     1       1.633  -7.883  -2.749  0.00  0.00    -0.166 F 
ATOM     30  F   UNL     1       2.901  -6.447  -3.994  0.00  0.00    -0.166 F 
ENDBRANCH  27  28
ENDBRANCH  25  27
ENDBRANCH  20  21
ENDBRANCH  17  20
ENDBRANCH   2  17
TORSDOF 8
