REMARK  Name = ZINC62100021
REMARK  2 active torsions:
REMARK  status: ('A' for Active; 'I' for Inactive)
REMARK    1  A    between atoms: C_9  and  C_11
REMARK    2  A    between atoms: C_14  and  N_16
REMARK                            x       y       z     vdW  Elec       q    Type
REMARK                         _______ _______ _______ _____ _____    ______ ____
ROOT
ATOM      1  C   UNL     1      -0.018   1.508   0.010  0.00  0.00    +0.114 C 
ATOM      2  C   UNL     1       1.428   2.017  -0.001  0.00  0.00    +0.117 C 
ATOM      3  N   UNL     1       1.954   1.963  -1.363  0.00  0.00    -0.299 N 
ATOM      4  C   UNL     1       2.123   0.707  -2.091  0.00  0.00    +0.126 C 
ATOM      5  C   UNL     1       0.756   0.052  -2.316  0.00  0.00    +0.123 C 
ATOM      6  N   UNL     1       0.371  -0.670  -1.096  0.00  0.00    -0.314 N 
ATOM      7  C   UNL     1       0.002  -0.004   0.002  0.00  0.00    +0.215 C 
ATOM      8  O   UNL     1      -0.318  -0.616   0.999  0.00  0.00    -0.276 OA
ATOM      9  C   UNL     1       2.296   3.115  -1.972  0.00  0.00    +0.217 C 
ATOM     10  O   UNL     1       2.165   4.171  -1.389  0.00  0.00    -0.275 OA
ATOM     11  H   UNL     1       0.383  -1.640  -1.087  0.00  0.00    +0.149 HD
ENDROOT
BRANCH   9  12
ATOM     12  C   UNL     1       2.842   3.093  -3.376  0.00  0.00    +0.059 C 
ATOM     13  C   UNL     1       1.965   3.679  -4.484  0.00  0.00    -0.005 C 
ATOM     14  C   UNL     1       3.211   4.434  -4.013  0.00  0.00    -0.063 C 
BRANCH  14  15
ATOM     15  N   UNL     1       3.005   5.646  -3.208  0.00  0.00    +0.380 N 
ATOM     16  H   UNL     1       3.559   5.589  -2.367  0.00  0.00    -0.090 HD
ATOM     17  H   UNL     1       3.286   6.455  -3.741  0.00  0.00    -0.090 HD
ATOM     18  H   UNL     1       2.030   5.726  -2.963  0.00  0.00    -0.090 HD
ENDBRANCH  14  15
ENDBRANCH   9  12
TORSDOF 2
