REMARK  Name = ZINC53114730
REMARK  8 active torsions:
REMARK  status: ('A' for Active; 'I' for Inactive)
REMARK    1  A    between atoms: C_1  and  C_2
REMARK    2  A    between atoms: C_7  and  C_9
REMARK    3  A    between atoms: C_7  and  N_11
REMARK    4  A    between atoms: C_9  and  O_10
REMARK    5  A    between atoms: N_11  and  C_12
REMARK    6  A    between atoms: C_15  and  S_19
REMARK    7  A    between atoms: C_17  and  N_18
REMARK    8  A    between atoms: S_19  and  N_22
REMARK                            x       y       z     vdW  Elec       q    Type
REMARK                         _______ _______ _______ _____ _____    ______ ____
ROOT
ATOM      1  C   UNL     1      -1.515  -1.946   2.286  0.00  0.00    +0.049 A 
ATOM      2  C   UNL     1      -1.062  -0.957   3.146  0.00  0.00    +0.027 A 
ATOM      3  C   UNL     1      -1.901  -0.451   4.121  0.00  0.00    +0.030 A 
ATOM      4  C   UNL     1      -3.193  -0.927   4.242  0.00  0.00    +0.107 A 
ATOM      5  C   UNL     1      -3.654  -1.913   3.389  0.00  0.00    +0.053 A 
ATOM      6  C   UNL     1      -2.820  -2.423   2.405  0.00  0.00    +0.048 A 
ENDROOT
BRANCH   6   7
ATOM      7  N   UNL     1      -3.286  -3.417   1.536  0.00  0.00    -0.356 N 
ATOM      8  H   UNL     1      -2.701  -3.776   0.851  0.00  0.00    +0.142 HD
ATOM      9  H   UNL     1      -4.194  -3.748   1.620  0.00  0.00    +0.142 HD
ENDBRANCH   6   7
BRANCH   4  10
ATOM     10  S   UNL     1      -4.256  -0.277   5.488  0.00  0.00    +0.056 S 
ATOM     11  O   UNL     1      -5.236  -1.272   5.746  0.00  0.00    -0.153 OA
ATOM     12  O   UNL     1      -3.415   0.246   6.507  0.00  0.00    -0.153 OA
BRANCH  10  13
ATOM     13  N   UNL     1      -5.055   1.014   4.825  0.00  0.00    -0.204 NA
ATOM     14  H   UNL     1      -4.884   1.269   3.905  0.00  0.00    +0.144 HD
ATOM     15  H   UNL     1      -5.694   1.513   5.357  0.00  0.00    +0.144 HD
ENDBRANCH  10  13
ENDBRANCH   4  10
BRANCH   1  16
ATOM     16  N   UNL     1      -0.667  -2.460   1.298  0.00  0.00    -0.335 N 
ATOM     17  H   UNL     1      -1.011  -3.086   0.641  0.00  0.00    +0.147 HD
BRANCH  16  23
ATOM     18  C   UNL     1       0.266   1.217  -0.721  0.00  0.00    +0.007 C 
ATOM     19  C   UNL     1       0.177  -0.279  -0.410  0.00  0.00    -0.012 C 
ATOM     20  C   UNL     1       0.904  -1.070  -1.499  0.00  0.00    +0.003 C 
ATOM     21  C   UNL     1       0.815  -2.566  -1.189  0.00  0.00    +0.002 C 
ATOM     22  C   UNL     1       1.467  -2.845   0.167  0.00  0.00    +0.028 C 
ATOM     23  C   UNL     1       0.740  -2.053   1.256  0.00  0.00    +0.055 C 
ATOM     24  C   UNL     1       0.829  -0.558   0.945  0.00  0.00    +0.031 C 
BRANCH  23  25
ATOM     25  C   UNL     1       1.392  -2.333   2.611  0.00  0.00    +0.181 C 
BRANCH  25  26
ATOM     26  O   UNL     1       1.299  -3.728   2.906  0.00  0.00    -0.393 OA
ATOM     27  H   UNL     1       1.693  -3.978   3.753  0.00  0.00    +0.209 HD
ENDBRANCH  25  26
ENDBRANCH  23  25
ENDBRANCH  16  23
ENDBRANCH   1  16
TORSDOF 7
