REMARK  Name = ZINC40676027
REMARK  11 active torsions:
REMARK  status: ('A' for Active; 'I' for Inactive)
REMARK    1  A    between atoms: C_1  and  N_2
REMARK    2  A    between atoms: N_2  and  C_3
REMARK    3  A    between atoms: N_2  and  C_4
REMARK    4  A    between atoms: C_4  and  C_5
REMARK    5  A    between atoms: C_5  and  C_7
REMARK    6  A    between atoms: C_5  and  O_20
REMARK    7  A    between atoms: C_7  and  N_8
REMARK    8  A    between atoms: N_8  and  C_9
REMARK    9  A    between atoms: C_9  and  C_10
REMARK   10  A    between atoms: C_10  and  C_11
REMARK   11  A    between atoms: C_14  and  N_17
REMARK                            x       y       z     vdW  Elec       q    Type
REMARK                         _______ _______ _______ _____ _____    ______ ____
ROOT
ATOM      1  N   UNL     1      -2.774  -4.035  -0.119  0.00  0.00    +0.381 N 
ATOM      2  H   UNL     1      -2.302  -4.360  -0.949  0.00  0.00    -0.086 HD
ATOM      3  H   UNL     1      -2.286  -4.369   0.699  0.00  0.00    -0.086 HD
ENDROOT
BRANCH   1   4
ATOM      4  C   UNL     1      -2.794  -2.566  -0.111  0.00  0.00    -0.053 C 
BRANCH   4   5
ATOM      5  C   UNL     1      -1.358  -2.037  -0.122  0.00  0.00    +0.081 C 
BRANCH   5   6
ATOM      6  O   UNL     1      -0.726  -2.399  -1.351  0.00  0.00    -0.395 OA
ATOM      7  H   UNL     1      -1.166  -2.049  -2.138  0.00  0.00    +0.210 HD
ENDBRANCH   5   6
BRANCH   5   8
ATOM      8  C   UNL     1      -1.376  -0.512   0.012  0.00  0.00    -0.050 C 
BRANCH   8  10
ATOM      9  C   UNL     1      -0.018   1.465   0.010  0.00  0.00    -0.096 C 
ATOM     10  N   UNL     1       0.002  -0.004   0.002  0.00  0.00    +0.378 N 
ATOM     11  C   UNL     1       0.713  -0.491   1.192  0.00  0.00    -0.096 C 
ATOM     12  H   UNL     1       0.474  -0.330  -0.828  0.00  0.00    -0.083 HD
ENDBRANCH   8  10
ENDBRANCH   5   8
ENDBRANCH   4   5
ENDBRANCH   1   4
BRANCH   1  13
ATOM     13  C   UNL     1      -4.152  -4.543  -0.108  0.00  0.00    -0.078 C 
BRANCH  13  14
ATOM     14  C   UNL     1      -4.131  -6.073  -0.117  0.00  0.00    +0.016 C 
BRANCH  14  15
ATOM     15  C   UNL     1      -5.545  -6.595  -0.106  0.00  0.00    -0.049 A 
ATOM     16  C   UNL     1      -6.184  -6.835   1.096  0.00  0.00    +0.006 A 
ATOM     17  C   UNL     1      -7.481  -7.314   1.106  0.00  0.00    +0.033 A 
ATOM     18  C   UNL     1      -8.139  -7.551  -0.086  0.00  0.00    +0.126 A 
ATOM     19  C   UNL     1      -7.500  -7.310  -1.288  0.00  0.00    +0.033 A 
ATOM     20  C   UNL     1      -6.205  -6.828  -1.298  0.00  0.00    +0.006 A 
BRANCH  18  21
ATOM     21  N   UNL     1      -9.527  -8.065  -0.076  0.00  0.00    +0.056 N 
ATOM     22  O   UNL     1     -10.086  -8.276   0.975  0.00  0.00    -0.126 OA
ATOM     23  O   UNL     1     -10.103  -8.273  -1.119  0.00  0.00    -0.126 OA
ENDBRANCH  18  21
ENDBRANCH  14  15
ENDBRANCH  13  14
ENDBRANCH   1  13
TORSDOF 9
