REMARK  Name = ZINC08817257
REMARK  9 active torsions:
REMARK  status: ('A' for Active; 'I' for Inactive)
REMARK    1  A    between atoms: C_1  and  C_2
REMARK    2  A    between atoms: C_5  and  S_8
REMARK    3  A    between atoms: S_8  and  N_11
REMARK    4  A    between atoms: C_16  and  C_17
REMARK    5  A    between atoms: C_16  and  N_63
REMARK    6  A    between atoms: N_19  and  N_20
REMARK    7  A    between atoms: C_21  and  C_22
REMARK    8  A    between atoms: C_26  and  O_28
REMARK    9  A    between atoms: O_28  and  C_29
REMARK                            x       y       z     vdW  Elec       q    Type
REMARK                         _______ _______ _______ _____ _____    ______ ____
ROOT
ATOM      1  C   UNL     1      -0.916   5.763  -2.707  0.00  0.00    +0.216 C 
ATOM      2  O   UNL     1      -0.975   5.962  -1.512  0.00  0.00    -0.276 OA
ATOM      3  N   UNL     1      -1.814   6.338  -3.531  0.00  0.00    -0.209 N 
ATOM      4  H   UNL     1      -1.767   6.178  -4.487  0.00  0.00    +0.177 HD
ENDROOT
BRANCH   3   5
ATOM      5  N   UNL     1      -2.814   7.168  -3.008  0.00  0.00    -0.188 NA
ATOM      6  C   UNL     1      -3.765   7.601  -3.776  0.00  0.00    +0.138 C 
BRANCH   6   7
ATOM      7  C   UNL     1      -4.009   6.959  -5.082  0.00  0.00    -0.002 A 
ATOM      8  C   UNL     1      -4.702   7.645  -6.082  0.00  0.00    +0.010 A 
ATOM      9  C   UNL     1      -4.924   7.043  -7.303  0.00  0.00    +0.004 A 
ATOM     10  C   UNL     1      -4.471   5.758  -7.539  0.00  0.00    +0.046 A 
ATOM     11  C   UNL     1      -3.785   5.066  -6.549  0.00  0.00    +0.129 A 
ATOM     12  C   UNL     1      -3.552   5.662  -5.321  0.00  0.00    +0.055 A 
BRANCH  11  13
ATOM     13  O   UNL     1      -3.342   3.804  -6.786  0.00  0.00    -0.456 OA
BRANCH  13  14
ATOM     14  C   UNL     1      -3.493   3.299  -8.039  0.00  0.00    +0.128 A 
ATOM     15  C   UNL     1      -4.483   2.362  -8.297  0.00  0.00    +0.046 A 
ATOM     16  C   UNL     1      -4.638   1.855  -9.572  0.00  0.00    +0.004 A 
ATOM     17  C   UNL     1      -3.799   2.272 -10.590  0.00  0.00    +0.000 A 
ATOM     18  C   UNL     1      -2.808   3.202 -10.335  0.00  0.00    +0.004 A 
ATOM     19  C   UNL     1      -2.653   3.716  -9.062  0.00  0.00    +0.046 A 
ENDBRANCH  13  14
ENDBRANCH  11  13
ENDBRANCH   6   7
ENDBRANCH   3   5
BRANCH   1  20
ATOM     20  C   UNL     1       0.160   4.871  -3.269  0.00  0.00    +0.020 C 
BRANCH  20  26
ATOM     21  N   UNL     1       1.809   3.741   0.424  0.00  0.00    -0.180 NA
ATOM     22  C   UNL     1       1.020   2.729  -0.295  0.00  0.00    +0.091 C 
ATOM     23  C   UNL     1       0.125   3.440  -1.316  0.00  0.00    -0.061 C 
ATOM     24  C   UNL     1       1.598   5.365  -1.385  0.00  0.00    -0.061 C 
ATOM     25  C   UNL     1       2.553   4.734  -0.367  0.00  0.00    +0.091 C 
ATOM     26  N   UNL     1       0.974   4.287  -2.182  0.00  0.00    +0.387 N 
ATOM     27  H   UNL     1       1.714   3.707  -2.594  0.00  0.00    -0.081 HD
BRANCH  21  28
ATOM     28  S   UNL     1       1.854   3.765   2.079  0.00  0.00    +0.061 S 
ATOM     29  O   UNL     1       2.186   5.094   2.458  0.00  0.00    -0.153 OA
ATOM     30  O   UNL     1       0.669   3.119   2.527  0.00  0.00    -0.153 OA
BRANCH  28  35
ATOM     31  C   UNL     1       6.471   0.279   3.791  0.00  0.00    +0.044 C 
ATOM     32  C   UNL     1       5.317   1.149   3.364  0.00  0.00    -0.050 A 
ATOM     33  C   UNL     1       5.518   2.498   3.134  0.00  0.00    +0.005 A 
ATOM     34  C   UNL     1       4.460   3.296   2.742  0.00  0.00    +0.029 A 
ATOM     35  C   UNL     1       3.202   2.747   2.579  0.00  0.00    +0.105 A 
ATOM     36  C   UNL     1       3.001   1.399   2.814  0.00  0.00    +0.029 A 
ATOM     37  C   UNL     1       4.059   0.600   3.202  0.00  0.00    +0.005 A 
ENDBRANCH  28  35
ENDBRANCH  21  28
ENDBRANCH  20  26
ENDBRANCH   1  20
TORSDOF 8
