REMARK  Name = ZINC26603190
REMARK  6 active torsions:
REMARK  status: ('A' for Active; 'I' for Inactive)
REMARK    1  A    between atoms: C_2  and  C_3
REMARK    2  A    between atoms: C_3  and  N_4
REMARK    3  A    between atoms: C_8  and  C_10
REMARK    4  A    between atoms: C_10  and  N_11
REMARK    5  A    between atoms: C_15  and  C_17
REMARK    6  A    between atoms: N_19  and  C_20
REMARK                            x       y       z     vdW  Elec       q    Type
REMARK                         _______ _______ _______ _____ _____    ______ ____
ROOT
ATOM      1  N   UNL     1      -6.210   1.692   0.463  0.00  0.00    +0.393 N 
ATOM      2  C   UNL     1      -6.774   2.251   1.710  0.00  0.00    -0.077 C 
ATOM      3  C   UNL     1      -8.270   2.494   1.393  0.00  0.00    -0.020 C 
ATOM      4  C   UNL     1      -8.603   1.273   0.495  0.00  0.00    -0.008 C 
ATOM      5  C   UNL     1      -7.301   1.066  -0.307  0.00  0.00    +0.020 C 
ATOM      6  H   UNL     1      -5.751   2.495  -0.133  0.00  0.00    -0.080 HD
ENDROOT
BRANCH   5   7
ATOM      7  C   UNL     1      -7.030  -0.407  -0.475  0.00  0.00    +0.204 C 
ATOM      8  O   UNL     1      -6.736  -1.083   0.488  0.00  0.00    -0.277 OA
ATOM      9  N   UNL     1      -7.116  -0.973  -1.695  0.00  0.00    -0.286 N 
ATOM     10  H   UNL     1      -7.287  -0.344  -2.582  0.00  0.00    +0.155 HD
BRANCH   9  11
ATOM     11  C   UNL     1      -6.988  -2.359  -1.834  0.00  0.00    +0.053 A 
ATOM     12  C   UNL     1      -7.213  -3.191  -0.746  0.00  0.00    +0.044 A 
ATOM     13  C   UNL     1      -7.085  -4.561  -0.886  0.00  0.00    +0.043 A 
ATOM     14  C   UNL     1      -6.734  -5.102  -2.110  0.00  0.00    +0.021 A 
ATOM     15  C   UNL     1      -6.509  -4.276  -3.196  0.00  0.00    +0.023 A 
ATOM     16  C   UNL     1      -6.641  -2.907  -3.063  0.00  0.00    +0.062 A 
ATOM     17 CL   UNL     1      -6.365  -1.871  -4.429  0.00  0.00    -0.082 Cl
ATOM     18 CL   UNL     1      -7.365  -5.602   0.474  0.00  0.00    -0.083 Cl
ENDBRANCH   9  11
ENDBRANCH   5   7
BRANCH   1  19
ATOM     19  C   UNL     1      -5.147   0.720   0.755  0.00  0.00    +0.020 C 
BRANCH  19  24
ATOM     20  N   UNL     1      -0.556   0.723   2.182  0.00  0.00    -0.296 N 
ATOM     21  C   UNL     1      -1.668   1.415   1.863  0.00  0.00    +0.306 C 
ATOM     22  O   UNL     1      -1.663   2.629   1.912  0.00  0.00    -0.252 OA
ATOM     23  N   UNL     1      -2.786   0.760   1.490  0.00  0.00    -0.242 N 
ATOM     24  C   UNL     1      -3.898   1.452   1.172  0.00  0.00    +0.204 C 
ATOM     25  O   UNL     1      -3.892   2.663   1.220  0.00  0.00    -0.277 OA
ATOM     26  H   UNL     1      -0.563  -0.377   2.142  0.00  0.00    +0.151 HD
ATOM     27  H   UNL     1      -2.791  -0.339   1.446  0.00  0.00    +0.159 HD
BRANCH  20  28
ATOM     28  C   UNL     1       0.660   1.434   2.581  0.00  0.00    +0.132 C 
BRANCH  28  30
ATOM     29  C   UNL     1       2.904   0.526   2.259  0.00  0.00    +0.005 C 
ATOM     30  C   UNL     1       1.751   0.438   2.876  0.00  0.00    -0.016 C 
ENDBRANCH  28  30
ENDBRANCH  20  28
ENDBRANCH  19  24
ENDBRANCH   1  19
TORSDOF 6
