REMARK  Name = ZINC05762742
REMARK  3 active torsions:
REMARK  status: ('A' for Active; 'I' for Inactive)
REMARK    1  A    between atoms: C_11  and  C_15
REMARK    2  A    between atoms: N_22  and  C_25
REMARK    3  A    between atoms: C_23  and  O_24
REMARK                            x       y       z     vdW  Elec       q    Type
REMARK                         _______ _______ _______ _____ _____    ______ ____
ROOT
ATOM      1  C   UNL     1       1.478   1.794  -0.594  0.00  0.00    +0.068 A 
ATOM      2  C   UNL     1       1.623   2.944   0.202  0.00  0.00    +0.258 A 
ATOM      3  O   UNL     1       0.675   3.687   0.386  0.00  0.00    -0.267 OA
ATOM      4  N   UNL     1       2.817   3.216   0.766  0.00  0.00    -0.302 N 
ATOM      5  H   UNL     1       2.919   4.006   1.319  0.00  0.00    +0.171 HD
ATOM      6  C   UNL     1       3.870   2.403   0.562  0.00  0.00    +0.168 A 
ATOM      7  S   UNL     1       5.377   2.777   1.284  0.00  0.00    -0.012 S 
ATOM      8  N   UNL     1       3.756   1.300  -0.201  0.00  0.00    -0.260 N 
ATOM      9  C   UNL     1       2.556   0.982  -0.788  0.00  0.00    +0.206 A 
ENDROOT
BRANCH   1  20
ATOM     10  C   UNL     1      -2.008   5.729  -4.933  0.00  0.00    +0.001 A 
ATOM     11  C   UNL     1      -0.709   5.738  -5.414  0.00  0.00    +0.002 A 
ATOM     12  C   UNL     1       0.274   4.910  -4.901  0.00  0.00    +0.026 A 
ATOM     13  C   UNL     1      -0.098   4.054  -3.866  0.00  0.00    +0.047 A 
ATOM     14  C   UNL     1      -1.431   4.048  -3.377  0.00  0.00    +0.003 A 
ATOM     15  C   UNL     1      -2.404   4.896  -3.915  0.00  0.00    +0.010 A 
ATOM     16  C   UNL     1      -1.463   3.058  -2.324  0.00  0.00    -0.022 A 
ATOM     17  C   UNL     1      -0.213   2.539  -2.228  0.00  0.00    +0.011 A 
ATOM     18  N   UNL     1       0.604   3.129  -3.148  0.00  0.00    -0.359 N 
ATOM     19  H   UNL     1       1.543   2.921  -3.272  0.00  0.00    +0.166 HD
ATOM     20  C   UNL     1       0.151   1.466  -1.228  0.00  0.00    +0.018 C 
ATOM     21  C   UNL     1      -2.232   1.296  -0.786  0.00  0.00    -0.076 C 
ATOM     22  C   UNL     1      -2.615   2.624  -1.454  0.00  0.00    +0.018 C 
ATOM     23  N   UNL     1      -0.891   1.416  -0.179  0.00  0.00    +0.388 N 
ATOM     24  H   UNL     1      -0.849   2.276   0.381  0.00  0.00    -0.084 HD
ATOM     25  H   UNL     1      -0.721   0.604   0.427  0.00  0.00    -0.084 HD
ENDBRANCH   1  20
BRANCH   8  26
ATOM     26  C   UNL     1       4.869   0.471  -0.396  0.00  0.00    +0.052 A 
ATOM     27  C   UNL     1       5.726   0.699  -1.464  0.00  0.00    +0.029 A 
ATOM     28  C   UNL     1       6.824  -0.117  -1.653  0.00  0.00    +0.040 A 
ATOM     29  C   UNL     1       7.066  -1.167  -0.783  0.00  0.00    +0.124 A 
ATOM     30  C   UNL     1       6.209  -1.399   0.279  0.00  0.00    +0.040 A 
ATOM     31  C   UNL     1       5.112  -0.583   0.474  0.00  0.00    +0.029 A 
ATOM     32  F   UNL     1       8.138  -1.966  -0.972  0.00  0.00    -0.205 F 
ENDBRANCH   8  26
BRANCH   9  33
ATOM     33  O   UNL     1       2.445  -0.125  -1.553  0.00  0.00    -0.493 OA
ATOM     34  H   UNL     1       3.268  -0.626  -1.641  0.00  0.00    +0.294 HD
ENDBRANCH   9  33
TORSDOF 3
