REMARK  Name = ZINC63375863
REMARK  8 active torsions:
REMARK  status: ('A' for Active; 'I' for Inactive)
REMARK    1  A    between atoms: C_1  and  C_2
REMARK    2  A    between atoms: C_2  and  O_3
REMARK    3  A    between atoms: O_3  and  C_4
REMARK    4  A    between atoms: C_4  and  C_6
REMARK    5  A    between atoms: C_9  and  N_12
REMARK    6  A    between atoms: C_28  and  C_33
REMARK    7  A    between atoms: C_36  and  O_39
REMARK    8  A    between atoms: O_39  and  C_40
REMARK                            x       y       z     vdW  Elec       q    Type
REMARK                         _______ _______ _______ _____ _____    ______ ____
ROOT
ATOM      1  N   UNL     1      -6.682  -4.065   0.044  0.00  0.00    -0.193 N 
ATOM      2  C   UNL     1      -6.940  -5.386  -0.047  0.00  0.00    +0.248 C 
ATOM      3  O   UNL     1      -6.134  -6.282  -0.178  0.00  0.00    -0.273 OA
ATOM      4  C   UNL     1      -8.445  -5.517   0.048  0.00  0.00    +0.169 C 
ATOM      5  C   UNL     1      -8.992  -6.192  -1.222  0.00  0.00    +0.065 C 
ATOM      6  C   UNL     1     -10.431  -5.754  -1.354  0.00  0.00    -0.034 C 
ATOM      7  C   UNL     1     -11.307  -5.939  -2.336  0.00  0.00    -0.001 A 
ATOM      8  C   UNL     1     -11.222  -6.703  -3.591  0.00  0.00    +0.010 A 
ATOM      9  C   UNL     1     -12.321  -6.664  -4.391  0.00  0.00    +0.001 A 
ATOM     10  C   UNL     1     -13.480  -5.950  -4.071  0.00  0.00    +0.002 A 
ATOM     11  C   UNL     1     -13.647  -5.226  -2.936  0.00  0.00    +0.026 A 
ATOM     12  C   UNL     1     -12.562  -5.195  -2.012  0.00  0.00    +0.043 A 
ATOM     13  N   UNL     1     -12.457  -4.606  -0.858  0.00  0.00    -0.375 N 
ATOM     14  C   UNL     1     -11.152  -4.943  -0.284  0.00  0.00    +0.131 C 
ATOM     15  C   UNL     1     -10.310  -3.687  -0.025  0.00  0.00    +0.135 C 
ATOM     16  N   UNL     1      -8.905  -4.113   0.079  0.00  0.00    -0.264 N 
ATOM     17  C   UNL     1      -7.809  -3.347   0.151  0.00  0.00    +0.317 C 
ATOM     18  O   UNL     1      -7.833  -2.140   0.292  0.00  0.00    -0.252 OA
ATOM     19  H   UNL     1     -13.128  -4.040  -0.447  0.00  0.00    +0.160 HD
ENDROOT
BRANCH   1  23
ATOM     20  C   UNL     1      -2.852  -2.419   0.016  0.00  0.00    +0.059 A 
ATOM     21  C   UNL     1      -3.973  -1.585   0.001  0.00  0.00    +0.017 A 
ATOM     22  C   UNL     1      -5.237  -2.132   0.011  0.00  0.00    +0.025 A 
ATOM     23  C   UNL     1      -5.398  -3.513   0.035  0.00  0.00    +0.045 A 
ATOM     24  C   UNL     1      -4.285  -4.346   0.050  0.00  0.00    +0.025 A 
ATOM     25  C   UNL     1      -3.018  -3.807   0.035  0.00  0.00    +0.017 A 
BRANCH  20  26
ATOM     26  C   UNL     1      -1.497  -1.837   0.006  0.00  0.00    +0.339 C 
ATOM     27  O   UNL     1      -0.523  -2.564   0.015  0.00  0.00    -0.245 OA
BRANCH  26  28
ATOM     28  O   UNL     1      -1.339  -0.499  -0.011  0.00  0.00    -0.461 OA
BRANCH  28  30
ATOM     29  C   UNL     1      -0.019   1.526  -0.040  0.00  0.00    +0.048 C 
ATOM     30  C   UNL     1       0.002  -0.004  -0.020  0.00  0.00    +0.229 C 
ENDBRANCH  28  30
ENDBRANCH  26  28
ENDBRANCH  20  26
ENDBRANCH   1  23
BRANCH  15  31
ATOM     31  C   UNL     1     -10.729  -3.046   1.273  0.00  0.00    -0.024 A 
ATOM     32  C   UNL     1     -10.263  -3.551   2.473  0.00  0.00    +0.009 A 
ATOM     33  C   UNL     1     -10.646  -2.966   3.664  0.00  0.00    +0.046 A 
ATOM     34  C   UNL     1     -11.498  -1.871   3.656  0.00  0.00    +0.120 A 
ATOM     35  C   UNL     1     -11.963  -1.366   2.450  0.00  0.00    +0.046 A 
ATOM     36  C   UNL     1     -11.573  -1.952   1.261  0.00  0.00    +0.009 A 
BRANCH  34  37
ATOM     37  O   UNL     1     -11.877  -1.293   4.826  0.00  0.00    -0.495 OA
ATOM     38  C   UNL     1     -12.755  -0.170   4.741  0.00  0.00    +0.277 C 
ENDBRANCH  34  37
ENDBRANCH  15  31
TORSDOF 6
