REMARK  Name = ZINC35427081
REMARK  6 active torsions:
REMARK  status: ('A' for Active; 'I' for Inactive)
REMARK    1  A    between atoms: C_1  and  C_2
REMARK    2  A    between atoms: C_2  and  O_3
REMARK    3  A    between atoms: O_3  and  C_4
REMARK    4  A    between atoms: C_7  and  N_10
REMARK    5  A    between atoms: C_25  and  C_27
REMARK    6  A    between atoms: N_34  and  C_37
REMARK                            x       y       z     vdW  Elec       q    Type
REMARK                         _______ _______ _______ _____ _____    ______ ____
ROOT
ATOM      1  N   UNL     1       1.143  -5.937   1.770  0.00  0.00    -0.269 N 
ATOM      2  C   UNL     1       1.864  -6.458   2.783  0.00  0.00    +0.308 C 
ATOM      3  O   UNL     1       2.348  -5.725   3.624  0.00  0.00    -0.252 OA
ATOM      4  N   UNL     1       2.049  -7.791   2.864  0.00  0.00    -0.268 N 
ATOM      5  C   UNL     1       1.483  -8.710   1.861  0.00  0.00    +0.148 C 
ATOM      6  C   UNL     1       0.943  -9.984   2.473  0.00  0.00    +0.004 A 
ATOM      7  C   UNL     1      -0.429 -10.290   2.527  0.00  0.00    -0.034 A 
ATOM      8  C   UNL     1      -0.794 -11.475   3.088  0.00  0.00    -0.021 A 
ATOM      9  S   UNL     1       0.748 -12.211   3.561  0.00  0.00    -0.077 S 
ATOM     10  C   UNL     1       1.796 -10.901   3.007  0.00  0.00    +0.090 A 
ATOM     11  N   UNL     1       3.174 -10.736   3.075  0.00  0.00    -0.312 N 
ATOM     12  C   UNL     1       4.192 -11.577   2.781  0.00  0.00    +0.092 A 
ATOM     13  C   UNL     1       5.353 -10.903   2.951  0.00  0.00    +0.020 A 
ATOM     14  C   UNL     1       5.028  -9.600   3.386  0.00  0.00    +0.025 A 
ATOM     15  C   UNL     1       3.692  -9.528   3.478  0.00  0.00    +0.049 A 
ATOM     16  C   UNL     1       2.835  -8.401   3.962  0.00  0.00    +0.155 C 
ATOM     17  C   UNL     1      -2.182 -11.998   3.253  0.00  0.00    -0.036 C 
ATOM     18  N   UNL     1      -3.125 -10.881   3.054  0.00  0.00    +0.381 N 
ATOM     19  C   UNL     1      -2.793 -10.178   1.809  0.00  0.00    -0.074 C 
ATOM     20  C   UNL     1      -1.511  -9.359   1.985  0.00  0.00    +0.018 C 
ATOM     21  C   UNL     1      -4.495 -11.405   2.971  0.00  0.00    -0.096 C 
ATOM     22  H   UNL     1       0.704  -6.525   1.136  0.00  0.00    +0.156 HD
ATOM     23  H   UNL     1      -3.057 -10.241   3.831  0.00  0.00    -0.082 HD
ENDROOT
BRANCH   1  27
ATOM     24  C   UNL     1       0.803  -1.801   1.365  0.00  0.00    +0.121 A 
ATOM     25  C   UNL     1       0.854  -2.372   2.628  0.00  0.00    +0.047 A 
ATOM     26  C   UNL     1       0.967  -3.741   2.763  0.00  0.00    +0.027 A 
ATOM     27  C   UNL     1       1.028  -4.547   1.634  0.00  0.00    +0.035 A 
ATOM     28  C   UNL     1       0.977  -3.975   0.370  0.00  0.00    +0.027 A 
ATOM     29  C   UNL     1       0.859  -2.606   0.237  0.00  0.00    +0.047 A 
BRANCH  24  30
ATOM     30  O   UNL     1       0.692  -0.452   1.233  0.00  0.00    -0.492 OA
BRANCH  30  32
ATOM     31  C   UNL     1       0.515   1.801   2.091  0.00  0.00    +0.048 C 
ATOM     32  C   UNL     1       0.639   0.316   2.438  0.00  0.00    +0.225 C 
ENDBRANCH  30  32
ENDBRANCH  24  30
ENDBRANCH   1  27
BRANCH  16  33
ATOM     33  C   UNL     1       1.889  -8.926   5.011  0.00  0.00    -0.021 A 
ATOM     34  C   UNL     1       2.249 -10.013   5.785  0.00  0.00    +0.006 A 
ATOM     35  C   UNL     1       1.381 -10.494   6.747  0.00  0.00    +0.000 A 
ATOM     36  C   UNL     1       0.152  -9.888   6.936  0.00  0.00    +0.000 A 
ATOM     37  C   UNL     1      -0.207  -8.800   6.162  0.00  0.00    +0.000 A 
ATOM     38  C   UNL     1       0.663  -8.316   5.202  0.00  0.00    +0.006 A 
ENDBRANCH  16  33
TORSDOF 4
