REMARK  Name = ZINC01803302
REMARK  6 active torsions:
REMARK  status: ('A' for Active; 'I' for Inactive)
REMARK    1  A    between atoms: C_1  and  C_2
REMARK    2  A    between atoms: C_8  and  C_9
REMARK    3  A    between atoms: C_8  and  N_55
REMARK    4  A    between atoms: C_10  and  O_32
REMARK    5  A    between atoms: C_18  and  C_20
REMARK    6  A    between atoms: C_22  and  C_25
REMARK                            x       y       z     vdW  Elec       q    Type
REMARK                         _______ _______ _______ _____ _____    ______ ____
ROOT
ATOM      1  C   UNL     1       4.457  -0.190  -1.885  0.00  0.00    +0.020 A 
ATOM      2  C   UNL     1       5.191  -1.123  -1.171  0.00  0.00    +0.122 A 
ATOM      3  C   UNL     1       6.527  -0.882  -0.858  0.00  0.00    +0.046 A 
ATOM      4  C   UNL     1       7.130   0.276  -1.252  0.00  0.00    +0.015 A 
ATOM      5  C   UNL     1       6.403   1.233  -1.976  0.00  0.00    +0.019 A 
ATOM      6  C   UNL     1       5.055   0.993  -2.299  0.00  0.00    +0.144 A 
ATOM      7  O   UNL     1       4.336   1.903  -2.991  0.00  0.00    -0.421 OA
ATOM      8  C   UNL     1       4.881   3.060  -3.402  0.00  0.00    +0.347 A 
ATOM      9  O   UNL     1       4.210   3.859  -4.027  0.00  0.00    -0.244 OA
ATOM     10  C   UNL     1       6.284   3.362  -3.099  0.00  0.00    +0.092 A 
ATOM     11  C   UNL     1       7.026   2.439  -2.387  0.00  0.00    +0.029 A 
ENDROOT
BRANCH  10  12
ATOM     12  C   UNL     1       6.892   4.629  -3.547  0.00  0.00    +0.116 A 
ATOM     13  N   UNL     1       6.348   5.625  -4.231  0.00  0.00    -0.239 NA
ATOM     14  C   UNL     1       7.046   6.698  -4.551  0.00  0.00    +0.079 A 
ATOM     15  C   UNL     1       8.360   6.785  -4.168  0.00  0.00    +0.075 A 
ATOM     16  S   UNL     1       8.557   5.233  -3.303  0.00  0.00    -0.075 S 
BRANCH  14  17
ATOM     17  C   UNL     1       6.415   7.801  -5.317  0.00  0.00    +0.001 A 
ATOM     18  C   UNL     1       7.155   8.935  -5.647  0.00  0.00    +0.011 A 
ATOM     19  C   UNL     1       6.564   9.956  -6.364  0.00  0.00    +0.016 A 
ATOM     20  C   UNL     1       5.237   9.858  -6.746  0.00  0.00    +0.018 A 
ATOM     21  C   UNL     1       4.497   8.736  -6.417  0.00  0.00    +0.016 A 
ATOM     22  C   UNL     1       5.080   7.708  -5.704  0.00  0.00    +0.011 A 
ATOM     23 BR   UNL     1       4.433  11.264  -7.723  0.00  0.00    -0.050 Br
ENDBRANCH  14  17
ENDBRANCH  10  12
BRANCH   2  24
ATOM     24  O   UNL     1       4.603  -2.280  -0.773  0.00  0.00    -0.506 OA
ATOM     25  H   UNL     1       4.679  -3.000  -1.414  0.00  0.00    +0.292 HD
ENDBRANCH   2  24
BRANCH   1  26
ATOM     26  C   UNL     1       3.012  -0.461  -2.218  0.00  0.00    -0.035 C 
BRANCH  26  33
ATOM     27  C   UNL     1       0.823  -1.990  -1.332  0.00  0.00    -0.013 C 
ATOM     28  C   UNL     1       0.787  -0.462  -1.264  0.00  0.00    -0.071 C 
ATOM     29  C   UNL     1      -0.035  -0.024  -0.051  0.00  0.00    -0.016 C 
ATOM     30  C   UNL     1      -0.051   1.505   0.025  0.00  0.00    -0.003 C 
ATOM     31  C   UNL     1       1.389   2.019   0.104  0.00  0.00    -0.019 C 
ATOM     32  C   UNL     1       2.170   1.523  -1.115  0.00  0.00    -0.078 C 
ATOM     33  N   UNL     1       2.168   0.044  -1.115  0.00  0.00    +0.384 N 
ATOM     34  H   UNL     1       2.551  -0.290  -0.223  0.00  0.00    -0.081 HD
ENDBRANCH  26  33
ENDBRANCH   1  26
TORSDOF 5
