REMARK  Name = ZINC61806158
REMARK  9 active torsions:
REMARK  status: ('A' for Active; 'I' for Inactive)
REMARK    1  A    between atoms: C_1  and  C_2
REMARK    2  A    between atoms: C_2  and  C_3
REMARK    3  A    between atoms: C_7  and  C_21
REMARK    4  A    between atoms: C_9  and  N_12
REMARK    5  A    between atoms: N_12  and  C_13
REMARK    6  A    between atoms: N_12  and  C_17
REMARK    7  A    between atoms: C_13  and  C_14
REMARK    8  A    between atoms: C_17  and  C_18
REMARK    9  A    between atoms: C_21  and  N_22
REMARK                            x       y       z     vdW  Elec       q    Type
REMARK                         _______ _______ _______ _____ _____    ______ ____
ROOT
ATOM      1  C   UNL     1       0.926  -0.226   1.532  0.00  0.00    -0.010 C 
ATOM      2  C   UNL     1       0.084   0.122   2.761  0.00  0.00    +0.004 C 
ATOM      3  C   UNL     1      -1.328  -0.443   2.589  0.00  0.00    +0.003 C 
ATOM      4  C   UNL     1      -1.252  -1.964   2.437  0.00  0.00    -0.011 C 
ATOM      5  C   UNL     1      -0.410  -2.312   1.208  0.00  0.00    +0.059 C 
ATOM      6  C   UNL     1       1.001  -1.746   1.380  0.00  0.00    +0.022 C 
ENDROOT
BRANCH   1   8
ATOM      7  C   UNL     1       0.319   1.907   0.381  0.00  0.00    +0.004 C 
ATOM      8  C   UNL     1       0.282   0.381   0.284  0.00  0.00    +0.000 C 
ENDBRANCH   1   8
BRANCH   5   9
ATOM      9  N   UNL     1      -0.338  -3.772   1.062  0.00  0.00    -0.282 NA
BRANCH   9  10
ATOM     10  C   UNL     1       0.364  -4.143  -0.174  0.00  0.00    +0.180 C 
BRANCH  10  11
ATOM     11  C   UNL     1      -0.544  -3.915  -1.355  0.00  0.00    +0.225 C 
ATOM     12  O   UNL     1      -1.698  -3.586  -1.178  0.00  0.00    -0.275 OA
ATOM     13  N   UNL     1      -0.075  -4.078  -2.608  0.00  0.00    -0.328 N 
ATOM     14  H   UNL     1       0.848  -4.341  -2.749  0.00  0.00    +0.145 HD
ATOM     15  H   UNL     1      -0.659  -3.931  -3.368  0.00  0.00    +0.145 HD
ENDBRANCH  10  11
ENDBRANCH   9  10
BRANCH   9  16
ATOM     16  C   UNL     1       0.299  -4.388   2.234  0.00  0.00    +0.180 C 
BRANCH  16  17
ATOM     17  C   UNL     1       0.012  -5.867   2.242  0.00  0.00    +0.225 C 
ATOM     18  O   UNL     1      -0.729  -6.346   1.410  0.00  0.00    -0.275 OA
ATOM     19  N   UNL     1       0.580  -6.659   3.174  0.00  0.00    -0.328 N 
ATOM     20  H   UNL     1       1.173  -6.276   3.839  0.00  0.00    +0.145 HD
ATOM     21  H   UNL     1       0.396  -7.611   3.179  0.00  0.00    +0.145 HD
ENDBRANCH  16  17
ENDBRANCH   9  16
ENDBRANCH   5   9
BRANCH   4  22
ATOM     22  C   UNL     1      -2.664  -2.530   2.265  0.00  0.00    -0.081 C 
BRANCH  22  23
ATOM     23  N   UNL     1      -3.436  -2.300   3.493  0.00  0.00    +0.378 N 
ATOM     24  H   UNL     1      -4.367  -2.673   3.380  0.00  0.00    -0.090 HD
ATOM     25  H   UNL     1      -2.981  -2.760   4.268  0.00  0.00    -0.090 HD
ATOM     26  H   UNL     1      -3.491  -1.309   3.676  0.00  0.00    -0.090 HD
ENDBRANCH  22  23
ENDBRANCH   4  22
TORSDOF 8
