REMARK  Name = ZINC20384689
REMARK  10 active torsions:
REMARK  status: ('A' for Active; 'I' for Inactive)
REMARK    1  A    between atoms: C_1  and  C_2
REMARK    2  A    between atoms: C_3  and  C_23
REMARK    3  A    between atoms: C_4  and  S_7
REMARK    4  A    between atoms: S_7  and  C_8
REMARK    5  A    between atoms: C_8  and  C_9
REMARK    6  A    between atoms: N_11  and  N_12
REMARK    7  A    between atoms: N_12  and  C_13
REMARK    8  A    between atoms: C_13  and  N_14
REMARK    9  A    between atoms: C_15  and  O_16
REMARK   10  A    between atoms: O_16  and  C_17
REMARK                            x       y       z     vdW  Elec       q    Type
REMARK                         _______ _______ _______ _____ _____    ______ ____
ROOT
ATOM      1  N   UNL     1      -6.525  -0.173   0.062  0.00  0.00    -0.251 N 
ATOM      2  H   UNL     1      -6.601  -1.270   0.057  0.00  0.00    +0.171 HD
ENDROOT
BRANCH   1   5
ATOM      3  C   UNL     1      -4.148  -0.312   0.039  0.00  0.00    +0.239 C 
ATOM      4  O   UNL     1      -4.233  -1.522   0.033  0.00  0.00    -0.273 OA
ATOM      5  N   UNL     1      -5.266   0.441   0.054  0.00  0.00    -0.235 N 
ATOM      6  H   UNL     1      -5.189   1.538   0.060  0.00  0.00    +0.173 HD
BRANCH   3   7
ATOM      7  C   UNL     1      -2.794   0.348   0.030  0.00  0.00    +0.173 C 
BRANCH   7   8
ATOM      8  S   UNL     1      -1.501  -0.924   0.011  0.00  0.00    -0.095 S 
BRANCH   8  12
ATOM      9  C   UNL     1       3.810  -0.205  -0.035  0.00  0.00    +0.054 C 
ATOM     10  C   UNL     1       2.351   0.171  -0.019  0.00  0.00    +0.025 A 
ATOM     11  C   UNL     1       1.238  -0.657  -0.013  0.00  0.00    +0.095 A 
ATOM     12  C   UNL     1       0.002  -0.004   0.002  0.00  0.00    +0.124 A 
ATOM     13  N   UNL     1      -0.016   1.306   0.009  0.00  0.00    -0.203 NA
ATOM     14  S   UNL     1       1.634   1.748  -0.004  0.00  0.00    +0.009 S 
BRANCH  11  15
ATOM     15  C   UNL     1       1.348  -2.084  -0.022  0.00  0.00    +0.103 C 
ATOM     16  N   UNL     1       1.435  -3.217  -0.030  0.00  0.00    -0.191 NA
ENDBRANCH  11  15
ENDBRANCH   8  12
ENDBRANCH   7   8
ENDBRANCH   3   7
ENDBRANCH   1   5
BRANCH   1  17
ATOM     17  C   UNL     1      -7.660   0.593   0.077  0.00  0.00    +0.117 C 
ATOM     18  C   UNL     1      -9.015  -0.067   0.086  0.00  0.00    +0.234 C 
BRANCH  17  19
ATOM     19  N   UNL     1      -7.570   1.883   0.084  0.00  0.00    -0.402 NA
ATOM     20  H   UNL     1      -8.579   2.321   0.096  0.00  0.00    +0.122 HD
ATOM     21  H   UNL     1      -7.036   2.218  -0.817  0.00  0.00    +0.122 HD
ATOM     22  H   UNL     1      -7.019   2.208   0.979  0.00  0.00    +0.122 HD
ENDBRANCH  17  19
BRANCH  18  23
ATOM     23  O   UNL     1     -10.034   0.935   0.102  0.00  0.00    -0.460 OA
BRANCH  23  24
ATOM     24  C   UNL     1     -11.322   0.504   0.111  0.00  0.00    +0.128 A 
ATOM     25  C   UNL     1     -11.601  -0.855   0.100  0.00  0.00    +0.046 A 
ATOM     26  C   UNL     1     -12.912  -1.290   0.116  0.00  0.00    +0.004 A 
ATOM     27  C   UNL     1     -13.946  -0.372   0.131  0.00  0.00    +0.000 A 
ATOM     28  C   UNL     1     -13.671   0.983   0.136  0.00  0.00    +0.004 A 
ATOM     29  C   UNL     1     -12.362   1.423   0.126  0.00  0.00    +0.046 A 
ENDBRANCH  23  24
ENDBRANCH  18  23
ENDBRANCH   1  17
TORSDOF 9
