REMARK  Name = ZINC44699170
REMARK  14 active torsions:
REMARK  status: ('A' for Active; 'I' for Inactive)
REMARK    1  A    between atoms: C_4  and  C_7
REMARK    2  A    between atoms: C_7  and  O_8
REMARK    3  A    between atoms: O_8  and  C_9
REMARK    4  A    between atoms: C_11  and  O_40
REMARK    5  A    between atoms: C_13  and  O_39
REMARK    6  A    between atoms: C_15  and  O_22
REMARK    7  A    between atoms: C_17  and  C_20
REMARK    8  A    between atoms: C_20  and  O_21
REMARK    9  A    between atoms: O_22  and  C_23
REMARK   10  A    between atoms: C_25  and  O_38
REMARK   11  A    between atoms: C_27  and  O_37
REMARK   12  A    between atoms: C_29  and  O_36
REMARK   13  A    between atoms: C_31  and  C_34
REMARK   14  A    between atoms: C_34  and  O_35
REMARK                            x       y       z     vdW  Elec       q    Type
REMARK                         _______ _______ _______ _____ _____    ______ ____
ROOT
ATOM      1  C   UNL     1       5.214  -1.156   2.011  0.00  0.00    +0.282 C 
ATOM      2  C   UNL     1       5.503  -1.395   3.495  0.00  0.00    +0.201 C 
ATOM      3  C   UNL     1       4.448  -2.348   4.066  0.00  0.00    +0.179 C 
ATOM      4  C   UNL     1       4.459  -3.648   3.255  0.00  0.00    +0.183 C 
ATOM      5  C   UNL     1       4.211  -3.322   1.780  0.00  0.00    +0.178 C 
ATOM      6  O   UNL     1       5.208  -2.408   1.321  0.00  0.00    -0.341 OA
ENDROOT
BRANCH   3   7
ATOM      7  O   UNL     1       4.750  -2.633   5.433  0.00  0.00    -0.386 OA
ATOM      8  H   UNL     1       4.766  -1.852   6.003  0.00  0.00    +0.210 HD
ENDBRANCH   3   7
BRANCH   2   9
ATOM      9  O   UNL     1       5.453  -0.151   4.197  0.00  0.00    -0.384 OA
ATOM     10  H   UNL     1       6.093   0.503   3.884  0.00  0.00    +0.210 HD
ENDBRANCH   2   9
BRANCH   1  11
ATOM     11  O   UNL     1       3.939  -0.528   1.868  0.00  0.00    -0.344 OA
BRANCH  11  12
ATOM     12  C   UNL     1       3.620  -0.158   0.525  0.00  0.00    +0.198 C 
BRANCH  12  16
ATOM     13  C   UNL     1      -0.232   1.687   0.430  0.00  0.00    +0.000 A 
ATOM     14  C   UNL     1       0.900   2.458   0.620  0.00  0.00    +0.000 A 
ATOM     15  C   UNL     1       2.146   1.861   0.651  0.00  0.00    +0.006 A 
ATOM     16  C   UNL     1       2.261   0.493   0.492  0.00  0.00    -0.022 A 
ATOM     17  C   UNL     1       1.130  -0.279   0.303  0.00  0.00    +0.006 A 
ATOM     18  C   UNL     1      -0.116   0.319   0.270  0.00  0.00    +0.000 A 
ENDBRANCH  12  16
ENDBRANCH  11  12
ENDBRANCH   1  11
BRANCH   5  19
ATOM     19  C   UNL     1       4.279  -4.609   0.955  0.00  0.00    +0.190 C 
BRANCH  19  20
ATOM     20  O   UNL     1       3.953  -4.320  -0.406  0.00  0.00    -0.392 OA
ATOM     21  H   UNL     1       3.977  -5.092  -0.988  0.00  0.00    +0.210 HD
ENDBRANCH  19  20
ENDBRANCH   5  19
BRANCH   4  22
ATOM     22  O   UNL     1       3.430  -4.517   3.733  0.00  0.00    -0.340 OA
BRANCH  22  23
ATOM     23  C   UNL     1       3.826  -5.333   4.838  0.00  0.00    +0.282 C 
ATOM     24  C   UNL     1       2.587  -5.980   5.464  0.00  0.00    +0.201 C 
ATOM     25  C   UNL     1       1.919  -6.891   4.430  0.00  0.00    +0.179 C 
ATOM     26  C   UNL     1       2.936  -7.929   3.947  0.00  0.00    +0.177 C 
ATOM     27  C   UNL     1       4.161  -7.207   3.380  0.00  0.00    +0.178 C 
ATOM     28  O   UNL     1       4.716  -6.353   4.383  0.00  0.00    -0.341 OA
BRANCH  26  29
ATOM     29  O   UNL     1       2.345  -8.740   2.930  0.00  0.00    -0.386 OA
ATOM     30  H   UNL     1       1.559  -9.224   3.220  0.00  0.00    +0.210 HD
ENDBRANCH  26  29
BRANCH  25  31
ATOM     31  O   UNL     1       0.803  -7.554   5.027  0.00  0.00    -0.386 OA
ATOM     32  H   UNL     1       0.122  -6.954   5.361  0.00  0.00    +0.210 HD
ENDBRANCH  25  31
BRANCH  24  33
ATOM     33  O   UNL     1       2.976  -6.752   6.602  0.00  0.00    -0.384 OA
ATOM     34  H   UNL     1       3.410  -6.237   7.296  0.00  0.00    +0.210 HD
ENDBRANCH  24  33
BRANCH  27  35
ATOM     35  C   UNL     1       5.207  -8.237   2.950  0.00  0.00    +0.190 C 
BRANCH  35  36
ATOM     36  O   UNL     1       6.300  -7.570   2.315  0.00  0.00    -0.392 OA
ATOM     37  H   UNL     1       7.002  -8.164   2.016  0.00  0.00    +0.210 HD
ENDBRANCH  35  36
ENDBRANCH  27  35
ENDBRANCH  22  23
ENDBRANCH   4  22
TORSDOF 14
