REMARK  Name = ZINC14668172
REMARK  14 active torsions:
REMARK  status: ('A' for Active; 'I' for Inactive)
REMARK    1  A    between atoms: C_1  and  C_2
REMARK    2  A    between atoms: C_5  and  N_9
REMARK    3  A    between atoms: C_6  and  C_8
REMARK    4  A    between atoms: C_10  and  C_12
REMARK    5  A    between atoms: C_12  and  C_13
REMARK    6  A    between atoms: C_13  and  C_14
REMARK    7  A    between atoms: N_16  and  N_17
REMARK    8  A    between atoms: C_18  and  C_20
REMARK    9  A    between atoms: C_20  and  O_21
REMARK   10  A    between atoms: O_21  and  C_22
REMARK   11  A    between atoms: C_27  and  C_28
REMARK   12  A    between atoms: C_28  and  C_29
REMARK   13  A    between atoms: C_28  and  C_30
REMARK   14  A    between atoms: C_28  and  C_31
REMARK                            x       y       z     vdW  Elec       q    Type
REMARK                         _______ _______ _______ _____ _____    ______ ____
ROOT
ATOM      1  C   UNL     1       3.751   1.774  -0.053  0.00  0.00    +0.230 C 
ATOM      2  O   UNL     1       3.734   2.986  -0.053  0.00  0.00    -0.274 OA
ATOM      3  N   UNL     1       4.927   1.116  -0.071  0.00  0.00    -0.234 N 
ATOM      4  H   UNL     1       4.941   0.146  -0.071  0.00  0.00    +0.173 HD
ENDROOT
BRANCH   3   5
ATOM      5  N   UNL     1       6.131   1.833  -0.089  0.00  0.00    -0.232 N 
ATOM      6  C   UNL     1       7.307   1.176  -0.107  0.00  0.00    +0.267 C 
ATOM      7  O   UNL     1       7.324  -0.037  -0.107  0.00  0.00    -0.271 OA
ATOM      8  H   UNL     1       6.117   2.803  -0.089  0.00  0.00    +0.173 HD
BRANCH   6   9
ATOM      9  C   UNL     1       8.601   1.947  -0.127  0.00  0.00    +0.326 C 
BRANCH   9  10
ATOM     10  O   UNL     1       9.700   1.034  -0.144  0.00  0.00    -0.482 OA
BRANCH  10  11
ATOM     11  C   UNL     1      10.948   1.570  -0.163  0.00  0.00    +0.125 A 
ATOM     12  C   UNL     1      11.112   2.948  -0.166  0.00  0.00    +0.047 A 
ATOM     13  C   UNL     1      12.382   3.492  -0.186  0.00  0.00    +0.019 A 
ATOM     14  C   UNL     1      13.490   2.663  -0.202  0.00  0.00    +0.018 A 
ATOM     15  C   UNL     1      13.329   1.289  -0.200  0.00  0.00    +0.023 A 
ATOM     16  C   UNL     1      12.061   0.742  -0.175  0.00  0.00    +0.001 A 
ATOM     17 BR   UNL     1      15.227   3.410  -0.229  0.00  0.00    -0.050 Br
BRANCH  16  18
ATOM     18  C   UNL     1      11.886  -0.755  -0.165  0.00  0.00    -0.009 C 
ATOM     19  C   UNL     1      13.259  -1.429  -0.180  0.00  0.00    +0.015 C 
ATOM     20  C   UNL     1      11.128  -1.172   1.097  0.00  0.00    +0.015 C 
ATOM     21  C   UNL     1      11.093  -1.184  -1.401  0.00  0.00    +0.015 C 
ENDBRANCH  16  18
ENDBRANCH  10  11
ENDBRANCH   9  10
ENDBRANCH   6   9
ENDBRANCH   3   5
BRANCH   1  22
ATOM     22  C   UNL     1       2.457   1.002  -0.033  0.00  0.00    +0.106 C 
BRANCH  22  23
ATOM     23  C   UNL     1       1.280   1.980  -0.015  0.00  0.00    +0.105 C 
BRANCH  23  25
ATOM     24  N   UNL     1      -1.191   1.867   0.018  0.00  0.00    -0.285 N 
ATOM     25  C   UNL     1      -0.014   1.209   0.005  0.00  0.00    +0.218 C 
ATOM     26  O   UNL     1       0.003  -0.004   0.005  0.00  0.00    -0.275 OA
ATOM     27  H   UNL     1      -1.205   2.833   0.099  0.00  0.00    +0.155 HD
BRANCH  24  32
ATOM     28  C   UNL     1      -6.057  -1.018  -0.402  0.00  0.00    +0.044 C 
ATOM     29  C   UNL     1      -4.765  -0.252  -0.291  0.00  0.00    -0.050 A 
ATOM     30  C   UNL     1      -3.597  -0.791  -0.800  0.00  0.00    +0.005 A 
ATOM     31  C   UNL     1      -2.411  -0.091  -0.699  0.00  0.00    +0.024 A 
ATOM     32  C   UNL     1      -2.391   1.155  -0.086  0.00  0.00    +0.036 A 
ATOM     33  C   UNL     1      -3.564   1.691   0.428  0.00  0.00    -0.029 A 
ATOM     34  C   UNL     1      -4.748   0.989   0.320  0.00  0.00    +0.008 A 
ATOM     35  C   UNL     1      -3.546   3.040   1.100  0.00  0.00    +0.045 C 
ENDBRANCH  24  32
ENDBRANCH  23  25
ENDBRANCH  22  23
ENDBRANCH   1  22
TORSDOF 9
