REMARK  Name = ZINC38547551
REMARK  11 active torsions:
REMARK  status: ('A' for Active; 'I' for Inactive)
REMARK    1  A    between atoms: C_1  and  C_2
REMARK    2  A    between atoms: C_6  and  N_8
REMARK    3  A    between atoms: N_8  and  C_9
REMARK    4  A    between atoms: C_9  and  C_11
REMARK    5  A    between atoms: C_9  and  C_19
REMARK    6  A    between atoms: C_15  and  O_17
REMARK    7  A    between atoms: O_17  and  C_18
REMARK    8  A    between atoms: C_20  and  C_33
REMARK    9  A    between atoms: C_21  and  C_32
REMARK   10  A    between atoms: C_23  and  N_24
REMARK   11  A    between atoms: C_25  and  C_27
REMARK                            x       y       z     vdW  Elec       q    Type
REMARK                         _______ _______ _______ _____ _____    ______ ____
ROOT
ATOM      1  C   UNL     1       0.373  -4.486   2.280  0.00  0.00    +0.135 C 
ENDROOT
BRANCH   1   2
ATOM      2  C   UNL     1      -0.559  -4.880   3.397  0.00  0.00    +0.009 A 
ATOM      3  C   UNL     1      -1.669  -5.665   3.143  0.00  0.00    -0.033 A 
ATOM      4  C   UNL     1      -2.486  -6.002   4.169  0.00  0.00    -0.008 A 
ATOM      5  S   UNL     1      -1.693  -5.203   5.555  0.00  0.00    -0.078 S 
ATOM      6  C   UNL     1      -0.320  -4.476   4.676  0.00  0.00    +0.078 A 
ATOM      7  C   UNL     1      -3.741  -6.836   4.147  0.00  0.00    +0.052 C 
ATOM      8  C   UNL     1      -1.966  -6.138   1.743  0.00  0.00    +0.045 C 
BRANCH   6   9
ATOM      9  N   UNL     1       0.726  -3.694   5.170  0.00  0.00    -0.273 N 
ATOM     10  C   UNL     1       0.850  -3.496   6.497  0.00  0.00    +0.284 C 
ATOM     11  O   UNL     1       0.051  -4.000   7.265  0.00  0.00    -0.266 OA
ATOM     12  H   UNL     1       1.362  -3.292   4.558  0.00  0.00    +0.156 HD
BRANCH  10  13
ATOM     13  C   UNL     1       1.948  -2.675   7.016  0.00  0.00    +0.189 A 
ATOM     14  C   UNL     1       2.193  -2.401   8.332  0.00  0.00    +0.054 A 
ATOM     15  C   UNL     1       3.336  -1.586   8.368  0.00  0.00    +0.042 A 
ATOM     16  C   UNL     1       3.733  -1.401   7.090  0.00  0.00    +0.196 A 
ATOM     17  O   UNL     1       2.898  -2.063   6.279  0.00  0.00    -0.458 OA
ENDBRANCH  10  13
ENDBRANCH   6   9
ENDBRANCH   1   2
BRANCH   1  18
ATOM     18  C   UNL     1       1.654  -5.271   2.395  0.00  0.00    -0.019 A 
ATOM     19  C   UNL     1       2.713  -4.763   3.125  0.00  0.00    +0.006 A 
ATOM     20  C   UNL     1       3.890  -5.481   3.232  0.00  0.00    +0.004 A 
ATOM     21  C   UNL     1       4.011  -6.707   2.608  0.00  0.00    +0.045 A 
ATOM     22  C   UNL     1       2.951  -7.219   1.875  0.00  0.00    +0.120 A 
ATOM     23  C   UNL     1       1.769  -6.500   1.774  0.00  0.00    +0.051 A 
BRANCH  22  24
ATOM     24  O   UNL     1       3.068  -8.425   1.260  0.00  0.00    -0.495 OA
ATOM     25  C   UNL     1       4.311  -9.113   1.411  0.00  0.00    +0.277 C 
ENDBRANCH  22  24
ENDBRANCH   1  18
BRANCH   1  26
ATOM     26  N   UNL     1       0.668  -3.054   2.373  0.00  0.00    -0.320 N 
ATOM     27  H   UNL     1       0.427  -2.560   3.173  0.00  0.00    +0.148 HD
BRANCH  26  33
ATOM     28  C   UNL     1       2.423   1.022   0.577  0.00  0.00    +0.063 C 
ATOM     29  C   UNL     1       2.145  -0.452   0.425  0.00  0.00    +0.014 A 
ATOM     30  C   UNL     1       2.512  -1.098  -0.738  0.00  0.00    +0.021 A 
ATOM     31  C   UNL     1       2.254  -2.455  -0.873  0.00  0.00    +0.005 A 
ATOM     32  C   UNL     1       1.634  -3.116   0.172  0.00  0.00    +0.041 A 
ATOM     33  C   UNL     1       1.292  -2.402   1.316  0.00  0.00    +0.097 A 
ATOM     34  N   UNL     1       1.560  -1.109   1.408  0.00  0.00    -0.347 N 
ATOM     35  H   UNL     1       1.316  -0.632   2.217  0.00  0.00    +0.167 HD
ENDBRANCH  26  33
ENDBRANCH   1  26
TORSDOF 7
