REMARK  Name = ZINC67438844
REMARK  10 active torsions:
REMARK  status: ('A' for Active; 'I' for Inactive)
REMARK    1  A    between atoms: C_1  and  C_2
REMARK    2  A    between atoms: C_3  and  C_28
REMARK    3  A    between atoms: C_7  and  N_8
REMARK    4  A    between atoms: C_9  and  C_11
REMARK    5  A    between atoms: N_13  and  C_14
REMARK    6  A    between atoms: C_14  and  C_16
REMARK    7  A    between atoms: C_14  and  C_17
REMARK    8  A    between atoms: C_17  and  N_18
REMARK    9  A    between atoms: C_20  and  C_27
REMARK   10  A    between atoms: C_23  and  C_26
REMARK                            x       y       z     vdW  Elec       q    Type
REMARK                         _______ _______ _______ _____ _____    ______ ____
ROOT
ATOM      1  N   UNL     1       0.346   1.012   2.548  0.00  0.00    -0.277 N 
ATOM      2  C   UNL     1       0.526   0.237   3.636  0.00  0.00    +0.303 C 
ATOM      3  O   UNL     1       0.580  -0.970   3.520  0.00  0.00    -0.265 OA
ATOM      4  H   UNL     1       0.231   1.970   2.648  0.00  0.00    +0.155 HD
ENDROOT
BRANCH   1  11
ATOM      5  C   UNL     1      -0.998   2.407   0.467  0.00  0.00    +0.046 C 
ATOM      6  C   UNL     1      -0.321   1.081   0.232  0.00  0.00    -0.017 A 
ATOM      7  C   UNL     1      -0.335   0.504  -1.038  0.00  0.00    +0.041 A 
ATOM      8  C   UNL     1       0.294  -0.724  -1.248  0.00  0.00    +0.013 A 
ATOM      9  C   UNL     1       0.928  -1.363  -0.201  0.00  0.00    +0.003 A 
ATOM     10  C   UNL     1       0.942  -0.791   1.057  0.00  0.00    +0.023 A 
ATOM     11  C   UNL     1       0.323   0.435   1.276  0.00  0.00    +0.037 A 
BRANCH   7  12
ATOM     12  C   UNL     1      -1.016   1.189  -2.157  0.00  0.00    +0.242 C 
ATOM     13  O   UNL     1      -1.478   2.302  -1.997  0.00  0.00    -0.270 OA
ATOM     14  N   UNL     1      -1.124   0.580  -3.354  0.00  0.00    -0.325 N 
ATOM     15  H   UNL     1      -0.755  -0.308  -3.482  0.00  0.00    +0.145 HD
ATOM     16  H   UNL     1      -1.570   1.030  -4.089  0.00  0.00    +0.145 HD
ENDBRANCH   7  12
ENDBRANCH   1  11
BRANCH   2  17
ATOM     17  C   UNL     1       0.659   0.865   4.985  0.00  0.00    +0.299 C 
ATOM     18  O   UNL     1       0.605   2.071   5.102  0.00  0.00    -0.265 OA
ATOM     19  N   UNL     1       0.840   0.090   6.074  0.00  0.00    -0.307 N 
ATOM     20  H   UNL     1       0.883  -0.874   5.981  0.00  0.00    +0.149 HD
BRANCH  19  21
ATOM     21  C   UNL     1       0.970   0.705   7.397  0.00  0.00    +0.054 C 
ATOM     22  C   UNL     1      -0.417   0.877   8.019  0.00  0.00    +0.026 C 
BRANCH  21  23
ATOM     23  C   UNL     1       1.824  -0.193   8.294  0.00  0.00    -0.057 C 
BRANCH  23  24
ATOM     24  N   UNL     1       3.116  -0.448   7.645  0.00  0.00    +0.381 N 
ATOM     25  C   UNL     1       3.884  -1.408   8.447  0.00  0.00    -0.076 C 
ATOM     26  C   UNL     1       5.197  -1.739   7.734  0.00  0.00    -0.031 C 
ATOM     27  C   UNL     1       6.012  -0.455   7.554  0.00  0.00    +0.003 C 
ATOM     28  C   UNL     1       5.173   0.566   6.780  0.00  0.00    -0.031 C 
ATOM     29  C   UNL     1       3.861   0.812   7.529  0.00  0.00    -0.076 C 
ATOM     30  C   UNL     1       5.949   1.880   6.662  0.00  0.00    +0.005 C 
ATOM     31  C   UNL     1       5.996  -2.739   8.572  0.00  0.00    +0.005 C 
ATOM     32  H   UNL     1       2.960  -0.831   6.725  0.00  0.00    -0.082 HD
ENDBRANCH  23  24
ENDBRANCH  21  23
ENDBRANCH  19  21
ENDBRANCH   2  17
TORSDOF 6
