REMARK  Name = ZINC49186552
REMARK  8 active torsions:
REMARK  status: ('A' for Active; 'I' for Inactive)
REMARK    1  A    between atoms: C_1  and  C_2
REMARK    2  A    between atoms: C_2  and  C_4
REMARK    3  A    between atoms: C_2  and  N_10
REMARK    4  A    between atoms: C_4  and  N_5
REMARK    5  A    between atoms: N_10  and  S_11
REMARK    6  A    between atoms: S_11  and  C_14
REMARK    7  A    between atoms: C_19  and  N_20
REMARK    8  A    between atoms: N_20  and  N_21
REMARK                            x       y       z     vdW  Elec       q    Type
REMARK                         _______ _______ _______ _____ _____    ______ ____
ROOT
ATOM      1  S   UNL     1      -2.073  -1.057   1.447  0.00  0.00    +0.062 S 
ATOM      2  O   UNL     1      -3.355  -1.631   1.234  0.00  0.00    -0.153 OA
ATOM      3  O   UNL     1      -1.001  -1.783   2.033  0.00  0.00    -0.153 OA
ENDROOT
BRANCH   1   4
ATOM      4  C   UNL     1      -2.322   0.371   2.449  0.00  0.00    +0.147 A 
ATOM      5  C   UNL     1      -1.559   0.571   3.586  0.00  0.00    +0.048 A 
ATOM      6  C   UNL     1      -1.789   1.711   4.347  0.00  0.00    +0.038 A 
ATOM      7  C   UNL     1      -2.765   2.604   3.948  0.00  0.00    +0.128 A 
ATOM      8  N   UNL     1      -3.477   2.387   2.859  0.00  0.00    -0.236 NA
ATOM      9  C   UNL     1      -3.283   1.315   2.105  0.00  0.00    +0.159 A 
ATOM     10 BR   UNL     1      -0.778   2.035   5.911  0.00  0.00    -0.049 Br
BRANCH   9  11
ATOM     11  N   UNL     1      -4.052   1.130   0.961  0.00  0.00    -0.266 N 
ATOM     12  H   UNL     1      -3.862   0.390   0.364  0.00  0.00    +0.167 HD
BRANCH  11  13
ATOM     13  N   UNL     1      -5.076   1.990   0.680  0.00  0.00    -0.255 NA
ATOM     14  H   UNL     1      -5.540   1.730  -0.177  0.00  0.00    +0.140 HD
ATOM     15  H   UNL     1      -5.730   2.036   1.446  0.00  0.00    +0.140 HD
ENDBRANCH  11  13
ENDBRANCH   9  11
ENDBRANCH   1   4
BRANCH   1  16
ATOM     16  N   UNL     1      -1.538  -0.531  -0.029  0.00  0.00    -0.189 NA
ATOM     17  H   UNL     1      -2.085  -0.664  -0.819  0.00  0.00    +0.148 HD
BRANCH  16  19
ATOM     18  C   UNL     1      -0.439   1.651  -0.145  0.00  0.00    +0.024 C 
ATOM     19  C   UNL     1      -0.238   0.134  -0.142  0.00  0.00    +0.057 C 
BRANCH  19  20
ATOM     20  C   UNL     1       0.442  -0.292  -1.446  0.00  0.00    -0.059 C 
BRANCH  20  21
ATOM     21  N   UNL     1       0.527  -1.758  -1.497  0.00  0.00    +0.381 N 
ATOM     22  C   UNL     1      -0.829  -2.345  -1.649  0.00  0.00    -0.079 C 
ATOM     23  C   UNL     1      -0.543  -3.749  -2.240  0.00  0.00    -0.020 C 
ATOM     24  C   UNL     1       0.641  -3.486  -3.199  0.00  0.00    -0.020 C 
ATOM     25  C   UNL     1       1.287  -2.183  -2.692  0.00  0.00    -0.079 C 
ATOM     26  H   UNL     1       0.968  -2.110  -0.660  0.00  0.00    -0.082 HD
ENDBRANCH  20  21
ENDBRANCH  19  20
ENDBRANCH  16  19
ENDBRANCH   1  16
TORSDOF 7
