REMARK  Name = ZINC12504513
REMARK  6 active torsions:
REMARK  status: ('A' for Active; 'I' for Inactive)
REMARK    1  A    between atoms: C_3  and  O_10
REMARK    2  A    between atoms: C_6  and  C_7
REMARK    3  A    between atoms: O_10  and  C_11
REMARK    4  A    between atoms: C_21  and  O_23
REMARK    5  A    between atoms: O_23  and  C_24
REMARK    6  A    between atoms: C_27  and  C_30
REMARK                            x       y       z     vdW  Elec       q    Type
REMARK                         _______ _______ _______ _____ _____    ______ ____
ROOT
ATOM      1  C   UNL     1       4.671   1.743  -0.198  0.00  0.00    +0.230 C 
ATOM      2  C   UNL     1       5.050   1.242   1.218  0.00  0.00    +0.207 C 
ATOM      3  O   UNL     1       6.456   0.959   1.150  0.00  0.00    -0.366 OA
ATOM      4  C   UNL     1       7.067   1.751   0.129  0.00  0.00    +0.193 C 
ATOM      5  C   UNL     1       5.939   2.549  -0.584  0.00  0.00    +0.193 C 
ATOM      6  O   UNL     1       5.894   3.817   0.103  0.00  0.00    -0.366 OA
ATOM      7  C   UNL     1       7.270   4.168   0.362  0.00  0.00    +0.207 C 
ATOM      8  C   UNL     1       7.960   2.829   0.780  0.00  0.00    +0.230 C 
ENDROOT
BRANCH   1   9
ATOM      9  O   UNL     1       3.520   2.588  -0.152  0.00  0.00    -0.484 OA
BRANCH   9  12
ATOM     10  C   UNL     1       1.006   0.003  -0.605  0.00  0.00    +0.015 A 
ATOM     11  C   UNL     1       2.230   0.610  -0.434  0.00  0.00    +0.046 A 
ATOM     12  C   UNL     1       2.312   1.993  -0.321  0.00  0.00    +0.121 A 
ATOM     13  C   UNL     1       1.160   2.768  -0.381  0.00  0.00    +0.046 A 
ATOM     14  C   UNL     1      -0.068   2.167  -0.552  0.00  0.00    +0.015 A 
ATOM     15  C   UNL     1      -0.154   0.778  -0.666  0.00  0.00    +0.012 A 
BRANCH  15  16
ATOM     16  C   UNL     1      -1.469   0.130  -0.850  0.00  0.00    +0.094 C 
ATOM     17  N   UNL     1      -2.575   0.872  -0.907  0.00  0.00    -0.387 N 
ATOM     18  N   UNL     1      -1.550  -1.195  -0.958  0.00  0.00    -0.345 N 
ATOM     19  H   UNL     1      -2.517   1.837  -0.828  0.00  0.00    +0.157 HD
ATOM     20  H   UNL     1      -0.745  -1.735  -0.916  0.00  0.00    +0.144 HD
ATOM     21  H   UNL     1      -2.413  -1.621  -1.079  0.00  0.00    +0.144 HD
ATOM     22  H   UNL     1      -3.438   0.446  -1.028  0.00  0.00    +0.157 HD
ENDBRANCH  15  16
ENDBRANCH   9  12
ENDBRANCH   1   9
BRANCH   8  23
ATOM     23  O   UNL     1       9.290   2.756   0.264  0.00  0.00    -0.484 OA
BRANCH  23  24
ATOM     24  C   UNL     1      10.281   3.263   1.040  0.00  0.00    +0.121 A 
ATOM     25  C   UNL     1       9.968   3.909   2.230  0.00  0.00    +0.046 A 
ATOM     26  C   UNL     1      10.972   4.425   3.020  0.00  0.00    +0.015 A 
ATOM     27  C   UNL     1      12.305   4.296   2.625  0.00  0.00    +0.012 A 
ATOM     28  C   UNL     1      12.616   3.645   1.429  0.00  0.00    +0.015 A 
ATOM     29  C   UNL     1      11.607   3.128   0.647  0.00  0.00    +0.046 A 
BRANCH  27  30
ATOM     30  C   UNL     1      13.384   4.848   3.470  0.00  0.00    +0.094 C 
ATOM     31  N   UNL     1      14.656   4.724   3.092  0.00  0.00    -0.387 N 
ATOM     32  N   UNL     1      13.086   5.469   4.610  0.00  0.00    -0.345 N 
ATOM     33  H   UNL     1      14.873   4.272   2.261  0.00  0.00    +0.157 HD
ATOM     34  H   UNL     1      12.160   5.559   4.886  0.00  0.00    +0.144 HD
ATOM     35  H   UNL     1      13.794   5.831   5.165  0.00  0.00    +0.144 HD
ATOM     36  H   UNL     1      15.364   5.086   3.646  0.00  0.00    +0.157 HD
ENDBRANCH  27  30
ENDBRANCH  23  24
ENDBRANCH   8  23
TORSDOF 6
