REMARK  Name = ZINC39666272
REMARK  10 active torsions:
REMARK  status: ('A' for Active; 'I' for Inactive)
REMARK    1  A    between atoms: C_1  and  C_2
REMARK    2  A    between atoms: C_5  and  O_8
REMARK    3  A    between atoms: O_8  and  C_9
REMARK    4  A    between atoms: C_9  and  C_11
REMARK    5  A    between atoms: C_9  and  C_12
REMARK    6  A    between atoms: C_12  and  N_13
REMARK    7  A    between atoms: C_14  and  C_16
REMARK    8  A    between atoms: C_27  and  C_29
REMARK    9  A    between atoms: C_30  and  C_40
REMARK   10  A    between atoms: C_33  and  C_34
REMARK                            x       y       z     vdW  Elec       q    Type
REMARK                         _______ _______ _______ _____ _____    ______ ____
ROOT
ATOM      1  C   UNL     1      -3.890  -6.928  -0.092  0.00  0.00    +0.100 C 
ATOM      2  C   UNL     1      -3.846  -6.412  -1.548  0.00  0.00    +0.121 C 
ATOM      3  N   UNL     1      -3.911  -7.637  -2.380  0.00  0.00    -0.296 N 
ATOM      4  C   UNL     1      -4.879  -8.511  -1.676  0.00  0.00    +0.115 C 
ATOM      5  C   UNL     1      -4.571  -8.303  -0.180  0.00  0.00    -0.004 C 
ATOM      6  C   UNL     1      -3.628  -9.393   0.320  0.00  0.00    -0.010 C 
ATOM      7  C   UNL     1      -4.347 -10.744   0.276  0.00  0.00    -0.082 C 
ATOM      8  N   UNL     1      -5.550 -10.687   1.116  0.00  0.00    +0.379 N 
ATOM      9  C   UNL     1      -6.493  -9.701   0.575  0.00  0.00    -0.082 C 
ATOM     10  C   UNL     1      -5.864  -8.306   0.631  0.00  0.00    -0.010 C 
ATOM     11  C   UNL     1      -3.240  -7.897  -3.520  0.00  0.00    +0.252 C 
ATOM     12  O   UNL     1      -3.403  -8.958  -4.093  0.00  0.00    -0.270 OA
ATOM     13  H   UNL     1      -5.989 -11.596   1.134  0.00  0.00    -0.086 HD
ATOM     14  H   UNL     1      -5.291 -10.423   2.054  0.00  0.00    -0.086 HD
ENDROOT
BRANCH  11  15
ATOM     15  C   UNL     1      -2.312  -6.897  -4.073  0.00  0.00    +0.106 A 
ATOM     16  C   UNL     1      -0.979  -6.786  -3.802  0.00  0.00    +0.147 A 
ATOM     17  O   UNL     1      -0.494  -5.756  -4.499  0.00  0.00    -0.359 OA
ATOM     18  N   UNL     1      -1.534  -5.166  -5.254  0.00  0.00    -0.077 NA
ATOM     19  C   UNL     1      -2.640  -5.828  -5.029  0.00  0.00    +0.126 A 
ATOM     20  C   UNL     1      -0.191  -7.674  -2.875  0.00  0.00    +0.090 C 
BRANCH  19  21
ATOM     21  C   UNL     1      -3.971  -5.551  -5.621  0.00  0.00    +0.004 A 
ATOM     22  C   UNL     1      -4.839  -6.602  -5.914  0.00  0.00    +0.010 A 
ATOM     23  C   UNL     1      -6.077  -6.339  -6.465  0.00  0.00    +0.001 A 
ATOM     24  C   UNL     1      -6.457  -5.035  -6.726  0.00  0.00    +0.000 A 
ATOM     25  C   UNL     1      -5.600  -3.988  -6.438  0.00  0.00    +0.001 A 
ATOM     26  C   UNL     1      -4.362  -4.239  -5.881  0.00  0.00    +0.010 A 
ENDBRANCH  19  21
ENDBRANCH  11  15
BRANCH   1  28
ATOM     27  N   UNL     1      -2.286  -7.036   1.788  0.00  0.00    -0.312 N 
ATOM     28  C   UNL     1      -2.493  -7.068   0.457  0.00  0.00    +0.218 C 
ATOM     29  O   UNL     1      -1.556  -7.209  -0.300  0.00  0.00    -0.275 OA
ATOM     30  H   UNL     1      -3.036  -6.923   2.393  0.00  0.00    +0.149 HD
BRANCH  27  31
ATOM     31  C   UNL     1      -0.928  -7.172   2.321  0.00  0.00    +0.148 C 
BRANCH  31  32
ATOM     32  C   UNL     1      -0.971  -7.103   3.849  0.00  0.00    +0.187 C 
ATOM     33  C   UNL     1       0.447  -7.246   4.406  0.00  0.00    +0.053 C 
BRANCH  32  34
ATOM     34  O   UNL     1      -1.518  -5.847   4.254  0.00  0.00    -0.488 OA
BRANCH  34  39
ATOM     35  C   UNL     1      -3.903  -5.618   9.351  0.00  0.00    +0.044 C 
ATOM     36  C   UNL     1      -3.265  -5.680   7.987  0.00  0.00    -0.050 A 
ATOM     37  C   UNL     1      -2.622  -6.833   7.577  0.00  0.00    +0.007 A 
ATOM     38  C   UNL     1      -2.036  -6.891   6.328  0.00  0.00    +0.046 A 
ATOM     39  C   UNL     1      -2.094  -5.792   5.484  0.00  0.00    +0.121 A 
ATOM     40  C   UNL     1      -2.740  -4.636   5.897  0.00  0.00    +0.046 A 
ATOM     41  C   UNL     1      -3.329  -4.584   7.146  0.00  0.00    +0.007 A 
ENDBRANCH  34  39
ENDBRANCH  32  34
ENDBRANCH  31  32
ENDBRANCH  27  31
ENDBRANCH   1  28
TORSDOF 7
