REMARK  Name = ZINC36637304
REMARK  11 active torsions:
REMARK  status: ('A' for Active; 'I' for Inactive)
REMARK    1  A    between atoms: C_1  and  C_2
REMARK    2  A    between atoms: C_2  and  O_3
REMARK    3  A    between atoms: O_3  and  C_4
REMARK    4  A    between atoms: N_13  and  C_14
REMARK    5  A    between atoms: C_14  and  C_15
REMARK    6  A    between atoms: C_15  and  N_16
REMARK    7  A    between atoms: N_16  and  C_17
REMARK    8  A    between atoms: N_16  and  C_18
REMARK    9  A    between atoms: C_19  and  C_21
REMARK   10  A    between atoms: C_24  and  S_27
REMARK   11  A    between atoms: S_27  and  N_30
REMARK                            x       y       z     vdW  Elec       q    Type
REMARK                         _______ _______ _______ _____ _____    ______ ____
ROOT
ATOM      1  C   UNL     1       1.919  -1.655   1.856  0.00  0.00    +0.122 A 
ATOM      2  C   UNL     1       1.152  -2.337   0.916  0.00  0.00    +0.048 A 
ATOM      3  C   UNL     1       0.960  -3.691   0.997  0.00  0.00    +0.032 A 
ATOM      4  C   UNL     1       1.539  -4.443   2.046  0.00  0.00    +0.081 A 
ATOM      5  C   UNL     1       2.311  -3.720   2.982  0.00  0.00    +0.044 A 
ATOM      6  C   UNL     1       2.505  -2.363   2.894  0.00  0.00    +0.063 A 
ATOM      7  S   UNL     1       2.842  -4.994   4.100  0.00  0.00    -0.052 S 
ATOM      8  C   UNL     1       2.034  -6.362   3.282  0.00  0.00    +0.168 A 
ATOM      9  N   UNL     1       1.447  -5.774   2.266  0.00  0.00    -0.224 NA
ATOM     10  N   UNL     1       2.028  -7.702   3.630  0.00  0.00    -0.248 N 
ATOM     11  C   UNL     1       2.700  -8.117   4.723  0.00  0.00    +0.252 C 
ATOM     12  O   UNL     1       3.249  -7.306   5.443  0.00  0.00    -0.270 OA
ENDROOT
BRANCH  11  13
ATOM     13  C   UNL     1       2.769  -9.558   5.045  0.00  0.00    +0.037 A 
ATOM     14  C   UNL     1       2.927 -10.498   4.025  0.00  0.00    +0.015 A 
ATOM     15  C   UNL     1       2.991 -11.841   4.333  0.00  0.00    +0.029 A 
ATOM     16  C   UNL     1       2.898 -12.258   5.649  0.00  0.00    +0.106 A 
ATOM     17  C   UNL     1       2.741 -11.331   6.665  0.00  0.00    +0.029 A 
ATOM     18  C   UNL     1       2.681  -9.985   6.371  0.00  0.00    +0.015 A 
BRANCH  16  19
ATOM     19  S   UNL     1       2.981 -13.975   6.033  0.00  0.00    +0.061 S 
ATOM     20  O   UNL     1       2.323 -14.144   7.281  0.00  0.00    -0.153 OA
ATOM     21  O   UNL     1       2.583 -14.673   4.861  0.00  0.00    -0.153 OA
BRANCH  19  22
ATOM     22  N   UNL     1       4.576 -14.344   6.285  0.00  0.00    -0.177 NA
ATOM     23  C   UNL     1       5.430 -14.774   5.169  0.00  0.00    +0.109 C 
ATOM     24  C   UNL     1       6.673 -13.880   5.127  0.00  0.00    +0.017 C 
ATOM     25  C   UNL     1       7.363 -13.908   6.493  0.00  0.00    +0.003 C 
ATOM     26  C   UNL     1       6.410 -13.361   7.559  0.00  0.00    +0.017 C 
ATOM     27  C   UNL     1       5.165 -14.243   7.627  0.00  0.00    +0.109 C 
ENDBRANCH  19  22
ENDBRANCH  16  19
ENDBRANCH  11  13
BRANCH   1  28
ATOM     28  O   UNL     1       2.095  -0.310   1.755  0.00  0.00    -0.492 OA
BRANCH  28  30
ATOM     29  C   UNL     1       1.770   1.844   0.709  0.00  0.00    +0.048 C 
ATOM     30  C   UNL     1       1.459   0.347   0.657  0.00  0.00    +0.225 C 
ENDBRANCH  28  30
ENDBRANCH   1  28
BRANCH  10  31
ATOM     31  C   UNL     1       1.292  -8.669   2.812  0.00  0.00    +0.097 C 
BRANCH  31  32
ATOM     32  C   UNL     1       2.056  -8.921   1.510  0.00  0.00    -0.060 C 
BRANCH  32  33
ATOM     33  N   UNL     1       1.396  -9.995   0.755  0.00  0.00    +0.377 N 
ATOM     34  C   UNL     1       0.059  -9.552   0.341  0.00  0.00    -0.097 C 
ATOM     35  C   UNL     1       2.195 -10.320  -0.434  0.00  0.00    -0.097 C 
ATOM     36  H   UNL     1       1.313 -10.814   1.339  0.00  0.00    -0.083 HD
ENDBRANCH  32  33
ENDBRANCH  31  32
ENDBRANCH  10  31
TORSDOF 8
