REMARK  Name = ZINC06765346
REMARK  11 active torsions:
REMARK  status: ('A' for Active; 'I' for Inactive)
REMARK    1  A    between atoms: C_1  and  C_2
REMARK    2  A    between atoms: C_2  and  C_3
REMARK    3  A    between atoms: C_3  and  N_4
REMARK    4  A    between atoms: C_12  and  O_24
REMARK    5  A    between atoms: C_13  and  O_22
REMARK    6  A    between atoms: C_16  and  C_18
REMARK    7  A    between atoms: C_18  and  C_20
REMARK    8  A    between atoms: C_18  and  N_53
REMARK    9  A    between atoms: C_20  and  C_21
REMARK   10  A    between atoms: O_22  and  C_23
REMARK   11  A    between atoms: O_24  and  C_25
REMARK                            x       y       z     vdW  Elec       q    Type
REMARK                         _______ _______ _______ _____ _____    ______ ____
ROOT
ATOM      1  N   UNL     1       3.303   1.286   3.068  0.00  0.00    -0.299 N 
ATOM      2  C   UNL     1       2.680   1.986   2.099  0.00  0.00    +0.303 C 
ATOM      3  O   UNL     1       2.570   3.192   2.196  0.00  0.00    -0.253 OA
ATOM      4  N   UNL     1       2.179   1.347   1.023  0.00  0.00    -0.280 N 
ATOM      5  C   UNL     1       1.401   2.066   0.000  0.00  0.00    +0.114 C 
ATOM      6  C   UNL     1      -0.020   1.504   0.012  0.00  0.00    +0.054 C 
ATOM      7  C   UNL     1      -0.002  -0.002   0.005  0.00  0.00    -0.037 A 
ATOM      8  C   UNL     1      -1.157  -0.656  -0.409  0.00  0.00    +0.053 A 
ATOM      9  C   UNL     1      -1.214  -2.037  -0.432  0.00  0.00    +0.162 A 
ATOM     10  C   UNL     1      -0.105  -2.779  -0.034  0.00  0.00    +0.162 A 
ATOM     11  C   UNL     1       1.042  -2.125   0.375  0.00  0.00    +0.055 A 
ATOM     12  C   UNL     1       1.096  -0.737   0.390  0.00  0.00    -0.022 A 
ATOM     13  C   UNL     1       2.389  -0.090   0.823  0.00  0.00    +0.094 C 
ATOM     14  H   UNL     1       3.456   0.334   2.957  0.00  0.00    +0.150 HD
ENDROOT
BRANCH  10  15
ATOM     15  O   UNL     1      -0.150  -4.138  -0.047  0.00  0.00    -0.491 OA
ATOM     16  C   UNL     1       1.026  -4.830   0.375  0.00  0.00    +0.277 C 
ENDBRANCH  10  15
BRANCH   9  17
ATOM     17  O   UNL     1      -2.347  -2.667  -0.841  0.00  0.00    -0.491 OA
ATOM     18  C   UNL     1      -3.443  -1.840  -1.235  0.00  0.00    +0.277 C 
ENDBRANCH   9  17
BRANCH   1  19
ATOM     19  C   UNL     1       3.748   1.962   4.289  0.00  0.00    +0.105 C 
BRANCH  19  21
ATOM     20  C   UNL     1       4.885   1.654   6.493  0.00  0.00    +0.005 C 
ATOM     21  C   UNL     1       4.420   0.948   5.218  0.00  0.00    +0.015 C 
ENDBRANCH  19  21
ENDBRANCH   1  19
BRANCH  13  22
ATOM     22  C   UNL     1       3.451  -0.304  -0.258  0.00  0.00    -0.050 C 
BRANCH  22  25
ATOM     23  H   UNL     1       4.316  -1.912  -1.209  0.00  0.00    -0.090 HD
ATOM     24  H   UNL     1       3.978  -2.183   0.397  0.00  0.00    -0.090 HD
ATOM     25  N   UNL     1       3.642  -1.750  -0.462  0.00  0.00    +0.381 N 
ATOM     26  H   UNL     1       2.745  -2.176  -0.723  0.00  0.00    -0.090 HD
ENDBRANCH  22  25
BRANCH  22  27
ATOM     27  C   UNL     1       4.762   0.352   0.180  0.00  0.00    -0.018 C 
ATOM     28  C   UNL     1       5.787   0.248  -0.951  0.00  0.00    +0.002 C 
ENDBRANCH  22  27
ENDBRANCH  13  22
TORSDOF 7
