REMARK  Name = ZINC35645536
REMARK  11 active torsions:
REMARK  status: ('A' for Active; 'I' for Inactive)
REMARK    1  A    between atoms: C_1  and  C_2
REMARK    2  A    between atoms: C_2  and  C_4
REMARK    3  A    between atoms: C_2  and  C_16
REMARK    4  A    between atoms: C_9  and  O_14
REMARK    5  A    between atoms: O_14  and  C_15
REMARK    6  A    between atoms: C_16  and  O_18
REMARK    7  A    between atoms: O_18  and  C_19
REMARK    8  A    between atoms: C_21  and  O_35
REMARK    9  A    between atoms: C_23  and  O_34
REMARK   10  A    between atoms: C_25  and  O_33
REMARK   11  A    between atoms: C_27  and  C_30
REMARK                            x       y       z     vdW  Elec       q    Type
REMARK                         _______ _______ _______ _____ _____    ______ ____
ROOT
ATOM      1  C   UNL     1       0.731  -0.503   1.223  0.00  0.00    +0.317 C 
ATOM      2  O   UNL     1       0.161  -1.210   2.020  0.00  0.00    -0.250 OA
ENDROOT
BRANCH   1   4
ATOM      3  C   UNL     1      -0.019   1.526   0.010  0.00  0.00    +0.024 C 
ATOM      4  C   UNL     1       0.002  -0.004   0.002  0.00  0.00    +0.125 C 
BRANCH   4   5
ATOM      5  C   UNL     1      -1.412  -0.526   0.013  0.00  0.00    -0.033 A 
ATOM      6  C   UNL     1      -2.257  -0.195   1.070  0.00  0.00    +0.005 A 
ATOM      7  C   UNL     1      -3.539  -0.650   1.110  0.00  0.00    +0.009 A 
ATOM      8  C   UNL     1      -4.021  -1.464   0.071  0.00  0.00    -0.014 A 
ATOM      9  C   UNL     1      -5.339  -1.951   0.079  0.00  0.00    +0.054 A 
ATOM     10  C   UNL     1      -5.773  -2.740  -0.948  0.00  0.00    +0.121 A 
ATOM     11  C   UNL     1      -4.923  -3.070  -2.008  0.00  0.00    +0.046 A 
ATOM     12  C   UNL     1      -3.642  -2.615  -2.045  0.00  0.00    +0.012 A 
ATOM     13  C   UNL     1      -3.162  -1.800  -1.004  0.00  0.00    -0.017 A 
ATOM     14  C   UNL     1      -1.845  -1.308  -1.013  0.00  0.00    +0.013 A 
BRANCH  10  15
ATOM     15  O   UNL     1      -7.048  -3.210  -0.940  0.00  0.00    -0.495 OA
ATOM     16  C   UNL     1      -7.444  -4.030  -2.041  0.00  0.00    +0.277 C 
ENDBRANCH  10  15
ENDBRANCH   4   5
ENDBRANCH   1   4
BRANCH   1  17
ATOM     17  O   UNL     1       2.014  -0.163   1.425  0.00  0.00    -0.432 OA
BRANCH  17  18
ATOM     18  C   UNL     1       2.642  -0.672   2.603  0.00  0.00    +0.343 C 
ATOM     19  C   UNL     1       3.999   0.012   2.794  0.00  0.00    +0.214 C 
ATOM     20  C   UNL     1       4.692  -0.582   4.024  0.00  0.00    +0.180 C 
ATOM     21  C   UNL     1       4.825  -2.097   3.840  0.00  0.00    +0.186 C 
ATOM     22  C   UNL     1       3.437  -2.699   3.609  0.00  0.00    +0.266 C 
ATOM     23  O   UNL     1       2.835  -2.081   2.469  0.00  0.00    -0.322 OA
BRANCH  22  24
ATOM     24  C   UNL     1       3.565  -4.181   3.369  0.00  0.00    +0.387 C 
ATOM     25  O   UNL     1       3.973  -4.909   4.257  0.00  0.00    -0.243 OA
ATOM     26  O   UNL     1       3.261  -4.651   2.286  0.00  0.00    -0.243 OA
ENDBRANCH  22  24
BRANCH  21  27
ATOM     27  O   UNL     1       5.407  -2.671   5.012  0.00  0.00    -0.386 OA
ATOM     28  H   UNL     1       5.521  -3.630   4.966  0.00  0.00    +0.210 HD
ENDBRANCH  21  27
BRANCH  20  29
ATOM     29  O   UNL     1       5.989  -0.000   4.168  0.00  0.00    -0.386 OA
ATOM     30  H   UNL     1       5.980   0.960   4.282  0.00  0.00    +0.210 HD
ENDBRANCH  20  29
BRANCH  19  31
ATOM     31  O   UNL     1       4.809  -0.204   1.637  0.00  0.00    -0.383 OA
ATOM     32  H   UNL     1       4.427   0.143   0.819  0.00  0.00    +0.210 HD
ENDBRANCH  19  31
ENDBRANCH  17  18
ENDBRANCH   1  17
TORSDOF 9
