REMARK  Name = ZINC46945803
REMARK  13 active torsions:
REMARK  status: ('A' for Active; 'I' for Inactive)
REMARK    1  A    between atoms: C_1  and  C_2
REMARK    2  A    between atoms: C_2  and  N_3
REMARK    3  A    between atoms: N_3  and  C_4
REMARK    4  A    between atoms: N_3  and  C_6
REMARK    5  A    between atoms: C_4  and  C_5
REMARK    6  A    between atoms: C_6  and  C_8
REMARK    7  A    between atoms: C_6  and  C_25
REMARK    8  A    between atoms: C_8  and  N_9
REMARK    9  A    between atoms: C_10  and  C_12
REMARK   10  A    between atoms: C_12  and  C_14
REMARK   11  A    between atoms: C_12  and  N_15
REMARK   12  A    between atoms: C_16  and  C_18
REMARK   13  A    between atoms: C_22  and  C_24
REMARK                            x       y       z     vdW  Elec       q    Type
REMARK                         _______ _______ _______ _____ _____    ______ ____
ROOT
ATOM      1  N   UNL     1       1.247  -2.457   3.406  0.00  0.00    -0.315 N 
ATOM      2  C   UNL     1       1.912  -2.751   4.541  0.00  0.00    +0.233 C 
ATOM      3  O   UNL     1       3.021  -3.239   4.485  0.00  0.00    -0.274 OA
ATOM      4  H   UNL     1       0.360  -2.067   3.450  0.00  0.00    +0.149 HD
ENDROOT
BRANCH   2   5
ATOM      5  C   UNL     1       1.277  -2.475   5.879  0.00  0.00    +0.156 C 
ATOM      6  C   UNL     1       0.979  -0.979   6.003  0.00  0.00    +0.038 C 
BRANCH   5   7
ATOM      7  N   UNL     1       2.194  -2.880   6.947  0.00  0.00    -0.300 N 
ATOM      8  C   UNL     1       1.710  -3.208   8.162  0.00  0.00    +0.245 C 
ATOM      9  O   UNL     1       0.513  -3.168   8.371  0.00  0.00    -0.270 OA
ATOM     10  H   UNL     1       3.149  -2.912   6.781  0.00  0.00    +0.150 HD
BRANCH   8  11
ATOM     11  C   UNL     1       2.635  -3.617   9.240  0.00  0.00    +0.037 A 
ATOM     12  C   UNL     1       4.011  -3.658   9.005  0.00  0.00    +0.013 A 
ATOM     13  C   UNL     1       4.869  -4.040  10.016  0.00  0.00    +0.001 A 
ATOM     14  C   UNL     1       4.369  -4.382  11.260  0.00  0.00    +0.003 A 
ATOM     15  C   UNL     1       3.007  -4.343  11.499  0.00  0.00    -0.050 A 
ATOM     16  C   UNL     1       2.138  -3.958  10.499  0.00  0.00    +0.016 A 
ATOM     17  C   UNL     1       2.471  -4.718  12.857  0.00  0.00    +0.044 C 
ENDBRANCH   8  11
ENDBRANCH   5   7
ENDBRANCH   2   5
BRANCH   1  18
ATOM     18  C   UNL     1       1.864  -2.726   2.105  0.00  0.00    +0.093 C 
BRANCH  18  19
ATOM     19  C   UNL     1       0.979  -2.158   0.993  0.00  0.00    -0.020 C 
BRANCH  19  20
ATOM     20  C   UNL     1       1.500  -2.612  -0.346  0.00  0.00    -0.052 A 
ATOM     21  C   UNL     1       0.904  -3.668  -1.008  0.00  0.00    +0.009 A 
ATOM     22  C   UNL     1       1.398  -4.052  -2.211  0.00  0.00    +0.045 A 
ATOM     23  S   UNL     1       2.746  -2.905  -2.441  0.00  0.00    -0.105 S 
ATOM     24  C   UNL     1       2.557  -1.988  -0.921  0.00  0.00    +0.047 A 
ENDBRANCH  19  20
BRANCH  19  25
ATOM     25  N   UNL     1       1.000  -0.690   1.054  0.00  0.00    +0.385 N 
ATOM     26  H   UNL     1       1.955  -0.366   1.040  0.00  0.00    -0.081 HD
BRANCH  25  28
ATOM     27  C   UNL     1       0.420   1.381  -0.117  0.00  0.00    -0.017 C 
ATOM     28  C   UNL     1       0.280  -0.142  -0.104  0.00  0.00    -0.081 C 
ENDBRANCH  25  28
BRANCH  25  29
ATOM     29  C   UNL     1       0.348  -0.242   2.292  0.00  0.00    -0.081 C 
ATOM     30  C   UNL     1      -1.066  -0.821   2.363  0.00  0.00    -0.017 C 
ENDBRANCH  25  29
ENDBRANCH  19  25
ENDBRANCH  18  19
ENDBRANCH   1  18
TORSDOF 9
