REMARK  Name = ZINC40757458
REMARK  6 active torsions:
REMARK  status: ('A' for Active; 'I' for Inactive)
REMARK    1  A    between atoms: C_1  and  C_2
REMARK    2  A    between atoms: C_5  and  N_8
REMARK    3  A    between atoms: C_10  and  N_23
REMARK    4  A    between atoms: C_11  and  N_15
REMARK    5  A    between atoms: N_15  and  N_16
REMARK    6  A    between atoms: N_16  and  C_17
REMARK                            x       y       z     vdW  Elec       q    Type
REMARK                         _______ _______ _______ _____ _____    ______ ____
ROOT
ATOM      1  N   UNL     1       0.058  -4.168  -0.021  0.00  0.00    -0.299 N 
ATOM      2  C   UNL     1       0.178  -4.868   1.174  0.00  0.00    +0.126 A 
ATOM      3  C   UNL     1       0.308  -6.258   1.171  0.00  0.00    +0.105 A 
ATOM      4  C   UNL     1       0.426  -6.912   2.400  0.00  0.00    +0.161 A 
ATOM      5  N   UNL     1       0.410  -6.191   3.518  0.00  0.00    -0.219 NA
ATOM      6  C   UNL     1       0.285  -4.879   3.476  0.00  0.00    +0.200 A 
ATOM      7  N   UNL     1       0.177  -4.223   2.339  0.00  0.00    -0.333 N 
ATOM      8  H   UNL     1       0.152  -4.633  -0.867  0.00  0.00    +0.154 HD
ATOM      9  H   UNL     1       0.091  -3.257   2.350  0.00  0.00    +0.168 HD
ENDROOT
BRANCH   1  14
ATOM     10  C   UNL     1      -0.984   1.406   0.050  0.00  0.00    +0.044 C 
ATOM     11  C   UNL     1      -0.707  -0.075   0.031  0.00  0.00    -0.050 A 
ATOM     12  C   UNL     1       0.191  -0.597  -0.882  0.00  0.00    +0.005 A 
ATOM     13  C   UNL     1       0.447  -1.954  -0.901  0.00  0.00    +0.023 A 
ATOM     14  C   UNL     1      -0.198  -2.795  -0.003  0.00  0.00    +0.032 A 
ATOM     15  C   UNL     1      -1.100  -2.266   0.912  0.00  0.00    +0.023 A 
ATOM     16  C   UNL     1      -1.347  -0.908   0.931  0.00  0.00    +0.005 A 
ENDBRANCH   1  14
BRANCH   3  17
ATOM     17  N   UNL     1       0.320  -6.979  -0.033  0.00  0.00    -0.353 N 
ATOM     18  H   UNL     1       0.237  -6.512  -0.879  0.00  0.00    +0.143 HD
ATOM     19  H   UNL     1       0.411  -7.945  -0.020  0.00  0.00    +0.143 HD
ENDBRANCH   3  17
BRANCH   4  20
ATOM     20  N   UNL     1       0.557  -8.294   2.454  0.00  0.00    -0.249 N 
ATOM     21  H   UNL     1       0.568  -8.813   1.634  0.00  0.00    +0.172 HD
BRANCH  20  22
ATOM     22  N   UNL     1       0.675  -8.939   3.692  0.00  0.00    -0.265 N 
ATOM     23  H   UNL     1       0.664  -8.421   4.511  0.00  0.00    +0.170 HD
BRANCH  22  24
ATOM     24  C   UNL     1       0.807 -10.329   3.746  0.00  0.00    +0.044 A 
ATOM     25  C   UNL     1       0.828 -11.072   2.573  0.00  0.00    +0.024 A 
ATOM     26  C   UNL     1       0.959 -12.446   2.630  0.00  0.00    +0.002 A 
ATOM     27  C   UNL     1       1.069 -13.081   3.853  0.00  0.00    +0.000 A 
ATOM     28  C   UNL     1       1.048 -12.344   5.023  0.00  0.00    +0.002 A 
ATOM     29  C   UNL     1       0.923 -10.969   4.973  0.00  0.00    +0.024 A 
ENDBRANCH  22  24
ENDBRANCH  20  22
ENDBRANCH   4  20
TORSDOF 5
