REMARK  Name = ZINC62201064
REMARK  5 active torsions:
REMARK  status: ('A' for Active; 'I' for Inactive)
REMARK    1  A    between atoms: C_1  and  C_2
REMARK    2  A    between atoms: C_4  and  C_13
REMARK    3  A    between atoms: C_13  and  C_14
REMARK    4  A    between atoms: C_14  and  C_16
REMARK    5  A    between atoms: C_14  and  N_17
REMARK                            x       y       z     vdW  Elec       q    Type
REMARK                         _______ _______ _______ _____ _____    ______ ____
ROOT
ATOM      1  C   UNL     1      -0.018   1.503   0.010  0.00  0.00    +0.045 C 
ATOM      2  C   UNL     1       0.002  -0.004   0.002  0.00  0.00    -0.029 A 
ATOM      3  C   UNL     1       0.006  -0.689  -1.198  0.00  0.00    +0.008 A 
ATOM      4  C   UNL     1       0.024  -2.072  -1.206  0.00  0.00    -0.048 A 
ATOM      5  C   UNL     1       0.039  -2.774  -0.014  0.00  0.00    +0.009 A 
ATOM      6  C   UNL     1       0.036  -2.095   1.188  0.00  0.00    -0.025 A 
ATOM      7  C   UNL     1       0.023  -0.706   1.200  0.00  0.00    +0.040 A 
ATOM      8  N   UNL     1       0.026  -0.018   2.417  0.00  0.00    -0.285 N 
ATOM      9  C   UNL     1       0.413  -0.636   3.548  0.00  0.00    +0.218 C 
ATOM     10  O   UNL     1       0.395  -0.030   4.599  0.00  0.00    -0.275 OA
ATOM     11  C   UNL     1       0.869  -2.071   3.525  0.00  0.00    +0.101 C 
ATOM     12  C   UNL     1       0.052  -2.855   2.488  0.00  0.00    +0.046 C 
ATOM     13  H   UNL     1      -0.253   0.910   2.447  0.00  0.00    +0.155 HD
ENDROOT
BRANCH   4  14
ATOM     14  C   UNL     1       0.028  -2.816  -2.517  0.00  0.00    +0.018 C 
BRANCH  14  15
ATOM     15  C   UNL     1       1.471  -3.048  -2.967  0.00  0.00    -0.074 C 
ATOM     16  C   UNL     1       1.475  -3.691  -4.356  0.00  0.00    -0.014 C 
BRANCH  15  17
ATOM     17  N   UNL     1       2.145  -3.939  -2.013  0.00  0.00    +0.380 N 
ATOM     18  H   UNL     1       1.658  -4.822  -1.976  0.00  0.00    -0.090 HD
ATOM     19  H   UNL     1       3.097  -4.092  -2.310  0.00  0.00    -0.090 HD
ATOM     20  H   UNL     1       2.143  -3.514  -1.098  0.00  0.00    -0.090 HD
ENDBRANCH  15  17
ENDBRANCH  14  15
ENDBRANCH   4  14
TORSDOF 3
