REMARK  Name = ZINC37734391
REMARK  4 active torsions:
REMARK  status: ('A' for Active; 'I' for Inactive)
REMARK    1  A    between atoms: C_1  and  C_2
REMARK    2  A    between atoms: C_4  and  C_17
REMARK    3  A    between atoms: C_7  and  O_8
REMARK    4  A    between atoms: O_8  and  C_9
REMARK                            x       y       z     vdW  Elec       q    Type
REMARK                         _______ _______ _______ _____ _____    ______ ____
ROOT
ATOM      1  C   UNL     1       0.429   1.487   0.034  0.00  0.00    +0.047 C 
ATOM      2  C   UNL     1       0.305  -0.015   0.018  0.00  0.00    -0.008 A 
ATOM      3  C   UNL     1       0.395  -0.700  -1.173  0.00  0.00    +0.018 A 
ATOM      4  C   UNL     1       0.280  -2.092  -1.187  0.00  0.00    +0.013 A 
ATOM      5  C   UNL     1       0.075  -2.784   0.009  0.00  0.00    +0.015 A 
ATOM      6  C   UNL     1      -0.013  -2.093   1.196  0.00  0.00    +0.047 A 
ATOM      7  C   UNL     1       0.107  -0.708   1.207  0.00  0.00    +0.131 A 
ENDROOT
BRANCH   4   8
ATOM      8  C   UNL     1       0.374  -2.830  -2.463  0.00  0.00    +0.094 C 
ATOM      9  N   UNL     1       0.265  -4.158  -2.474  0.00  0.00    -0.387 N 
ATOM     10  N   UNL     1       0.570  -2.168  -3.603  0.00  0.00    -0.345 N 
ATOM     11  H   UNL     1       0.123  -4.640  -1.645  0.00  0.00    +0.157 HD
ATOM     12  H   UNL     1       0.650  -1.201  -3.595  0.00  0.00    +0.144 HD
ATOM     13  H   UNL     1       0.632  -2.653  -4.441  0.00  0.00    +0.144 HD
ATOM     14  H   UNL     1       0.327  -4.643  -3.312  0.00  0.00    +0.157 HD
ENDBRANCH   4   8
BRANCH   7  15
ATOM     15  O   UNL     1       0.025  -0.030   2.380  0.00  0.00    -0.455 OA
BRANCH  15  16
ATOM     16  C   UNL     1      -0.064  -0.751   3.529  0.00  0.00    +0.143 A 
ATOM     17  C   UNL     1      -1.307  -1.040   4.072  0.00  0.00    +0.050 A 
ATOM     18  C   UNL     1      -1.396  -1.773   5.240  0.00  0.00    +0.042 A 
ATOM     19  C   UNL     1      -0.246  -2.220   5.867  0.00  0.00    +0.125 A 
ATOM     20  C   UNL     1       0.996  -1.933   5.327  0.00  0.00    +0.057 A 
ATOM     21  C   UNL     1       1.089  -1.204   4.156  0.00  0.00    +0.063 A 
ATOM     22 BR   UNL     1       2.784  -0.819   3.413  0.00  0.00    -0.046 Br
ATOM     23  F   UNL     1      -0.335  -2.937   7.009  0.00  0.00    -0.205 F 
ENDBRANCH  15  16
ENDBRANCH   7  15
TORSDOF 3
