REMARK  Name = ZINC45259227
REMARK  8 active torsions:
REMARK  status: ('A' for Active; 'I' for Inactive)
REMARK    1  A    between atoms: C_1  and  C_2
REMARK    2  A    between atoms: C_7  and  N_8
REMARK    3  A    between atoms: C_10  and  C_15
REMARK    4  A    between atoms: C_17  and  N_21
REMARK    5  A    between atoms: N_21  and  C_22
REMARK    6  A    between atoms: C_26  and  N_27
REMARK    7  A    between atoms: N_27  and  C_28
REMARK    8  A    between atoms: C_35  and  C_37
REMARK                            x       y       z     vdW  Elec       q    Type
REMARK                         _______ _______ _______ _____ _____    ______ ____
ROOT
ATOM      1  C   UNL     1      -2.064   0.329   0.760  0.00  0.00    +0.045 C 
ATOM      2  C   UNL     1      -0.861  -0.358   0.166  0.00  0.00    -0.029 A 
ATOM      3  C   UNL     1      -0.911  -0.820  -1.145  0.00  0.00    +0.006 A 
ATOM      4  C   UNL     1       0.159  -1.446  -1.713  0.00  0.00    +0.012 A 
ATOM      5  C   UNL     1       1.333  -1.631  -0.971  0.00  0.00    +0.024 A 
ATOM      6  C   UNL     1       1.396  -1.165   0.365  0.00  0.00    +0.008 A 
ATOM      7  C   UNL     1       0.279  -0.517   0.927  0.00  0.00    +0.043 A 
ATOM      8  C   UNL     1       2.587  -1.364   1.087  0.00  0.00    +0.030 A 
ATOM      9  C   UNL     1       3.628  -1.994   0.476  0.00  0.00    +0.113 A 
ATOM     10  N   UNL     1       3.551  -2.424  -0.776  0.00  0.00    -0.240 NA
ATOM     11  C   UNL     1       2.468  -2.273  -1.515  0.00  0.00    +0.131 A 
ENDROOT
BRANCH   7  12
ATOM     12  N   UNL     1       0.323  -0.045   2.239  0.00  0.00    -0.298 N 
ATOM     13  C   UNL     1       0.462   1.313   2.484  0.00  0.00    +0.132 A 
ATOM     14  C   UNL     1       0.677   1.767   3.794  0.00  0.00    +0.041 A 
ATOM     15  C   UNL     1       0.815   3.138   4.017  0.00  0.00    +0.015 A 
ATOM     16  C   UNL     1       0.733   3.994   2.931  0.00  0.00    +0.020 A 
ATOM     17  C   UNL     1       0.518   3.472   1.669  0.00  0.00    +0.113 A 
ATOM     18  N   UNL     1       0.396   2.172   1.480  0.00  0.00    -0.240 NA
ATOM     19  H   UNL     1       0.257  -0.667   2.981  0.00  0.00    +0.154 HD
BRANCH  14  20
ATOM     20  C   UNL     1       0.757   0.808   4.920  0.00  0.00    +0.079 A 
ATOM     21  C   UNL     1       1.128   1.240   6.193  0.00  0.00    +0.072 A 
ATOM     22  C   UNL     1       1.187   0.298   7.217  0.00  0.00    +0.122 A 
ATOM     23  N   UNL     1       0.890  -0.971   6.946  0.00  0.00    -0.221 NA
ATOM     24  C   UNL     1       0.543  -1.340   5.729  0.00  0.00    +0.223 A 
ATOM     25  N   UNL     1       0.470  -0.481   4.734  0.00  0.00    -0.235 NA
BRANCH  22  26
ATOM     26  N   UNL     1       1.550   0.676   8.500  0.00  0.00    -0.332 N 
ATOM     27  C   UNL     1       1.876   2.075   8.787  0.00  0.00    +0.127 C 
ATOM     28  H   UNL     1       1.589   0.014   9.208  0.00  0.00    +0.147 HD
ENDBRANCH  22  26
ENDBRANCH  14  20
ENDBRANCH   7  12
BRANCH  11  29
ATOM     29  N   UNL     1       2.444  -2.743  -2.818  0.00  0.00    -0.299 N 
ATOM     30  H   UNL     1       1.674  -2.569  -3.382  0.00  0.00    +0.154 HD
BRANCH  29  31
ATOM     31  C   UNL     1       3.529  -3.470  -3.321  0.00  0.00    +0.034 A 
ATOM     32  C   UNL     1       4.258  -4.292  -2.462  0.00  0.00    +0.024 A 
ATOM     33  C   UNL     1       5.329  -5.010  -2.955  0.00  0.00    +0.019 A 
ATOM     34  C   UNL     1       5.663  -4.904  -4.284  0.00  0.00    +0.039 A 
ATOM     35  C   UNL     1       4.947  -4.081  -5.183  0.00  0.00    +0.080 A 
ATOM     36  C   UNL     1       3.854  -3.363  -4.655  0.00  0.00    +0.052 A 
ATOM     37  N   UNL     1       5.431  -4.115  -6.442  0.00  0.00    -0.244 NA
ATOM     38  C   UNL     1       6.459  -4.843  -6.770  0.00  0.00    +0.076 A 
ATOM     39  S   UNL     1       6.907  -5.603  -5.337  0.00  0.00    -0.072 S 
ATOM     40  C   UNL     1       7.101  -4.977  -8.127  0.00  0.00    +0.073 C 
ENDBRANCH  29  31
ENDBRANCH  11  29
TORSDOF 5
