REMARK  Name = ZINC39964328
REMARK  8 active torsions:
REMARK  status: ('A' for Active; 'I' for Inactive)
REMARK    1  A    between atoms: C_1  and  C_2
REMARK    2  A    between atoms: C_2  and  C_3
REMARK    3  A    between atoms: C_6  and  C_30
REMARK    4  A    between atoms: C_9  and  C_11
REMARK    5  A    between atoms: C_13  and  C_24
REMARK    6  A    between atoms: C_33  and  N_36
REMARK    7  A    between atoms: N_36  and  C_37
REMARK    8  A    between atoms: N_36  and  C_38
REMARK                            x       y       z     vdW  Elec       q    Type
REMARK                         _______ _______ _______ _____ _____    ______ ____
ROOT
ATOM      1  C   UNL     1       0.903  -4.511   1.183  0.00  0.00    +0.152 C 
ATOM      2  C   UNL     1      -0.112  -4.100   0.134  0.00  0.00    -0.014 C 
ATOM      3  C   UNL     1       0.210  -4.369  -1.200  0.00  0.00    +0.002 A 
ATOM      4  C   UNL     1      -0.677  -4.019  -2.240  0.00  0.00    +0.030 A 
ATOM      5  C   UNL     1      -0.338  -4.292  -3.530  0.00  0.00    +0.042 A 
ATOM      6  C   UNL     1       0.870  -4.912  -3.846  0.00  0.00    +0.022 A 
ATOM      7  C   UNL     1       1.765  -5.272  -2.885  0.00  0.00    +0.025 A 
ATOM      8  C   UNL     1       1.482  -5.021  -1.531  0.00  0.00    +0.041 A 
ATOM      9  N   UNL     1       2.363  -5.375  -0.590  0.00  0.00    -0.284 N 
ATOM     10  C   UNL     1       2.172  -5.174   0.699  0.00  0.00    +0.230 C 
ATOM     11  O   UNL     1       3.019  -5.522   1.500  0.00  0.00    -0.274 OA
ATOM     12 CL   UNL     1      -1.433  -3.861  -4.806  0.00  0.00    -0.084 Cl
ATOM     13  H   UNL     1       3.187  -5.802  -0.870  0.00  0.00    +0.155 HD
ENDROOT
BRANCH   1  19
ATOM     14  C   UNL     1       1.231   0.210   2.418  0.00  0.00    +0.235 C 
ATOM     15  O   UNL     1       1.705   0.970   3.236  0.00  0.00    -0.274 OA
ATOM     16  N   UNL     1       1.444  -1.116   2.527  0.00  0.00    -0.185 N 
ATOM     17  C   UNL     1       2.224  -1.776   3.587  0.00  0.00    +0.136 C 
ATOM     18  C   UNL     1       2.132  -3.270   3.215  0.00  0.00    +0.083 C 
ATOM     19  C   UNL     1       1.291  -3.278   1.958  0.00  0.00    +0.055 C 
ATOM     20  N   UNL     1       0.957  -2.091   1.658  0.00  0.00    -0.185 NA
BRANCH  17  21
ATOM     21  C   UNL     1       1.607  -1.522   4.938  0.00  0.00    -0.025 A 
ATOM     22  C   UNL     1       0.231  -1.517   5.078  0.00  0.00    +0.007 A 
ATOM     23  C   UNL     1      -0.338  -1.285   6.315  0.00  0.00    +0.023 A 
ATOM     24  C   UNL     1       0.473  -1.056   7.419  0.00  0.00    +0.029 A 
ATOM     25  C   UNL     1       1.855  -1.061   7.274  0.00  0.00    +0.023 A 
ATOM     26  C   UNL     1       2.417  -1.300   6.036  0.00  0.00    +0.007 A 
BRANCH  24  27
ATOM     27  N   UNL     1      -0.098  -0.820   8.671  0.00  0.00    -0.336 N 
ATOM     28  C   UNL     1      -1.549  -0.932   8.847  0.00  0.00    +0.129 C 
ATOM     29  C   UNL     1       0.752  -0.460   9.809  0.00  0.00    +0.129 C 
ENDBRANCH  24  27
ENDBRANCH  17  21
BRANCH  14  31
ATOM     30  C   UNL     1       0.317   2.273   1.390  0.00  0.00    +0.013 C 
ATOM     31  C   UNL     1       0.403   0.750   1.280  0.00  0.00    +0.094 C 
ENDBRANCH  14  31
ENDBRANCH   1  19
BRANCH   2  32
ATOM     32  C   UNL     1      -1.332  -3.472   0.489  0.00  0.00    -0.020 A 
ATOM     33  C   UNL     1      -1.595  -2.155   0.079  0.00  0.00    +0.008 A 
ATOM     34  C   UNL     1      -2.784  -1.554   0.429  0.00  0.00    +0.001 A 
ATOM     35  C   UNL     1      -3.719  -2.244   1.183  0.00  0.00    +0.000 A 
ATOM     36  C   UNL     1      -3.469  -3.544   1.593  0.00  0.00    +0.001 A 
ATOM     37  C   UNL     1      -2.289  -4.165   1.248  0.00  0.00    +0.008 A 
ENDBRANCH   2  32
TORSDOF 5
