REMARK  Name = ZINC36648037
REMARK  11 active torsions:
REMARK  status: ('A' for Active; 'I' for Inactive)
REMARK    1  A    between atoms: C_1  and  C_2
REMARK    2  A    between atoms: C_2  and  C_3
REMARK    3  A    between atoms: N_12  and  C_13
REMARK    4  A    between atoms: C_13  and  C_14
REMARK    5  A    between atoms: C_14  and  C_15
REMARK    6  A    between atoms: C_15  and  N_16
REMARK    7  A    between atoms: N_16  and  C_17
REMARK    8  A    between atoms: N_16  and  C_18
REMARK    9  A    between atoms: C_19  and  C_21
REMARK   10  A    between atoms: N_27  and  S_28
REMARK   11  A    between atoms: S_28  and  C_31
REMARK                            x       y       z     vdW  Elec       q    Type
REMARK                         _______ _______ _______ _____ _____    ______ ____
ROOT
ATOM      1  C   UNL     1       0.424  -2.261  -2.451  0.00  0.00    -0.046 A 
ATOM      2  C   UNL     1       0.009  -2.666  -3.711  0.00  0.00    +0.006 A 
ATOM      3  C   UNL     1       0.910  -3.009  -4.686  0.00  0.00    +0.029 A 
ATOM      4  C   UNL     1       2.300  -2.960  -4.434  0.00  0.00    +0.080 A 
ATOM      5  C   UNL     1       2.686  -2.543  -3.139  0.00  0.00    +0.041 A 
ATOM      6  C   UNL     1       1.777  -2.196  -2.171  0.00  0.00    +0.021 A 
ATOM      7  S   UNL     1       4.459  -2.615  -3.231  0.00  0.00    -0.052 S 
ATOM      8  C   UNL     1       4.573  -3.175  -4.924  0.00  0.00    +0.168 A 
ATOM      9  N   UNL     1       3.312  -3.261  -5.277  0.00  0.00    -0.224 NA
ATOM     10  N   UNL     1       5.705  -3.450  -5.674  0.00  0.00    -0.249 N 
ATOM     11  C   UNL     1       6.928  -3.299  -5.128  0.00  0.00    +0.240 C 
ATOM     12  O   UNL     1       7.037  -3.016  -3.954  0.00  0.00    -0.273 OA
ENDROOT
BRANCH  11  13
ATOM     13  C   UNL     1       8.160  -3.484  -5.976  0.00  0.00    +0.166 C 
ATOM     14  C   UNL     1       8.971  -2.184  -5.993  0.00  0.00    +0.030 C 
ATOM     15  C   UNL     1      10.287  -2.418  -6.739  0.00  0.00    +0.003 C 
ATOM     16  C   UNL     1      11.104  -3.487  -6.011  0.00  0.00    +0.017 C 
ATOM     17  C   UNL     1      10.318  -4.801  -5.994  0.00  0.00    +0.110 C 
ATOM     18  N   UNL     1       8.992  -4.555  -5.411  0.00  0.00    -0.164 NA
BRANCH  18  19
ATOM     19  S   UNL     1       8.446  -5.464  -4.138  0.00  0.00    +0.068 S 
ATOM     20  O   UNL     1       7.028  -5.376  -4.155  0.00  0.00    -0.152 OA
ATOM     21  O   UNL     1       9.133  -6.707  -4.203  0.00  0.00    -0.152 OA
BRANCH  19  22
ATOM     22  C   UNL     1       8.984  -4.668  -2.661  0.00  0.00    +0.143 A 
ATOM     23  C   UNL     1       8.302  -3.822  -1.851  0.00  0.00    +0.036 A 
ATOM     24  C   UNL     1       8.932  -3.313  -0.731  0.00  0.00    +0.010 A 
ATOM     25  C   UNL     1      10.213  -3.675  -0.476  0.00  0.00    +0.047 A 
ATOM     26  S   UNL     1      10.565  -4.774  -1.839  0.00  0.00    -0.077 S 
ENDBRANCH  19  22
ENDBRANCH  18  19
ENDBRANCH  11  13
BRANCH   1  28
ATOM     27  C   UNL     1      -0.904  -0.397  -1.498  0.00  0.00    +0.009 C 
ATOM     28  C   UNL     1      -0.589  -1.891  -1.399  0.00  0.00    +0.032 C 
ENDBRANCH   1  28
BRANCH  10  29
ATOM     29  C   UNL     1       5.574  -3.903  -7.061  0.00  0.00    +0.114 C 
BRANCH  29  30
ATOM     30  C   UNL     1       5.526  -2.689  -7.992  0.00  0.00    +0.001 C 
BRANCH  30  31
ATOM     31  C   UNL     1       5.265  -3.156  -9.425  0.00  0.00    -0.078 C 
BRANCH  31  32
ATOM     32  N   UNL     1       5.219  -1.991 -10.319  0.00  0.00    +0.376 N 
ATOM     33  C   UNL     1       5.088  -2.445 -11.710  0.00  0.00    -0.097 C 
ATOM     34  C   UNL     1       4.067  -1.149  -9.968  0.00  0.00    -0.097 C 
ATOM     35  H   UNL     1       6.069  -1.456 -10.218  0.00  0.00    -0.083 HD
ENDBRANCH  31  32
ENDBRANCH  30  31
ENDBRANCH  29  30
ENDBRANCH  10  29
TORSDOF 8
