REMARK  Name = ZINC19939979
REMARK  10 active torsions:
REMARK  status: ('A' for Active; 'I' for Inactive)
REMARK    1  A    between atoms: C_1  and  O_2
REMARK    2  A    between atoms: O_2  and  C_3
REMARK    3  A    between atoms: C_6  and  C_11
REMARK    4  A    between atoms: C_8  and  O_9
REMARK    5  A    between atoms: O_9  and  C_10
REMARK    6  A    between atoms: C_12  and  C_31
REMARK    7  A    between atoms: C_13  and  N_30
REMARK    8  A    between atoms: C_17  and  N_29
REMARK    9  A    between atoms: C_18  and  C_20
REMARK   10  A    between atoms: C_20  and  C_22
REMARK                            x       y       z     vdW  Elec       q    Type
REMARK                         _______ _______ _______ _____ _____    ______ ____
ROOT
ATOM      1  C   UNL     1      -3.049   1.597   1.119  0.00  0.00    +0.014 A 
ATOM      2  C   UNL     1      -4.123   1.935   0.284  0.00  0.00    +0.100 A 
ATOM      3  C   UNL     1      -5.247   1.088   0.214  0.00  0.00    +0.136 A 
ATOM      4  N   UNL     1      -5.293  -0.018   0.939  0.00  0.00    -0.224 NA
ATOM      5  C   UNL     1      -4.306  -0.369   1.739  0.00  0.00    +0.113 A 
ATOM      6  C   UNL     1      -3.128   0.399   1.889  0.00  0.00    +0.038 A 
ATOM      7  C   UNL     1      -2.150  -0.143   2.814  0.00  0.00    +0.053 A 
ATOM      8  C   UNL     1      -2.444  -1.334   3.455  0.00  0.00    +0.083 A 
ATOM      9  S   UNL     1      -4.056  -1.754   2.823  0.00  0.00    -0.063 S 
ENDROOT
BRANCH   1  13
ATOM     10  C   UNL     1       0.376   4.105   1.374  0.00  0.00    +0.162 A 
ATOM     11  C   UNL     1      -0.534   4.064   2.421  0.00  0.00    +0.050 A 
ATOM     12  C   UNL     1      -1.648   3.255   2.340  0.00  0.00    +0.012 A 
ATOM     13  C   UNL     1      -1.859   2.470   1.205  0.00  0.00    -0.012 A 
ATOM     14  C   UNL     1      -0.947   2.515   0.149  0.00  0.00    +0.058 A 
ATOM     15  C   UNL     1       0.168   3.328   0.236  0.00  0.00    +0.162 A 
BRANCH  10  17
ATOM     16  C   UNL     1       1.623   5.672   2.654  0.00  0.00    +0.277 C 
ATOM     17  O   UNL     1       1.472   4.903   1.459  0.00  0.00    -0.491 OA
ENDBRANCH  10  17
BRANCH  15  18
ATOM     18  O   UNL     1       1.061   3.369  -0.788  0.00  0.00    -0.491 OA
ATOM     19  C   UNL     1       0.785   2.547  -1.924  0.00  0.00    +0.277 C 
ENDBRANCH  15  18
ENDBRANCH   1  13
BRANCH   7  20
ATOM     20  N   UNL     1      -0.953   0.514   3.049  0.00  0.00    -0.356 N 
ATOM     21  H   UNL     1      -0.222   0.090   3.753  0.00  0.00    +0.142 HD
ATOM     22  H   UNL     1      -0.734   1.460   2.531  0.00  0.00    +0.142 HD
ENDBRANCH   7  20
BRANCH   3  23
ATOM     23  N   UNL     1      -6.305   1.415  -0.612  0.00  0.00    -0.342 N 
ATOM     24  H   UNL     1      -7.183   0.754  -0.669  0.00  0.00    +0.144 HD
ATOM     25  H   UNL     1      -6.270   2.335  -1.213  0.00  0.00    +0.144 HD
ENDBRANCH   3  23
BRANCH   8  26
ATOM     26  C   UNL     1      -1.656  -2.044   4.387  0.00  0.00    +0.202 C 
ATOM     27  O   UNL     1      -0.511  -1.692   4.612  0.00  0.00    -0.286 OA
BRANCH  26  28
ATOM     28  C   UNL     1      -2.220  -3.216   5.091  0.00  0.00    +0.023 A 
ATOM     29  C   UNL     1      -3.600  -3.328   5.272  0.00  0.00    +0.013 A 
ATOM     30  C   UNL     1      -4.121  -4.426   5.924  0.00  0.00    +0.021 A 
ATOM     31  C   UNL     1      -3.277  -5.410   6.411  0.00  0.00    +0.041 A 
ATOM     32  C   UNL     1      -1.907  -5.303   6.239  0.00  0.00    +0.021 A 
ATOM     33  C   UNL     1      -1.375  -4.212   5.583  0.00  0.00    +0.013 A 
ATOM     34 CL   UNL     1      -3.939  -6.786   7.237  0.00  0.00    -0.084 Cl
ENDBRANCH  26  28
ENDBRANCH   8  26
BRANCH   2  35
ATOM     35  C   UNL     1      -4.077   3.134  -0.497  0.00  0.00    +0.103 C 
ATOM     36  N   UNL     1      -4.041   4.086  -1.116  0.00  0.00    -0.191 NA
ENDBRANCH   2  35
TORSDOF 8
