REMARK  Name = ZINC11463738
REMARK  9 active torsions:
REMARK  status: ('A' for Active; 'I' for Inactive)
REMARK    1  A    between atoms: C_1  and  C_2
REMARK    2  A    between atoms: C_2  and  C_3
REMARK    3  A    between atoms: C_3  and  N_44
REMARK    4  A    between atoms: C_4  and  C_5
REMARK    5  A    between atoms: C_4  and  N_44
REMARK    6  A    between atoms: C_5  and  C_6
REMARK    7  A    between atoms: C_12  and  C_13
REMARK    8  A    between atoms: C_12  and  N_44
REMARK    9  A    between atoms: N_15  and  C_16
REMARK                            x       y       z     vdW  Elec       q    Type
REMARK                         _______ _______ _______ _____ _____    ______ ____
ROOT
ATOM      1  N   UNL     1       3.686   6.169   0.333  0.00  0.00    +0.386 N 
ATOM      2  H   UNL     1       4.165   5.652   1.079  0.00  0.00    -0.081 HD
ENDROOT
BRANCH   1   3
ATOM      3  C   UNL     1       4.402   5.946  -0.941  0.00  0.00    -0.078 C 
BRANCH   3   5
ATOM      4  C   UNL     1       4.440   6.418  -3.394  0.00  0.00    +0.002 C 
ATOM      5  C   UNL     1       3.761   6.761  -2.066  0.00  0.00    -0.022 C 
ENDBRANCH   3   5
ENDBRANCH   1   3
BRANCH   1   6
ATOM      6  C   UNL     1       3.688   7.609   0.668  0.00  0.00    -0.069 C 
BRANCH   6   7
ATOM      7  C   UNL     1       5.097   8.007   1.113  0.00  0.00    +0.078 C 
BRANCH   7   8
ATOM      8  C   UNL     1       5.086   9.435   1.595  0.00  0.00    +0.219 C 
ATOM      9  O   UNL     1       4.053  10.071   1.583  0.00  0.00    -0.275 OA
ATOM     10  N   UNL     1       6.223  10.005   2.038  0.00  0.00    -0.240 N 
ATOM     11  C   UNL     1       6.213  11.283   2.469  0.00  0.00    +0.303 C 
ATOM     12  O   UNL     1       5.179  11.920   2.457  0.00  0.00    -0.253 OA
ATOM     13  N   UNL     1       7.351  11.853   2.913  0.00  0.00    -0.313 N 
ATOM     14  H   UNL     1       7.049   9.497   2.048  0.00  0.00    +0.159 HD
ATOM     15  H   UNL     1       8.177  11.344   2.922  0.00  0.00    +0.146 HD
ATOM     16  H   UNL     1       7.344  12.772   3.223  0.00  0.00    +0.146 HD
ENDBRANCH   7   8
ENDBRANCH   6   7
ENDBRANCH   1   6
BRANCH   1  17
ATOM     17  C   UNL     1       2.296   5.678   0.224  0.00  0.00    +0.019 C 
BRANCH  17  18
ATOM     18  C   UNL     1       2.319   4.176   0.102  0.00  0.00    +0.201 C 
ATOM     19  O   UNL     1       3.378   3.585   0.090  0.00  0.00    -0.278 OA
ATOM     20  N   UNL     1       1.163   3.490   0.007  0.00  0.00    -0.285 N 
ATOM     21  H   UNL     1       0.321   3.966  -0.064  0.00  0.00    +0.155 HD
BRANCH  20  22
ATOM     22  C   UNL     1       1.178   2.088   0.011  0.00  0.00    +0.072 A 
ATOM     23  C   UNL     1       2.230   1.406   0.606  0.00  0.00    +0.029 A 
ATOM     24  C   UNL     1       2.244   0.024   0.609  0.00  0.00    +0.043 A 
ATOM     25  C   UNL     1       1.210  -0.682   0.019  0.00  0.00    +0.161 A 
ATOM     26  C   UNL     1       0.157  -0.005  -0.577  0.00  0.00    +0.195 A 
ATOM     27  C   UNL     1       0.139   1.380  -0.582  0.00  0.00    +0.182 A 
ATOM     28  F   UNL     1      -0.883   2.042  -1.167  0.00  0.00    -0.200 F 
ATOM     29  F   UNL     1      -0.851  -0.695  -1.153  0.00  0.00    -0.199 F 
ATOM     30  F   UNL     1       1.227  -2.033   0.023  0.00  0.00    -0.202 F 
ENDBRANCH  20  22
ENDBRANCH  17  18
ENDBRANCH   1  17
TORSDOF 8
