REMARK  Name = ZINC48045968
REMARK  11 active torsions:
REMARK  status: ('A' for Active; 'I' for Inactive)
REMARK    1  A    between atoms: C_2  and  O_33
REMARK    2  A    between atoms: C_4  and  O_32
REMARK    3  A    between atoms: C_6  and  C_30
REMARK    4  A    between atoms: C_9  and  O_11
REMARK    5  A    between atoms: O_11  and  C_12
REMARK    6  A    between atoms: C_14  and  C_28
REMARK    7  A    between atoms: C_17  and  N_25
REMARK    8  A    between atoms: C_19  and  O_24
REMARK    9  A    between atoms: C_21  and  O_23
REMARK   10  A    between atoms: C_28  and  O_29
REMARK   11  A    between atoms: C_30  and  O_31
REMARK                            x       y       z     vdW  Elec       q    Type
REMARK                         _______ _______ _______ _____ _____    ______ ____
ROOT
ATOM      1  C   UNL     1      -1.445  -1.907   0.171  0.00  0.00    +0.183 C 
ATOM      2  C   UNL     1      -2.660  -2.449  -0.588  0.00  0.00    +0.178 C 
ATOM      3  O   UNL     1      -3.848  -1.843  -0.076  0.00  0.00    -0.342 OA
ATOM      4  C   UNL     1      -4.090  -2.107   1.307  0.00  0.00    +0.303 C 
ATOM      5  C   UNL     1      -2.933  -1.552   2.141  0.00  0.00    +0.199 C 
ATOM      6  C   UNL     1      -1.620  -2.185   1.667  0.00  0.00    +0.179 C 
ENDROOT
BRANCH   4   7
ATOM      7  N   UNL     1      -5.341  -1.464   1.716  0.00  0.00    -0.075 NA
ATOM      8  N   UNL     1      -6.188  -2.085   2.117  0.00  0.00    -0.164 NA
ATOM      9  N   UNL     1      -7.016  -2.693   2.509  0.00  0.00    +0.068 NA
ENDBRANCH   4   7
BRANCH   6  10
ATOM     10  O   UNL     1      -0.525  -1.618   2.389  0.00  0.00    -0.386 OA
ATOM     11  H   UNL     1      -0.571  -1.756   3.345  0.00  0.00    +0.210 HD
ENDBRANCH   6  10
BRANCH   5  12
ATOM     12  O   UNL     1      -2.866  -0.133   1.980  0.00  0.00    -0.385 OA
ATOM     13  H   UNL     1      -3.667   0.333   2.257  0.00  0.00    +0.210 HD
ENDBRANCH   5  12
BRANCH   1  14
ATOM     14  O   UNL     1      -1.338  -0.499  -0.044  0.00  0.00    -0.343 OA
BRANCH  14  20
ATOM     15  C   UNL     1      -0.019   1.527   0.010  0.00  0.00    +0.095 C 
ATOM     16  C   UNL     1       1.421   2.049  -0.001  0.00  0.00    +0.150 C 
ATOM     17  C   UNL     1       2.148   1.484  -1.225  0.00  0.00    +0.174 C 
ATOM     18  C   UNL     1       2.085  -0.045  -1.185  0.00  0.00    +0.177 C 
ATOM     19  O   UNL     1       0.720  -0.463  -1.145  0.00  0.00    -0.343 OA
ATOM     20  C   UNL     1       0.002  -0.004   0.002  0.00  0.00    +0.254 C 
BRANCH  17  21
ATOM     21  O   UNL     1       3.513   1.908  -1.207  0.00  0.00    -0.387 OA
ATOM     22  H   UNL     1       3.627   2.868  -1.226  0.00  0.00    +0.210 HD
ENDBRANCH  17  21
BRANCH  16  23
ATOM     23  O   UNL     1       1.411   3.477  -0.065  0.00  0.00    -0.389 OA
ATOM     24  H   UNL     1       0.960   3.901   0.678  0.00  0.00    +0.210 HD
ENDBRANCH  16  23
BRANCH  18  25
ATOM     25  C   UNL     1       2.758  -0.615  -2.436  0.00  0.00    +0.190 C 
BRANCH  25  26
ATOM     26  O   UNL     1       2.803  -2.041  -2.344  0.00  0.00    -0.392 OA
ATOM     27  H   UNL     1       3.217  -2.471  -3.104  0.00  0.00    +0.210 HD
ENDBRANCH  25  26
ENDBRANCH  18  25
ENDBRANCH  14  20
ENDBRANCH   1  14
BRANCH   2  28
ATOM     28  C   UNL     1      -2.520  -2.123  -2.076  0.00  0.00    +0.190 C 
BRANCH  28  29
ATOM     29  O   UNL     1      -3.593  -2.728  -2.799  0.00  0.00    -0.392 OA
ATOM     30  H   UNL     1      -3.568  -2.563  -3.752  0.00  0.00    +0.210 HD
ENDBRANCH  28  29
ENDBRANCH   2  28
TORSDOF 11
