REMARK  Name = ZINC67196409
REMARK  8 active torsions:
REMARK  status: ('A' for Active; 'I' for Inactive)
REMARK    1  A    between atoms: C_2  and  C_3
REMARK    2  A    between atoms: C_7  and  N_9
REMARK    3  A    between atoms: N_9  and  C_10
REMARK    4  A    between atoms: C_10  and  N_12
REMARK    5  A    between atoms: N_12  and  N_13
REMARK    6  A    between atoms: C_14  and  C_16
REMARK    7  A    between atoms: C_18  and  S_21
REMARK    8  A    between atoms: S_21  and  N_24
REMARK                            x       y       z     vdW  Elec       q    Type
REMARK                         _______ _______ _______ _____ _____    ______ ____
ROOT
ATOM      1  N   UNL     1       4.702   5.605  -0.241  0.00  0.00    -0.231 N 
ATOM      2  C   UNL     1       5.854   6.294  -0.356  0.00  0.00    +0.261 C 
ATOM      3  O   UNL     1       5.832   7.507  -0.441  0.00  0.00    -0.269 OA
ATOM      4  H   UNL     1       4.720   4.637  -0.173  0.00  0.00    +0.173 HD
ENDROOT
BRANCH   2   5
ATOM      5  C   UNL     1       7.140   5.579  -0.378  0.00  0.00    +0.047 A 
ATOM      6  C   UNL     1       8.394   6.283  -0.495  0.00  0.00    +0.049 A 
ATOM      7  C   UNL     1       9.500   5.512  -0.503  0.00  0.00    +0.143 A 
ATOM      8  S   UNL     1       8.845   3.864  -0.356  0.00  0.00    -0.076 S 
ATOM      9  C   UNL     1       7.204   4.207  -0.284  0.00  0.00    +0.060 A 
BRANCH   7  10
ATOM     10  S   UNL     1      11.185   6.013  -0.629  0.00  0.00    +0.062 S 
ATOM     11  O   UNL     1      11.902   4.901  -1.146  0.00  0.00    -0.153 OA
ATOM     12  O   UNL     1      11.184   7.283  -1.268  0.00  0.00    -0.153 OA
BRANCH  10  13
ATOM     13  N   UNL     1      11.739   6.259   0.912  0.00  0.00    -0.203 NA
ATOM     14  H   UNL     1      11.148   6.120   1.668  0.00  0.00    +0.144 HD
ATOM     15  H   UNL     1      12.655   6.543   1.058  0.00  0.00    +0.144 HD
ENDBRANCH  10  13
ENDBRANCH   7  10
ENDBRANCH   2   5
BRANCH   1  16
ATOM     16  N   UNL     1       3.478   6.286  -0.220  0.00  0.00    -0.245 N 
ATOM     17  H   UNL     1       3.459   7.253  -0.287  0.00  0.00    +0.172 HD
BRANCH  16  18
ATOM     18  C   UNL     1       2.325   5.597  -0.104  0.00  0.00    +0.151 C 
ATOM     19  S   UNL     1       0.829   6.429  -0.078  0.00  0.00    -0.017 S 
BRANCH  18  20
ATOM     20  N   UNL     1       2.350   4.253  -0.010  0.00  0.00    -0.296 N 
ATOM     21  H   UNL     1       3.198   3.787   0.056  0.00  0.00    +0.154 HD
BRANCH  20  26
ATOM     22  C   UNL     1      -1.062   3.155  -0.869  0.00  0.00    +0.026 A 
ATOM     23  C   UNL     1      -1.217   2.082   0.011  0.00  0.00    +0.017 A 
ATOM     24  C   UNL     1      -0.192   1.741   0.870  0.00  0.00    +0.003 A 
ATOM     25  C   UNL     1       0.989   2.459   0.864  0.00  0.00    +0.023 A 
ATOM     26  C   UNL     1       1.153   3.529  -0.008  0.00  0.00    +0.034 A 
ATOM     27  C   UNL     1       0.132   3.875  -0.879  0.00  0.00    +0.040 A 
BRANCH  22  29
ATOM     28  C   UNL     1      -2.994   3.803  -2.494  0.00  0.00    +0.009 C 
ATOM     29  C   UNL     1      -2.124   3.511  -1.762  0.00  0.00    -0.070 C 
ENDBRANCH  22  29
ENDBRANCH  20  26
ENDBRANCH  18  20
ENDBRANCH  16  18
ENDBRANCH   1  16
TORSDOF 8
