REMARK  Name = ZINC65387735
REMARK  4 active torsions:
REMARK  status: ('A' for Active; 'I' for Inactive)
REMARK    1  A    between atoms: C_6  and  N_7
REMARK    2  A    between atoms: N_14  and  C_15
REMARK    3  A    between atoms: N_18  and  C_21
REMARK    4  A    between atoms: C_21  and  C_22
REMARK                            x       y       z     vdW  Elec       q    Type
REMARK                         _______ _______ _______ _____ _____    ______ ____
ROOT
ATOM      1  C   UNL     1      -0.864   1.381   0.074  0.00  0.00    +0.087 A 
ATOM      2  C   UNL     1       0.460   1.806   0.137  0.00  0.00    +0.126 A 
ATOM      3  N   UNL     1       1.412   0.920   0.419  0.00  0.00    -0.200 NA
ATOM      4  C   UNL     1       1.111  -0.351   0.639  0.00  0.00    +0.216 A 
ATOM      5  N   UNL     1      -0.137  -0.791   0.588  0.00  0.00    -0.200 NA
ATOM      6  C   UNL     1      -1.141   0.038   0.311  0.00  0.00    +0.128 A 
ATOM      7  N   UNL     1       2.128  -1.244   0.931  0.00  0.00    -0.327 N 
ATOM      8  N   UNL     1       0.783   3.134  -0.093  0.00  0.00    -0.326 N 
ATOM      9  H   UNL     1       3.047  -0.935   0.972  0.00  0.00    +0.145 HD
ATOM     10  H   UNL     1       1.922  -2.177   1.094  0.00  0.00    +0.145 HD
ATOM     11  H   UNL     1       1.708   3.423  -0.047  0.00  0.00    +0.148 HD
ENDROOT
BRANCH   8  12
ATOM     12  C   UNL     1      -0.272   4.102  -0.404  0.00  0.00    +0.068 C 
ATOM     13  C   UNL     1      -0.564   4.076  -1.907  0.00  0.00    +0.003 C 
ATOM     14  C   UNL     1      -1.610   5.143  -2.237  0.00  0.00    -0.077 C 
ATOM     15  N   UNL     1      -1.099   6.466  -1.859  0.00  0.00    +0.381 N 
ATOM     16  C   UNL     1      -0.885   6.522  -0.408  0.00  0.00    -0.077 C 
ATOM     17  C   UNL     1       0.188   5.507  -0.008  0.00  0.00    +0.003 C 
ATOM     18  H   UNL     1      -0.225   6.637  -2.333  0.00  0.00    -0.082 HD
BRANCH  15  19
ATOM     19  C   UNL     1      -2.073   7.495  -2.248  0.00  0.00    -0.047 C 
BRANCH  19  20
ATOM     20  C   UNL     1      -2.186   7.539  -3.773  0.00  0.00    +0.102 C 
ATOM     21  C   UNL     1      -3.249   8.580  -4.204  0.00  0.00    +0.032 C 
ATOM     22  C   UNL     1      -2.760   8.927  -5.637  0.00  0.00    +0.030 C 
ATOM     23  C   UNL     1      -1.226   8.820  -5.493  0.00  0.00    +0.160 C 
ATOM     24  O   UNL     1      -0.953   7.998  -4.351  0.00  0.00    -0.378 OA
ENDBRANCH  19  20
ENDBRANCH  15  19
ENDBRANCH   8  12
BRANCH   6  25
ATOM     25  N   UNL     1      -2.445  -0.430   0.259  0.00  0.00    -0.311 N 
ATOM     26  C   UNL     1      -2.733  -1.873   0.290  0.00  0.00    +0.134 C 
ATOM     27  C   UNL     1      -3.791  -2.131   1.369  0.00  0.00    +0.178 C 
ATOM     28  O   UNL     1      -4.907  -1.265   1.151  0.00  0.00    -0.377 OA
ATOM     29  C   UNL     1      -4.597   0.127   1.256  0.00  0.00    +0.178 C 
ATOM     30  C   UNL     1      -3.581   0.501   0.177  0.00  0.00    +0.134 C 
ENDBRANCH   6  25
TORSDOF 4
