REMARK  Name = ZINC35458225
REMARK  15 active torsions:
REMARK  status: ('A' for Active; 'I' for Inactive)
REMARK    1  A    between atoms: C_3  and  O_42
REMARK    2  A    between atoms: C_4  and  O_41
REMARK    3  A    between atoms: C_6  and  C_7
REMARK    4  A    between atoms: C_8  and  C_9
REMARK    5  A    between atoms: C_9  and  O_11
REMARK    6  A    between atoms: O_11  and  C_12
REMARK    7  A    between atoms: C_14  and  O_40
REMARK    8  A    between atoms: C_18  and  O_23
REMARK    9  A    between atoms: C_20  and  O_22
REMARK   10  A    between atoms: O_23  and  C_24
REMARK   11  A    between atoms: C_26  and  O_39
REMARK   12  A    between atoms: C_28  and  O_38
REMARK   13  A    between atoms: C_30  and  O_37
REMARK   14  A    between atoms: C_32  and  C_35
REMARK   15  A    between atoms: C_35  and  O_36
REMARK                            x       y       z     vdW  Elec       q    Type
REMARK                         _______ _______ _______ _____ _____    ______ ____
ROOT
ATOM      1  C   UNL     1      -6.021  -0.968   0.057  0.00  0.00    +0.240 C 
ATOM      2  C   UNL     1      -6.468  -1.238  -1.382  0.00  0.00    +0.180 C 
ATOM      3  C   UNL     1      -7.843  -1.841  -1.391  0.00  0.00    +0.006 C 
ATOM      4  C   UNL     1      -8.659  -1.801  -0.387  0.00  0.00    +0.005 C 
ATOM      5  C   UNL     1      -8.341  -1.156   0.930  0.00  0.00    +0.176 C 
ATOM      6  C   UNL     1      -7.142  -0.216   0.785  0.00  0.00    +0.191 C 
ENDROOT
BRANCH   6   7
ATOM      7  O   UNL     1      -7.526   0.930   0.023  0.00  0.00    -0.385 OA
ATOM      8  H   UNL     1      -8.232   1.453   0.427  0.00  0.00    +0.210 HD
ENDBRANCH   6   7
BRANCH   2   9
ATOM      9  O   UNL     1      -6.487  -0.009  -2.111  0.00  0.00    -0.384 OA
ATOM     10  H   UNL     1      -6.762  -0.103  -3.033  0.00  0.00    +0.210 HD
ENDBRANCH   2   9
BRANCH   1  11
ATOM     11  O   UNL     1      -4.835  -0.172   0.049  0.00  0.00    -0.453 OA
BRANCH  11  12
ATOM     12  C   UNL     1      -3.656  -0.828   0.034  0.00  0.00    +0.332 C 
ATOM     13  O   UNL     1      -3.638  -2.045   0.027  0.00  0.00    -0.246 OA
BRANCH  12  15
ATOM     14  C   UNL     1      -1.259  -0.758   0.011  0.00  0.00    +0.015 C 
ATOM     15  C   UNL     1      -2.439  -0.101   0.026  0.00  0.00    +0.092 C 
BRANCH  14  21
ATOM     16  C   UNL     1      -0.017   1.395   0.010  0.00  0.00    +0.012 A 
ATOM     17  C   UNL     1       1.167   2.100   0.002  0.00  0.00    +0.050 A 
ATOM     18  C   UNL     1       2.380   1.425  -0.013  0.00  0.00    +0.158 A 
ATOM     19  C   UNL     1       2.408   0.031  -0.021  0.00  0.00    +0.159 A 
ATOM     20  C   UNL     1       1.226  -0.683  -0.014  0.00  0.00    +0.057 A 
ATOM     21  C   UNL     1       0.002  -0.004   0.002  0.00  0.00    -0.021 A 
BRANCH  19  22
ATOM     22  O   UNL     1       3.599  -0.626  -0.037  0.00  0.00    -0.503 OA
ATOM     23  H   UNL     1       3.952  -0.821   0.842  0.00  0.00    +0.292 HD
ENDBRANCH  19  22
BRANCH  18  24
ATOM     24  O   UNL     1       3.544   2.125  -0.020  0.00  0.00    -0.503 OA
ATOM     25  H   UNL     1       3.890   2.323   0.861  0.00  0.00    +0.292 HD
ENDBRANCH  18  24
ENDBRANCH  14  21
ENDBRANCH  12  15
ENDBRANCH  11  12
ENDBRANCH   1  11
BRANCH   5  26
ATOM     26  O   UNL     1      -9.474  -0.410   1.379  0.00  0.00    -0.339 OA
BRANCH  26  27
ATOM     27  C   UNL     1     -10.382  -1.163   2.186  0.00  0.00    +0.282 C 
ATOM     28  C   UNL     1     -11.665  -0.354   2.400  0.00  0.00    +0.201 C 
ATOM     29  C   UNL     1     -12.608  -1.141   3.315  0.00  0.00    +0.179 C 
ATOM     30  C   UNL     1     -11.887  -1.447   4.631  0.00  0.00    +0.177 C 
ATOM     31  C   UNL     1     -10.597  -2.213   4.331  0.00  0.00    +0.178 C 
ATOM     32  O   UNL     1      -9.778  -1.440   3.451  0.00  0.00    -0.341 OA
BRANCH  30  33
ATOM     33  O   UNL     1     -11.573  -0.224   5.300  0.00  0.00    -0.386 OA
ATOM     34  H   UNL     1     -12.346   0.316   5.517  0.00  0.00    +0.210 HD
ENDBRANCH  30  33
BRANCH  29  35
ATOM     35  O   UNL     1     -13.778  -0.363   3.578  0.00  0.00    -0.386 OA
ATOM     36  H   UNL     1     -14.280  -0.127   2.786  0.00  0.00    +0.210 HD
ENDBRANCH  29  35
BRANCH  28  37
ATOM     37  O   UNL     1     -11.343   0.899   3.007  0.00  0.00    -0.384 OA
ATOM     38  H   UNL     1     -10.744   1.448   2.483  0.00  0.00    +0.210 HD
ENDBRANCH  28  37
BRANCH  31  39
ATOM     39  C   UNL     1      -9.841  -2.471   5.636  0.00  0.00    +0.190 C 
BRANCH  39  40
ATOM     40  O   UNL     1      -8.697  -3.286   5.371  0.00  0.00    -0.392 OA
ATOM     41  H   UNL     1      -8.169  -3.490   6.155  0.00  0.00    +0.210 HD
ENDBRANCH  39  40
ENDBRANCH  31  39
ENDBRANCH  26  27
ENDBRANCH   5  26
TORSDOF 15
