REMARK  Name = ZINC37621809
REMARK  7 active torsions:
REMARK  status: ('A' for Active; 'I' for Inactive)
REMARK    1  A    between atoms: C_1  and  C_2
REMARK    2  A    between atoms: C_2  and  C_3
REMARK    3  A    between atoms: C_3  and  C_4
REMARK    4  A    between atoms: C_4  and  C_5
REMARK    5  A    between atoms: C_4  and  C_6
REMARK    6  A    between atoms: C_4  and  N_20
REMARK    7  A    between atoms: N_8  and  C_9
REMARK                            x       y       z     vdW  Elec       q    Type
REMARK                         _______ _______ _______ _____ _____    ______ ____
ROOT
ATOM      1  C   UNL     1       1.494  -2.539   2.453  0.00  0.00    +0.206 C 
ATOM      2  O   UNL     1       1.549  -1.850   3.450  0.00  0.00    -0.277 OA
ATOM      3  N   UNL     1       2.077  -3.754   2.440  0.00  0.00    -0.285 N 
ATOM      4  H   UNL     1       1.966  -4.337   1.673  0.00  0.00    +0.155 HD
ENDROOT
BRANCH   3   5
ATOM      5  C   UNL     1       2.843  -4.175   3.535  0.00  0.00    +0.056 A 
ATOM      6  C   UNL     1       3.435  -3.238   4.370  0.00  0.00    +0.074 A 
ATOM      7  C   UNL     1       4.192  -3.655   5.454  0.00  0.00    +0.164 A 
ATOM      8  C   UNL     1       4.356  -5.012   5.704  0.00  0.00    +0.164 A 
ATOM      9  C   UNL     1       3.764  -5.947   4.868  0.00  0.00    +0.071 A 
ATOM     10  C   UNL     1       3.005  -5.531   3.790  0.00  0.00    +0.066 A 
ATOM     11 CL   UNL     1       2.260  -6.704   2.749  0.00  0.00    -0.082 Cl
ATOM     12  O   UNL     1       5.090  -5.440   6.769  0.00  0.00    -0.485 OA
ATOM     13  C   UNL     1       5.974  -4.486   7.367  0.00  0.00    +0.270 C 
ATOM     14  C   UNL     1       5.207  -3.169   7.550  0.00  0.00    +0.270 C 
ATOM     15  O   UNL     1       4.770  -2.723   6.261  0.00  0.00    -0.485 OA
ENDBRANCH   3   5
BRANCH   1  16
ATOM     16  C   UNL     1       0.776  -2.035   1.228  0.00  0.00    +0.005 C 
ATOM     17  C   UNL     1      -0.661  -2.561   1.226  0.00  0.00    -0.001 C 
BRANCH  16  18
ATOM     18  N   UNL     1       1.472  -2.507   0.023  0.00  0.00    +0.387 N 
ATOM     19  H   UNL     1       2.419  -2.160   0.024  0.00  0.00    -0.089 HD
ATOM     20  H   UNL     1       1.483  -3.516   0.015  0.00  0.00    -0.089 HD
ATOM     21  H   UNL     1       0.991  -2.170  -0.797  0.00  0.00    -0.089 HD
ENDBRANCH  16  18
BRANCH  16  22
ATOM     22  C   UNL     1       0.759  -0.505   1.240  0.00  0.00    -0.004 C 
BRANCH  22  24
ATOM     23  C   UNL     1       0.012   1.537   0.008  0.00  0.00    +0.004 C 
ATOM     24  C   UNL     1       0.029   0.007  -0.004  0.00  0.00    -0.004 C 
ENDBRANCH  22  24
ENDBRANCH  16  22
ENDBRANCH   1  16
TORSDOF 5
