REMARK  Name = ZINC64744024
REMARK  9 active torsions:
REMARK  status: ('A' for Active; 'I' for Inactive)
REMARK    1  A    between atoms: C_1  and  C_2
REMARK    2  A    between atoms: C_2  and  C_4
REMARK    3  A    between atoms: C_2  and  N_31
REMARK    4  A    between atoms: C_4  and  C_5
REMARK    5  A    between atoms: C_5  and  N_6
REMARK    6  A    between atoms: C_7  and  C_9
REMARK    7  A    between atoms: C_9  and  C_11
REMARK    8  A    between atoms: C_9  and  C_12
REMARK    9  A    between atoms: C_18  and  C_20
REMARK                            x       y       z     vdW  Elec       q    Type
REMARK                         _______ _______ _______ _____ _____    ______ ____
ROOT
ATOM      1  C   UNL     1      -2.837  -6.823   0.141  0.00  0.00    +0.004 C 
ATOM      2  C   UNL     1      -1.790  -7.180   1.198  0.00  0.00    +0.023 C 
ATOM      3  C   UNL     1      -1.392  -8.651   1.040  0.00  0.00    +0.108 C 
ATOM      4  N   UNL     1      -2.606  -9.477   1.091  0.00  0.00    -0.300 N 
ATOM      5  C   UNL     1      -3.713  -9.162   0.178  0.00  0.00    +0.108 C 
ATOM      6  C   UNL     1      -4.085  -7.686   0.345  0.00  0.00    +0.023 C 
ATOM      7  C   UNL     1      -2.701 -10.505   1.957  0.00  0.00    +0.242 C 
ATOM      8  O   UNL     1      -1.780 -10.755   2.705  0.00  0.00    -0.273 OA
ENDROOT
BRANCH   7   9
ATOM      9  C   UNL     1      -3.953 -11.343   1.997  0.00  0.00    +0.190 C 
ATOM     10  C   UNL     1      -5.138 -10.492   2.395  0.00  0.00    +0.016 C 
ATOM     11  C   UNL     1      -5.614 -11.027   3.543  0.00  0.00    -0.002 A 
ATOM     12  C   UNL     1      -6.735 -10.664   4.418  0.00  0.00    +0.029 A 
ATOM     13  C   UNL     1      -6.970 -11.407   5.525  0.00  0.00    +0.042 A 
ATOM     14  C   UNL     1      -6.171 -12.512   5.855  0.00  0.00    +0.022 A 
ATOM     15  C   UNL     1      -5.124 -12.906   5.100  0.00  0.00    +0.027 A 
ATOM     16  C   UNL     1      -4.786 -12.197   3.914  0.00  0.00    +0.043 A 
ATOM     17  N   UNL     1      -3.835 -12.380   3.028  0.00  0.00    -0.370 N 
ATOM     18 CL   UNL     1      -8.294 -10.981   6.563  0.00  0.00    -0.084 Cl
ATOM     19  H   UNL     1      -3.166 -13.082   3.051  0.00  0.00    +0.161 HD
ENDBRANCH   7   9
BRANCH   1  20
ATOM     20  C   UNL     1      -3.212  -5.345   0.274  0.00  0.00    +0.075 C 
ATOM     21  C   UNL     1      -4.258  -4.988  -0.784  0.00  0.00    +0.017 C 
BRANCH  20  23
ATOM     22  N   UNL     1      -2.074  -3.153   0.145  0.00  0.00    -0.315 N 
ATOM     23  C   UNL     1      -1.984  -4.496   0.073  0.00  0.00    +0.216 C 
ATOM     24  O   UNL     1      -0.914  -5.020  -0.154  0.00  0.00    -0.276 OA
ATOM     25  H   UNL     1      -2.930  -2.733   0.326  0.00  0.00    +0.149 HD
BRANCH  22  26
ATOM     26  C   UNL     1      -0.880  -2.327  -0.050  0.00  0.00    +0.102 C 
BRANCH  26  27
ATOM     27  C   UNL     1      -1.255  -0.849   0.082  0.00  0.00    +0.003 C 
BRANCH  27  29
ATOM     28  C   UNL     1      -0.418   1.495  -0.135  0.00  0.00    -0.013 C 
ATOM     29  C   UNL     1      -0.039   0.017  -0.252  0.00  0.00    -0.070 C 
BRANCH  29  30
ATOM     30  N   UNL     1       1.050  -0.285   0.686  0.00  0.00    +0.381 N 
ATOM     31  C   UNL     1       0.617   0.080   2.048  0.00  0.00    -0.078 C 
ATOM     32  C   UNL     1       1.409  -0.743   3.033  0.00  0.00    -0.019 C 
ATOM     33  C   UNL     1       2.632   0.032   3.559  0.00  0.00    -0.002 C 
ATOM     34  C   UNL     1       3.329   0.830   2.439  0.00  0.00    -0.002 C 
ATOM     35  C   UNL     1       3.420   0.051   1.151  0.00  0.00    -0.019 C 
ATOM     36  C   UNL     1       2.199   0.391   0.271  0.00  0.00    -0.078 C 
ATOM     37  H   UNL     1       1.232  -1.278   0.660  0.00  0.00    -0.081 HD
ENDBRANCH  29  30
ENDBRANCH  27  29
ENDBRANCH  26  27
ENDBRANCH  22  26
ENDBRANCH  20  23
ENDBRANCH   1  20
TORSDOF 7
