REMARK  Name = ZINC07493875
REMARK  10 active torsions:
REMARK  status: ('A' for Active; 'I' for Inactive)
REMARK    1  A    between atoms: C_1  and  C_2
REMARK    2  A    between atoms: C_7  and  N_8
REMARK    3  A    between atoms: C_11  and  C_16
REMARK    4  A    between atoms: C_16  and  N_55
REMARK    5  A    between atoms: C_17  and  N_55
REMARK    6  A    between atoms: C_18  and  C_19
REMARK    7  A    between atoms: C_18  and  N_55
REMARK    8  A    between atoms: N_21  and  C_22
REMARK    9  A    between atoms: C_27  and  S_28
REMARK   10  A    between atoms: S_28  and  C_29
REMARK                            x       y       z     vdW  Elec       q    Type
REMARK                         _______ _______ _______ _____ _____    ______ ____
ROOT
ATOM      1  N   UNL     1       0.927   3.373   0.125  0.00  0.00    -0.283 N 
ATOM      2  C   UNL     1       1.022   1.995   0.097  0.00  0.00    +0.224 A 
ATOM      3  N   UNL     1      -0.081   1.250   0.111  0.00  0.00    -0.201 NA
ATOM      4  C   UNL     1       0.009  -0.068   0.084  0.00  0.00    +0.120 A 
ATOM      5  N   UNL     1       1.194  -0.652   0.044  0.00  0.00    -0.202 NA
ATOM      6  C   UNL     1       2.301   0.086   0.029  0.00  0.00    +0.217 A 
ATOM      7  N   UNL     1       2.215   1.412   0.056  0.00  0.00    -0.181 NA
ATOM      8  N   UNL     1       3.538  -0.524  -0.013  0.00  0.00    -0.327 N 
ATOM      9  H   UNL     1       0.058   3.800   0.068  0.00  0.00    +0.155 HD
ATOM     10  H   UNL     1       3.601  -1.492  -0.032  0.00  0.00    +0.145 HD
ATOM     11  H   UNL     1       4.345   0.014  -0.024  0.00  0.00    +0.145 HD
ENDROOT
BRANCH   1  18
ATOM     12  C   UNL     1       0.847   6.041  -0.860  0.00  0.00    +0.045 C 
ATOM     13  C   UNL     1       2.088   5.459  -0.233  0.00  0.00    -0.029 A 
ATOM     14  C   UNL     1       3.231   6.226  -0.123  0.00  0.00    +0.005 A 
ATOM     15  C   UNL     1       4.370   5.693   0.452  0.00  0.00    +0.000 A 
ATOM     16  C   UNL     1       4.368   4.391   0.919  0.00  0.00    +0.002 A 
ATOM     17  C   UNL     1       3.227   3.621   0.816  0.00  0.00    +0.023 A 
ATOM     18  C   UNL     1       2.083   4.152   0.234  0.00  0.00    +0.036 A 
ENDBRANCH   1  18
BRANCH   4  19
ATOM     19  C   UNL     1      -1.242  -0.907   0.101  0.00  0.00    -0.001 C 
BRANCH  19  21
ATOM     20  C   UNL     1      -0.714  -1.987  -2.001  0.00  0.00    -0.095 C 
ATOM     21  N   UNL     1      -1.686  -1.129  -1.292  0.00  0.00    +0.388 N 
ATOM     22  H   UNL     1      -1.743  -0.223  -1.772  0.00  0.00    -0.081 HD
BRANCH  21  23
ATOM     23  C   UNL     1      -3.021  -1.763  -1.302  0.00  0.00    +0.019 C 
BRANCH  23  24
ATOM     24  C   UNL     1      -3.543  -1.776  -2.715  0.00  0.00    +0.201 C 
ATOM     25  O   UNL     1      -2.867  -1.323  -3.615  0.00  0.00    -0.278 OA
ATOM     26  N   UNL     1      -4.760  -2.291  -2.980  0.00  0.00    -0.286 N 
ATOM     27  H   UNL     1      -5.328  -2.591  -2.253  0.00  0.00    +0.155 HD
BRANCH  26  28
ATOM     28  C   UNL     1      -5.205  -2.392  -4.305  0.00  0.00    +0.047 A 
ATOM     29  C   UNL     1      -4.853  -1.424  -5.233  0.00  0.00    +0.024 A 
ATOM     30  C   UNL     1      -5.288  -1.528  -6.541  0.00  0.00    +0.002 A 
ATOM     31  C   UNL     1      -6.084  -2.592  -6.926  0.00  0.00    +0.001 A 
ATOM     32  C   UNL     1      -6.444  -3.559  -6.007  0.00  0.00    +0.016 A 
ATOM     33  C   UNL     1      -6.007  -3.465  -4.694  0.00  0.00    +0.029 A 
BRANCH  33  34
ATOM     34  S   UNL     1      -6.466  -4.696  -3.519  0.00  0.00    -0.127 S 
ATOM     35  C   UNL     1      -7.485  -5.854  -4.473  0.00  0.00    +0.090 C 
ENDBRANCH  33  34
ENDBRANCH  26  28
ENDBRANCH  23  24
ENDBRANCH  21  23
ENDBRANCH  19  21
ENDBRANCH   4  19
TORSDOF 7
