REMARK  Name = ZINC64801669
REMARK  8 active torsions:
REMARK  status: ('A' for Active; 'I' for Inactive)
REMARK    1  A    between atoms: C_1  and  C_2
REMARK    2  A    between atoms: C_2  and  C_3
REMARK    3  A    between atoms: C_2  and  N_4
REMARK    4  A    between atoms: N_4  and  C_5
REMARK    5  A    between atoms: N_4  and  C_18
REMARK    6  A    between atoms: C_5  and  C_6
REMARK    7  A    between atoms: C_9  and  C_11
REMARK    8  A    between atoms: C_18  and  C_19
REMARK                            x       y       z     vdW  Elec       q    Type
REMARK                         _______ _______ _______ _____ _____    ______ ____
ROOT
ATOM      1  N   UNL     1      -1.350  -0.607   0.130  0.00  0.00    +0.390 N 
ATOM      2  H   UNL     1      -1.194  -0.102   0.989  0.00  0.00    -0.080 HD
ENDROOT
BRANCH   1   4
ATOM      3  C   UNL     1      -0.428  -1.204  -2.059  0.00  0.00    -0.013 C 
ATOM      4  C   UNL     1      -0.184  -0.450  -0.750  0.00  0.00    -0.074 C 
ATOM      5  C   UNL     1       0.033   1.034  -1.049  0.00  0.00    -0.013 C 
ENDBRANCH   1   4
BRANCH   1   6
ATOM      6  C   UNL     1      -1.550  -2.032   0.429  0.00  0.00    -0.035 C 
BRANCH   6   7
ATOM      7  C   UNL     1      -0.390  -2.540   1.247  0.00  0.00    -0.026 A 
ATOM      8  C   UNL     1      -0.272  -2.631   2.596  0.00  0.00    +0.010 A 
ATOM      9  C   UNL     1       0.892  -3.133   3.136  0.00  0.00    +0.016 A 
ATOM     10  C   UNL     1       1.895  -3.524   2.289  0.00  0.00    +0.020 A 
ATOM     11  S   UNL     1       1.179  -3.184   0.690  0.00  0.00    -0.095 S 
BRANCH  10  12
ATOM     12  C   UNL     1       3.223  -4.087   2.615  0.00  0.00    -0.011 A 
ATOM     13  C   UNL     1       3.590  -4.288   3.947  0.00  0.00    +0.012 A 
ATOM     14  C   UNL     1       4.830  -4.813   4.245  0.00  0.00    +0.039 A 
ATOM     15  C   UNL     1       5.710  -5.141   3.226  0.00  0.00    +0.123 A 
ATOM     16  C   UNL     1       5.350  -4.943   1.903  0.00  0.00    +0.039 A 
ATOM     17  C   UNL     1       4.110  -4.424   1.593  0.00  0.00    +0.012 A 
ATOM     18  F   UNL     1       6.924  -5.654   3.524  0.00  0.00    -0.205 F 
ENDBRANCH  10  12
ENDBRANCH   6   7
ENDBRANCH   1   6
BRANCH   1  19
ATOM     19  C   UNL     1      -2.545  -0.076  -0.541  0.00  0.00    +0.020 C 
BRANCH  19  20
ATOM     20  C   UNL     1      -2.591   1.421  -0.374  0.00  0.00    +0.204 C 
ATOM     21  O   UNL     1      -1.790   1.975   0.349  0.00  0.00    -0.277 OA
ATOM     22  N   UNL     1      -3.521   2.144  -1.029  0.00  0.00    -0.242 N 
ATOM     23  C   UNL     1      -3.562   3.482  -0.880  0.00  0.00    +0.303 C 
ATOM     24  O   UNL     1      -2.760   4.038  -0.155  0.00  0.00    -0.253 OA
ATOM     25  N   UNL     1      -4.492   4.205  -1.534  0.00  0.00    -0.313 N 
ATOM     26  H   UNL     1      -4.161   1.700  -1.607  0.00  0.00    +0.159 HD
ATOM     27  H   UNL     1      -5.132   3.762  -2.113  0.00  0.00    +0.146 HD
ATOM     28  H   UNL     1      -4.522   5.169  -1.427  0.00  0.00    +0.146 HD
ENDBRANCH  19  20
ENDBRANCH   1  19
TORSDOF 6
