REMARK  Name = ZINC08816775
REMARK  10 active torsions:
REMARK  status: ('A' for Active; 'I' for Inactive)
REMARK    1  A    between atoms: C_1  and  N_52
REMARK    2  A    between atoms: C_2  and  N_52
REMARK    3  A    between atoms: C_3  and  C_4
REMARK    4  A    between atoms: C_3  and  N_52
REMARK    5  A    between atoms: C_4  and  N_5
REMARK    6  A    between atoms: C_6  and  C_24
REMARK    7  A    between atoms: C_9  and  C_10
REMARK    8  A    between atoms: C_9  and  O_19
REMARK    9  A    between atoms: C_13  and  O_17
REMARK   10  A    between atoms: O_17  and  C_18
REMARK                            x       y       z     vdW  Elec       q    Type
REMARK                         _______ _______ _______ _____ _____    ______ ____
ROOT
ATOM      1  N   UNL     1       0.439   0.669   4.498  0.00  0.00    -0.285 N 
ATOM      2  C   UNL     1       0.998   1.579   5.502  0.00  0.00    +0.144 C 
ATOM      3  C   UNL     1       1.451   0.719   6.659  0.00  0.00    +0.071 C 
ATOM      4  C   UNL     1       2.040   1.149   7.832  0.00  0.00    +0.133 C 
ATOM      5  C   UNL     1       1.153  -0.605   6.303  0.00  0.00    +0.249 C 
ATOM      6  O   UNL     1       1.369  -1.593   6.980  0.00  0.00    -0.282 OA
ATOM      7  C   UNL     1       0.520  -0.591   4.956  0.00  0.00    +0.288 C 
ATOM      8  O   UNL     1       0.136  -1.575   4.358  0.00  0.00    -0.266 OA
ENDROOT
BRANCH   4   9
ATOM      9  C   UNL     1       2.291   0.195   8.923  0.00  0.00    +0.019 A 
ATOM     10  C   UNL     1       1.257  -0.626   9.389  0.00  0.00    +0.015 A 
ATOM     11  C   UNL     1       1.497  -1.521  10.407  0.00  0.00    +0.048 A 
ATOM     12  C   UNL     1       2.761  -1.604  10.979  0.00  0.00    +0.138 A 
ATOM     13  C   UNL     1       3.792  -0.786  10.524  0.00  0.00    +0.083 A 
ATOM     14  C   UNL     1       3.562   0.109   9.502  0.00  0.00    +0.035 A 
ATOM     15 CL   UNL     1       5.367  -0.895  11.244  0.00  0.00    -0.080 Cl
BRANCH  12  16
ATOM     16  O   UNL     1       2.991  -2.484  11.986  0.00  0.00    -0.494 OA
ATOM     17  C   UNL     1       1.890  -3.293  12.405  0.00  0.00    +0.277 C 
ENDBRANCH  12  16
ENDBRANCH   4   9
BRANCH   2  18
ATOM     18  C   UNL     1       2.170   2.328   4.924  0.00  0.00    -0.021 A 
ATOM     19  C   UNL     1       2.346   3.668   5.216  0.00  0.00    +0.006 A 
ATOM     20  C   UNL     1       3.422   4.356   4.687  0.00  0.00    +0.001 A 
ATOM     21  C   UNL     1       4.322   3.704   3.865  0.00  0.00    +0.015 A 
ATOM     22  C   UNL     1       4.147   2.364   3.572  0.00  0.00    +0.018 A 
ATOM     23  C   UNL     1       3.073   1.675   4.107  0.00  0.00    +0.021 A 
ATOM     24 BR   UNL     1       5.378   1.472   2.448  0.00  0.00    -0.050 Br
ENDBRANCH   2  18
BRANCH   4  25
ATOM     25  O   UNL     1       2.386   2.446   7.977  0.00  0.00    -0.506 OA
ATOM     26  H   UNL     1       2.797   2.583   8.879  0.00  0.00    +0.292 HD
ENDBRANCH   4  25
BRANCH   1  27
ATOM     27  C   UNL     1      -0.124   1.070   3.206  0.00  0.00    +0.090 C 
BRANCH  27  28
ATOM     28  C   UNL     1       0.983   1.080   2.149  0.00  0.00    -0.060 C 
BRANCH  28  31
ATOM     29  C   UNL     1       1.390   1.276  -0.230  0.00  0.00    -0.097 C 
ATOM     30  C   UNL     1      -0.042   2.877   0.890  0.00  0.00    -0.097 C 
ATOM     31  N   UNL     1       0.396   1.466   0.848  0.00  0.00    +0.377 N 
ATOM     32  H   UNL     1      -0.418   0.869   0.659  0.00  0.00    -0.083 HD
ENDBRANCH  28  31
ENDBRANCH  27  28
ENDBRANCH   1  27
TORSDOF 7
