REMARK  Name = ZINC39325322
REMARK  7 active torsions:
REMARK  status: ('A' for Active; 'I' for Inactive)
REMARK    1  A    between atoms: C_1  and  C_2
REMARK    2  A    between atoms: C_9  and  C_14
REMARK    3  A    between atoms: C_14  and  N_15
REMARK    4  A    between atoms: N_15  and  C_16
REMARK    5  A    between atoms: N_15  and  S_26
REMARK    6  A    between atoms: C_16  and  C_17
REMARK    7  A    between atoms: S_26  and  C_29
REMARK                            x       y       z     vdW  Elec       q    Type
REMARK                         _______ _______ _______ _____ _____    ______ ____
ROOT
ATOM      1  N   UNL     1      -1.015  -6.410   3.028  0.00  0.00    -0.171 NA
ENDROOT
BRANCH   1   2
ATOM      2  S   UNL     1      -1.657  -7.300   1.787  0.00  0.00    +0.061 S 
ATOM      3  O   UNL     1      -2.157  -8.499   2.364  0.00  0.00    -0.153 OA
ATOM      4  O   UNL     1      -2.478  -6.416   1.036  0.00  0.00    -0.153 OA
BRANCH   2   5
ATOM      5  C   UNL     1      -0.323  -7.765   0.735  0.00  0.00    +0.106 A 
ATOM      6  C   UNL     1      -0.042  -7.019  -0.395  0.00  0.00    +0.030 A 
ATOM      7  C   UNL     1       1.005  -7.384  -1.221  0.00  0.00    +0.022 A 
ATOM      8  C   UNL     1       1.771  -8.495  -0.918  0.00  0.00    +0.041 A 
ATOM      9  C   UNL     1       1.489  -9.241   0.213  0.00  0.00    +0.022 A 
ATOM     10  C   UNL     1       0.446  -8.872   1.041  0.00  0.00    +0.030 A 
ATOM     11 CL   UNL     1       3.085  -8.954  -1.955  0.00  0.00    -0.084 Cl
ENDBRANCH   2   5
ENDBRANCH   1   2
BRANCH   1  12
ATOM     12  C   UNL     1      -1.029  -4.947   2.963  0.00  0.00    +0.126 C 
BRANCH  12  21
ATOM     13  C   UNL     1       1.578   1.458   1.180  0.00  0.00    +0.044 C 
ATOM     14  C   UNL     1       1.582  -0.048   1.165  0.00  0.00    -0.050 A 
ATOM     15  C   UNL     1       2.234  -0.719   0.130  0.00  0.00    +0.005 A 
ATOM     16  C   UNL     1       2.281  -2.074   0.049  0.00  0.00    +0.024 A 
ATOM     17  C   UNL     1       1.660  -2.870   1.030  0.00  0.00    +0.040 A 
ATOM     18  N   UNL     1       1.712  -4.199   0.941  0.00  0.00    -0.284 N 
ATOM     19  C   UNL     1       1.151  -5.004   1.827  0.00  0.00    +0.225 C 
ATOM     20  O   UNL     1       1.232  -6.211   1.693  0.00  0.00    -0.275 OA
ATOM     21  C   UNL     1       0.407  -4.420   3.006  0.00  0.00    +0.114 C 
ATOM     22  C   UNL     1       0.344  -2.909   3.112  0.00  0.00    -0.003 C 
ATOM     23  C   UNL     1       0.964  -2.188   2.135  0.00  0.00    -0.007 A 
ATOM     24  C   UNL     1       0.957  -0.725   2.163  0.00  0.00    +0.012 A 
ATOM     25  H   UNL     1       2.185  -4.593   0.192  0.00  0.00    +0.155 HD
ENDBRANCH  12  21
ENDBRANCH   1  12
BRANCH   1  26
ATOM     26  C   UNL     1      -0.432  -7.087   4.189  0.00  0.00    +0.144 C 
BRANCH  26  27
ATOM     27  C   UNL     1      -1.467  -7.193   5.280  0.00  0.00    -0.028 A 
ATOM     28  C   UNL     1      -1.591  -6.182   6.214  0.00  0.00    +0.009 A 
ATOM     29  C   UNL     1      -2.539  -6.274   7.216  0.00  0.00    +0.050 A 
ATOM     30  C   UNL     1      -3.367  -7.383   7.286  0.00  0.00    +0.166 A 
ATOM     31  C   UNL     1      -3.243  -8.402   6.345  0.00  0.00    +0.167 A 
ATOM     32  C   UNL     1      -2.294  -8.299   5.340  0.00  0.00    +0.054 A 
ATOM     33  O   UNL     1      -4.162  -9.371   6.627  0.00  0.00    -0.453 OA
ATOM     34  C   UNL     1      -4.572  -9.128   7.985  0.00  0.00    +0.466 C 
ATOM     35  O   UNL     1      -4.364  -7.713   8.158  0.00  0.00    -0.453 OA
ENDBRANCH  26  27
ENDBRANCH   1  26
TORSDOF 6
