REMARK  Name = ZINC37042295
REMARK  10 active torsions:
REMARK  status: ('A' for Active; 'I' for Inactive)
REMARK    1  A    between atoms: N_3  and  C_17
REMARK    2  A    between atoms: C_6  and  N_7
REMARK    3  A    between atoms: C_8  and  C_10
REMARK    4  A    between atoms: C_10  and  C_11
REMARK    5  A    between atoms: C_11  and  C_12
REMARK    6  A    between atoms: C_12  and  C_13
REMARK    7  A    between atoms: C_13  and  C_14
REMARK    8  A    between atoms: C_14  and  C_15
REMARK    9  A    between atoms: C_15  and  N_16
REMARK   10  A    between atoms: C_17  and  C_18
REMARK                            x       y       z     vdW  Elec       q    Type
REMARK                         _______ _______ _______ _____ _____    ______ ____
ROOT
ATOM      1  N   UNL     1      -1.370  -0.512  -0.064  0.00  0.00    -0.313 N 
ATOM      2  C   UNL     1      -1.657  -1.741   0.409  0.00  0.00    +0.213 C 
ATOM      3  O   UNL     1      -0.780  -2.426   0.889  0.00  0.00    -0.276 OA
ATOM      4  H   UNL     1      -2.072   0.036  -0.449  0.00  0.00    +0.149 HD
ENDROOT
BRANCH   1  10
ATOM      5  C   UNL     1      -0.019   1.527   0.010  0.00  0.00    +0.003 C 
ATOM      6  C   UNL     1       1.419   2.051  -0.001  0.00  0.00    -0.076 C 
ATOM      7  N   UNL     1       2.107   1.577  -1.207  0.00  0.00    +0.385 N 
ATOM      8  C   UNL     1       2.195   0.112  -1.186  0.00  0.00    -0.076 C 
ATOM      9  C   UNL     1       0.787  -0.487  -1.221  0.00  0.00    +0.003 C 
ATOM     10  C   UNL     1       0.002  -0.004   0.002  0.00  0.00    +0.069 C 
ATOM     11  H   UNL     1       1.594   1.871  -2.024  0.00  0.00    -0.081 HD
BRANCH   7  12
ATOM     12  C   UNL     1       3.461   2.145  -1.252  0.00  0.00    +0.018 C 
BRANCH  12  13
ATOM     13  C   UNL     1       4.125   1.759  -2.548  0.00  0.00    +0.194 C 
ATOM     14  O   UNL     1       3.530   1.077  -3.355  0.00  0.00    -0.278 OA
ATOM     15  N   UNL     1       5.381   2.171  -2.811  0.00  0.00    -0.331 N 
ATOM     16  H   UNL     1       5.858   2.717  -2.166  0.00  0.00    +0.145 HD
ATOM     17  H   UNL     1       5.809   1.922  -3.645  0.00  0.00    +0.145 HD
ENDBRANCH  12  13
ENDBRANCH   7  12
ENDBRANCH   1  10
BRANCH   2  18
ATOM     18  C   UNL     1      -3.069  -2.264   0.340  0.00  0.00    +0.096 C 
BRANCH  18  19
ATOM     19  C   UNL     1      -3.122  -3.671   0.940  0.00  0.00    +0.009 C 
BRANCH  19  20
ATOM     20  C   UNL     1      -4.555  -4.202   0.870  0.00  0.00    +0.000 C 
BRANCH  20  21
ATOM     21  C   UNL     1      -4.607  -5.608   1.470  0.00  0.00    -0.002 C 
BRANCH  21  22
ATOM     22  C   UNL     1      -6.041  -6.139   1.400  0.00  0.00    -0.020 C 
BRANCH  22  23
ATOM     23  C   UNL     1      -6.093  -7.546   2.000  0.00  0.00    -0.086 C 
BRANCH  23  24
ATOM     24  N   UNL     1      -7.470  -8.055   1.933  0.00  0.00    +0.378 N 
ATOM     25  H   UNL     1      -8.080  -7.444   2.455  0.00  0.00    -0.090 HD
ATOM     26  H   UNL     1      -7.770  -8.088   0.970  0.00  0.00    -0.090 HD
ATOM     27  H   UNL     1      -7.504  -8.983   2.328  0.00  0.00    -0.090 HD
ENDBRANCH  23  24
ENDBRANCH  22  23
ENDBRANCH  21  22
ENDBRANCH  20  21
ENDBRANCH  19  20
ENDBRANCH  18  19
ENDBRANCH   2  18
TORSDOF 10
