REMARK  Name = ZINC07738121
REMARK  11 active torsions:
REMARK  status: ('A' for Active; 'I' for Inactive)
REMARK    1  A    between atoms: C_1  and  N_2
REMARK    2  A    between atoms: C_3  and  N_30
REMARK    3  A    between atoms: C_4  and  C_11
REMARK    4  A    between atoms: N_7  and  C_10
REMARK    5  A    between atoms: C_11  and  C_13
REMARK    6  A    between atoms: C_13  and  N_53
REMARK    7  A    between atoms: C_14  and  C_16
REMARK    8  A    between atoms: C_14  and  C_22
REMARK    9  A    between atoms: C_14  and  N_53
REMARK   10  A    between atoms: C_25  and  O_28
REMARK   11  A    between atoms: O_28  and  C_29
REMARK                            x       y       z     vdW  Elec       q    Type
REMARK                         _______ _______ _______ _____ _____    ______ ____
ROOT
ATOM      1  N   UNL     1       0.004   0.954  -0.021  0.00  0.00    +0.391 N 
ATOM      2  H   UNL     1       0.034  -0.071  -0.083  0.00  0.00    -0.084 HD
ATOM      3  H   UNL     1      -0.442   1.231   0.860  0.00  0.00    -0.084 HD
ENDROOT
BRANCH   1   4
ATOM      4  C   UNL     1      -0.778   1.487  -1.152  0.00  0.00    -0.000 C 
BRANCH   4   5
ATOM      5  C   UNL     1      -2.178   0.931  -1.090  0.00  0.00    +0.155 C 
ATOM      6  O   UNL     1      -2.489   0.170  -0.196  0.00  0.00    -0.294 OA
BRANCH   5  10
ATOM      7  C   UNL     1      -6.613   0.473  -3.112  0.00  0.00    +0.155 C 
ATOM      8  N   UNL     1      -5.283   1.086  -3.070  0.00  0.00    -0.284 N 
ATOM      9  C   UNL     1      -4.398   0.697  -2.106  0.00  0.00    +0.116 A 
ATOM     10  C   UNL     1      -3.126   1.294  -2.070  0.00  0.00    +0.118 A 
ATOM     11  C   UNL     1      -2.813   2.304  -3.089  0.00  0.00    +0.269 A 
ATOM     12  O   UNL     1      -1.725   2.850  -3.110  0.00  0.00    -0.267 OA
ATOM     13  N   UNL     1      -3.756   2.614  -4.002  0.00  0.00    -0.263 N 
ATOM     14  C   UNL     1      -4.957   2.014  -3.983  0.00  0.00    +0.333 A 
ATOM     15  O   UNL     1      -5.779   2.321  -4.824  0.00  0.00    -0.246 OA
ATOM     16  C   UNL     1      -3.467   3.619  -5.028  0.00  0.00    +0.157 C 
BRANCH   9  17
ATOM     17  N   UNL     1      -4.743  -0.249  -1.191  0.00  0.00    -0.344 N 
ATOM     18  H   UNL     1      -4.141  -0.459  -0.460  0.00  0.00    +0.144 HD
ATOM     19  H   UNL     1      -5.591  -0.714  -1.270  0.00  0.00    +0.144 HD
ENDBRANCH   9  17
ENDBRANCH   5  10
ENDBRANCH   4   5
ENDBRANCH   1   4
BRANCH   1  20
ATOM     20  C   UNL     1       1.381   1.482  -0.057  0.00  0.00    -0.009 C 
BRANCH  20  21
ATOM     21  C   UNL     1       2.225   0.626  -0.966  0.00  0.00    -0.057 A 
ATOM     22  C   UNL     1       2.073  -0.748  -0.959  0.00  0.00    +0.002 A 
ATOM     23  C   UNL     1       2.844  -1.533  -1.795  0.00  0.00    +0.000 A 
ATOM     24  C   UNL     1       3.775  -0.945  -2.632  0.00  0.00    +0.000 A 
ATOM     25  C   UNL     1       3.931   0.428  -2.635  0.00  0.00    +0.000 A 
ATOM     26  C   UNL     1       3.156   1.214  -1.801  0.00  0.00    +0.002 A 
ENDBRANCH  20  21
BRANCH  20  27
ATOM     27  C   UNL     1       1.957   1.457   1.335  0.00  0.00    -0.057 A 
ATOM     28  C   UNL     1       1.698   0.386   2.170  0.00  0.00    +0.006 A 
ATOM     29  C   UNL     1       2.229   0.358   3.445  0.00  0.00    +0.046 A 
ATOM     30  C   UNL     1       3.014   1.411   3.891  0.00  0.00    +0.120 A 
ATOM     31  C   UNL     1       3.267   2.488   3.054  0.00  0.00    +0.046 A 
ATOM     32  C   UNL     1       2.739   2.508   1.778  0.00  0.00    +0.006 A 
BRANCH  30  33
ATOM     33  O   UNL     1       3.532   1.389   5.147  0.00  0.00    -0.495 OA
ATOM     34  C   UNL     1       3.230   0.249   5.954  0.00  0.00    +0.277 C 
ENDBRANCH  30  33
ENDBRANCH  20  27
ENDBRANCH   1  20
TORSDOF 8
