REMARK  Name = ZINC61595080
REMARK  10 active torsions:
REMARK  status: ('A' for Active; 'I' for Inactive)
REMARK    1  A    between atoms: C_1  and  C_2
REMARK    2  A    between atoms: C_2  and  C_4
REMARK    3  A    between atoms: C_2  and  N_23
REMARK    4  A    between atoms: C_4  and  C_6
REMARK    5  A    between atoms: C_4  and  S_12
REMARK    6  A    between atoms: N_9  and  C_11
REMARK    7  A    between atoms: S_12  and  C_13
REMARK    8  A    between atoms: N_19  and  C_20
REMARK    9  A    between atoms: C_20  and  C_21
REMARK   10  A    between atoms: C_20  and  C_22
REMARK                            x       y       z     vdW  Elec       q    Type
REMARK                         _______ _______ _______ _____ _____    ______ ____
ROOT
ATOM      1  C   UNL     1       0.720  -0.459   1.347  0.00  0.00    +0.072 C 
ENDROOT
BRANCH   1   2
ATOM      2  C   UNL     1      -0.181  -0.163   2.518  0.00  0.00    +0.002 A 
ATOM      3  C   UNL     1      -1.499  -0.606   2.676  0.00  0.00    +0.139 A 
ATOM      4  N   UNL     1      -1.950  -0.147   3.815  0.00  0.00    -0.180 NA
ATOM      5  N   UNL     1      -0.933   0.603   4.419  0.00  0.00    -0.274 N 
ATOM      6  C   UNL     1       0.144   0.573   3.607  0.00  0.00    +0.112 A 
ATOM      7  C   UNL     1      -1.021   1.292   5.709  0.00  0.00    +0.172 C 
ENDBRANCH   1   2
BRANCH   1   9
ATOM      8  C   UNL     1      -1.155  -0.225  -0.288  0.00  0.00    -0.013 C 
ATOM      9  C   UNL     1       0.224   0.302   0.117  0.00  0.00    -0.060 C 
BRANCH   9  10
ATOM     10  N   UNL     1       0.127   1.733   0.433  0.00  0.00    +0.381 N 
ATOM     11  H   UNL     1      -0.482   1.862   1.227  0.00  0.00    -0.090 HD
ATOM     12  H   UNL     1       1.044   2.093   0.650  0.00  0.00    -0.090 HD
ATOM     13  H   UNL     1      -0.249   2.229  -0.362  0.00  0.00    -0.090 HD
ENDBRANCH   9  10
ENDBRANCH   1   9
BRANCH   1  14
ATOM     14  S   UNL     1       0.700  -2.241   1.005  0.00  0.00    -0.079 S 
BRANCH  14  15
ATOM     15  C   UNL     1       1.942  -2.451  -0.227  0.00  0.00    +0.193 A 
ATOM     16  N   UNL     1       2.740  -1.522  -0.668  0.00  0.00    -0.145 NA
ATOM     17  N   UNL     1       3.576  -2.092  -1.638  0.00  0.00    -0.226 N 
ATOM     18  H   UNL     1       4.271  -1.635  -2.138  0.00  0.00    +0.194 HD
ATOM     19  C   UNL     1       3.237  -3.393  -1.749  0.00  0.00    +0.345 A 
ATOM     20  O   UNL     1       3.749  -4.208  -2.496  0.00  0.00    -0.245 OA
ATOM     21  N   UNL     1       2.235  -3.628  -0.879  0.00  0.00    -0.268 N 
BRANCH  21  22
ATOM     22  C   UNL     1       1.567  -4.915  -0.667  0.00  0.00    +0.088 C 
ATOM     23  C   UNL     1       0.929  -5.380  -1.978  0.00  0.00    +0.031 C 
ATOM     24  C   UNL     1       2.593  -5.951  -0.203  0.00  0.00    +0.031 C 
ENDBRANCH  21  22
ENDBRANCH  14  15
ENDBRANCH   1  14
TORSDOF 6
