REMARK  Name = ZINC40320482
REMARK  3 active torsions:
REMARK  status: ('A' for Active; 'I' for Inactive)
REMARK    1  A    between atoms: C_2  and  N_22
REMARK    2  A    between atoms: C_6  and  S_7
REMARK    3  A    between atoms: S_7  and  N_10
REMARK                            x       y       z     vdW  Elec       q    Type
REMARK                         _______ _______ _______ _____ _____    ______ ____
ROOT
ATOM      1  S   UNL     1      -1.512  -0.904   0.012  0.00  0.00    +0.062 S 
ATOM      2  O   UNL     1      -1.284  -1.957   0.939  0.00  0.00    -0.153 OA
ATOM      3  O   UNL     1      -2.594   0.007   0.146  0.00  0.00    -0.153 OA
ENDROOT
BRANCH   1   4
ATOM      4  N   UNL     1      -1.671  -1.612  -1.477  0.00  0.00    -0.180 NA
ATOM      5  C   UNL     1      -2.251  -0.858  -2.596  0.00  0.00    +0.091 C 
ATOM      6  C   UNL     1      -1.388  -1.045  -3.856  0.00  0.00    -0.061 C 
ATOM      7  N   UNL     1      -1.196  -2.475  -4.056  0.00  0.00    +0.383 N 
ATOM      8  C   UNL     1      -0.489  -2.854  -5.281  0.00  0.00    -0.078 C 
ATOM      9  C   UNL     1       0.265  -4.164  -4.950  0.00  0.00    -0.020 C 
ATOM     10  C   UNL     1      -0.003  -4.411  -3.440  0.00  0.00    -0.016 C 
ATOM     11  C   UNL     1      -0.359  -2.999  -2.943  0.00  0.00    -0.053 C 
ATOM     12  C   UNL     1      -1.225  -3.003  -1.692  0.00  0.00    +0.094 C 
ATOM     13  H   UNL     1      -2.093  -2.937  -4.043  0.00  0.00    -0.081 HD
ENDBRANCH   1   4
BRANCH   1  19
ATOM     14  C   UNL     1      -0.118   1.441   0.047  0.00  0.00    +0.055 A 
ATOM     15  C   UNL     1       1.041   2.203   0.018  0.00  0.00    +0.062 A 
ATOM     16  C   UNL     1       2.279   1.577  -0.084  0.00  0.00    +0.145 A 
ATOM     17  C   UNL     1       2.351   0.198  -0.156  0.00  0.00    +0.062 A 
ATOM     18  C   UNL     1       1.192  -0.558  -0.127  0.00  0.00    +0.070 A 
ATOM     19  C   UNL     1      -0.040   0.063  -0.025  0.00  0.00    +0.126 A 
ATOM     20 CL   UNL     1       1.285  -2.289  -0.219  0.00  0.00    -0.081 Cl
ATOM     21  F   UNL     1       3.410   2.316  -0.113  0.00  0.00    -0.204 F 
BRANCH  15  22
ATOM     22  N   UNL     1       0.965   3.598   0.090  0.00  0.00    -0.356 N 
ATOM     23  H   UNL     1       0.101   4.034   0.161  0.00  0.00    +0.142 HD
ATOM     24  H   UNL     1       1.776   4.130   0.070  0.00  0.00    +0.142 HD
ENDBRANCH  15  22
ENDBRANCH   1  19
TORSDOF 3
