REMARK  Name = ZINC34999872
REMARK  10 active torsions:
REMARK  status: ('A' for Active; 'I' for Inactive)
REMARK    1  A    between atoms: C_1  and  C_2
REMARK    2  A    between atoms: C_9  and  C_11
REMARK    3  A    between atoms: C_11  and  C_12
REMARK    4  A    between atoms: C_12  and  C_13
REMARK    5  A    between atoms: C_18  and  C_20
REMARK    6  A    between atoms: C_20  and  C_22
REMARK    7  A    between atoms: C_20  and  N_25
REMARK    8  A    between atoms: C_22  and  C_23
REMARK    9  A    between atoms: C_22  and  C_24
REMARK   10  A    between atoms: N_28  and  C_29
REMARK                            x       y       z     vdW  Elec       q    Type
REMARK                         _______ _______ _______ _____ _____    ______ ____
ROOT
ATOM      1  C   UNL     1      -1.403   1.198  -0.189  0.00  0.00    +0.029 C 
ATOM      2  C   UNL     1      -1.214  -0.320  -0.221  0.00  0.00    +0.090 C 
ATOM      3  C   UNL     1      -0.027  -0.673  -1.125  0.00  0.00    +0.130 C 
ATOM      4  N   UNL     1       0.299  -2.094  -0.940  0.00  0.00    -0.297 N 
ATOM      5  C   UNL     1       0.580  -2.585   0.416  0.00  0.00    +0.127 C 
ATOM      6  C   UNL     1      -0.607  -2.232   1.321  0.00  0.00    +0.127 C 
ATOM      7  N   UNL     1      -0.937  -0.812   1.136  0.00  0.00    -0.296 N 
ATOM      8  C   UNL     1      -0.980   0.026   2.191  0.00  0.00    +0.216 C 
ATOM      9  O   UNL     1      -1.361   1.168   2.044  0.00  0.00    -0.276 OA
ATOM     10  C   UNL     1       0.340  -2.932  -1.995  0.00  0.00    +0.236 C 
ATOM     11  O   UNL     1       0.203  -2.498  -3.119  0.00  0.00    -0.274 OA
ENDROOT
BRANCH   8  12
ATOM     12  C   UNL     1      -0.555  -0.457   3.554  0.00  0.00    +0.096 C 
BRANCH  12  13
ATOM     13  C   UNL     1      -0.699   0.682   4.566  0.00  0.00    +0.013 C 
BRANCH  13  14
ATOM     14  C   UNL     1      -0.267   0.192   5.950  0.00  0.00    -0.011 C 
ATOM     15  C   UNL     1      -1.268  -0.858   6.475  0.00  0.00    +0.003 C 
ATOM     16  C   UNL     1      -1.359  -0.568   7.994  0.00  0.00    +0.000 C 
ATOM     17  C   UNL     1      -1.301   0.978   8.052  0.00  0.00    +0.000 C 
ATOM     18  C   UNL     1      -0.288   1.360   6.952  0.00  0.00    +0.003 C 
ENDBRANCH  13  14
ENDBRANCH  12  13
ENDBRANCH   8  12
BRANCH  10  19
ATOM     19  C   UNL     1       0.555  -4.407  -1.777  0.00  0.00    +0.163 C 
BRANCH  19  20
ATOM     20  N   UNL     1       1.335  -4.956  -2.889  0.00  0.00    -0.288 N 
ATOM     21  C   UNL     1       2.072  -6.071  -2.710  0.00  0.00    +0.305 C 
ATOM     22  O   UNL     1       2.089  -6.620  -1.625  0.00  0.00    -0.252 OA
ATOM     23  N   UNL     1       2.789  -6.576  -3.733  0.00  0.00    -0.268 N 
ATOM     24  H   UNL     1       1.321  -4.518  -3.754  0.00  0.00    +0.151 HD
ATOM     25  H   UNL     1       2.800  -6.120  -4.589  0.00  0.00    +0.156 HD
BRANCH  23  26
ATOM     26  C   UNL     1       3.520  -7.758  -3.559  0.00  0.00    +0.055 A 
ATOM     27  C   UNL     1       4.019  -8.089  -2.307  0.00  0.00    +0.025 A 
ATOM     28  C   UNL     1       4.739  -9.256  -2.138  0.00  0.00    +0.003 A 
ATOM     29  C   UNL     1       4.963 -10.094  -3.214  0.00  0.00    +0.021 A 
ATOM     30  C   UNL     1       4.467  -9.768  -4.464  0.00  0.00    +0.061 A 
ATOM     31  C   UNL     1       3.741  -8.604  -4.638  0.00  0.00    +0.080 A 
ATOM     32 CL   UNL     1       3.113  -8.197  -6.205  0.00  0.00    -0.080 Cl
ATOM     33 CL   UNL     1       4.752 -10.823  -5.813  0.00  0.00    -0.082 Cl
ENDBRANCH  23  26
ENDBRANCH  19  20
BRANCH  19  34
ATOM     34  C   UNL     1      -0.800  -5.115  -1.706  0.00  0.00    +0.012 C 
ATOM     35  C   UNL     1      -0.586  -6.594  -1.376  0.00  0.00    +0.009 C 
ATOM     36  C   UNL     1      -1.657  -4.468  -0.617  0.00  0.00    +0.009 C 
ENDBRANCH  19  34
ENDBRANCH  10  19
TORSDOF 7
