REMARK  Name = ZINC12572823
REMARK  13 active torsions:
REMARK  status: ('A' for Active; 'I' for Inactive)
REMARK    1  A    between atoms: C_1  and  O_2
REMARK    2  A    between atoms: O_2  and  C_3
REMARK    3  A    between atoms: C_5  and  C_19
REMARK    4  A    between atoms: C_8  and  N_9
REMARK    5  A    between atoms: N_9  and  C_10
REMARK    6  A    between atoms: C_10  and  N_12
REMARK    7  A    between atoms: N_12  and  C_13
REMARK    8  A    between atoms: C_22  and  N_27
REMARK    9  A    between atoms: C_23  and  O_25
REMARK   10  A    between atoms: O_25  and  C_26
REMARK   11  A    between atoms: N_27  and  C_28
REMARK   12  A    between atoms: C_28  and  N_30
REMARK   13  A    between atoms: N_30  and  C_31
REMARK                            x       y       z     vdW  Elec       q    Type
REMARK                         _______ _______ _______ _____ _____    ______ ____
ROOT
ATOM      1  C   UNL     1      -1.294  -1.936   0.241  0.00  0.00    +0.142 A 
ATOM      2  C   UNL     1      -2.492  -2.612   0.381  0.00  0.00    +0.056 A 
ATOM      3  C   UNL     1      -3.695  -1.950   0.143  0.00  0.00    -0.014 A 
ATOM      4  C   UNL     1      -3.688  -0.609  -0.235  0.00  0.00    +0.010 A 
ATOM      5  C   UNL     1      -2.491   0.065  -0.368  0.00  0.00    +0.027 A 
ATOM      6  C   UNL     1      -1.292  -0.594  -0.137  0.00  0.00    +0.075 A 
ENDROOT
BRANCH   3   7
ATOM      7  C   UNL     1      -4.982  -2.673   0.291  0.00  0.00    -0.014 A 
ATOM      8  C   UNL     1      -4.989  -4.015   0.669  0.00  0.00    +0.010 A 
ATOM      9  C   UNL     1      -6.186  -4.687   0.807  0.00  0.00    +0.027 A 
ATOM     10  C   UNL     1      -7.385  -4.030   0.571  0.00  0.00    +0.075 A 
ATOM     11  C   UNL     1      -7.383  -2.688   0.193  0.00  0.00    +0.142 A 
ATOM     12  C   UNL     1      -6.186  -2.010   0.059  0.00  0.00    +0.056 A 
BRANCH  11  13
ATOM     13  O   UNL     1      -8.559  -2.045  -0.038  0.00  0.00    -0.493 OA
ATOM     14  C   UNL     1      -8.482  -0.670  -0.422  0.00  0.00    +0.277 C 
ENDBRANCH  11  13
BRANCH  10  15
ATOM     15  N   UNL     1      -8.598  -4.715   0.711  0.00  0.00    -0.294 N 
ATOM     16  H   UNL     1      -9.366  -4.268   1.101  0.00  0.00    +0.154 HD
BRANCH  15  17
ATOM     17  C   UNL     1      -8.699  -5.996   0.305  0.00  0.00    +0.135 C 
ATOM     18  S   UNL     1      -7.368  -6.762  -0.452  0.00  0.00    -0.019 S 
BRANCH  17  19
ATOM     19  N   UNL     1      -9.849  -6.674   0.494  0.00  0.00    -0.323 N 
ATOM     20  H   UNL     1     -10.603  -6.240   0.922  0.00  0.00    +0.148 HD
BRANCH  19  21
ATOM     21  C   UNL     1      -9.959  -8.067   0.052  0.00  0.00    +0.072 C 
ATOM     22  C   UNL     1     -10.352  -8.103  -1.426  0.00  0.00    +0.022 C 
ATOM     23  C   UNL     1     -10.466  -9.557  -1.888  0.00  0.00    +0.002 C 
ATOM     24  C   UNL     1     -11.535 -10.273  -1.058  0.00  0.00    +0.000 C 
ATOM     25  C   UNL     1     -11.142 -10.236   0.420  0.00  0.00    +0.002 C 
ATOM     26  C   UNL     1     -11.027  -8.782   0.881  0.00  0.00    +0.022 C 
ENDBRANCH  19  21
ENDBRANCH  17  19
ENDBRANCH  15  17
ENDBRANCH  10  15
ENDBRANCH   3   7
BRANCH   1  28
ATOM     27  C   UNL     1      -0.195  -3.953   0.857  0.00  0.00    +0.277 C 
ATOM     28  O   UNL     1      -0.118  -2.579   0.473  0.00  0.00    -0.493 OA
ENDBRANCH   1  28
BRANCH   6  29
ATOM     29  N   UNL     1      -0.079   0.091  -0.278  0.00  0.00    -0.294 N 
ATOM     30  H   UNL     1       0.646  -0.073   0.344  0.00  0.00    +0.154 HD
BRANCH  29  31
ATOM     31  C   UNL     1       0.081   0.979  -1.280  0.00  0.00    +0.135 C 
ATOM     32  S   UNL     1      -1.169   1.211  -2.426  0.00  0.00    -0.019 S 
BRANCH  31  33
ATOM     33  N   UNL     1       1.227   1.681  -1.381  0.00  0.00    -0.323 N 
ATOM     34  H   UNL     1       1.937   1.547  -0.734  0.00  0.00    +0.148 HD
BRANCH  33  35
ATOM     35  C   UNL     1       1.401   2.646  -2.470  0.00  0.00    +0.072 C 
ATOM     36  C   UNL     1       1.905   1.921  -3.719  0.00  0.00    +0.022 C 
ATOM     37  C   UNL     1       2.087   2.929  -4.856  0.00  0.00    +0.002 C 
ATOM     38  C   UNL     1       3.104   3.992  -4.437  0.00  0.00    +0.000 C 
ATOM     39  C   UNL     1       2.600   4.717  -3.188  0.00  0.00    +0.002 C 
ATOM     40  C   UNL     1       2.418   3.709  -2.051  0.00  0.00    +0.022 C 
ENDBRANCH  33  35
ENDBRANCH  31  33
ENDBRANCH  29  31
ENDBRANCH   6  29
TORSDOF 11
