REMARK  Name = ZINC49514627
REMARK  8 active torsions:
REMARK  status: ('A' for Active; 'I' for Inactive)
REMARK    1  A    between atoms: C_1  and  C_2
REMARK    2  A    between atoms: C_2  and  C_4
REMARK    3  A    between atoms: C_2  and  N_11
REMARK    4  A    between atoms: N_11  and  C_12
REMARK    5  A    between atoms: C_12  and  C_14
REMARK    6  A    between atoms: C_12  and  C_15
REMARK    7  A    between atoms: C_18  and  O_22
REMARK    8  A    between atoms: C_20  and  O_21
REMARK                            x       y       z     vdW  Elec       q    Type
REMARK                         _______ _______ _______ _____ _____    ______ ____
ROOT
ATOM      1  N   UNL     1       0.713  -0.491   1.192  0.00  0.00    +0.388 N 
ATOM      2  H   UNL     1       0.798  -1.495   1.145  0.00  0.00    -0.084 HD
ATOM      3  H   UNL     1       1.632  -0.076   1.228  0.00  0.00    -0.084 HD
ENDROOT
BRANCH   1   5
ATOM      4  C   UNL     1      -0.019   1.526   0.010  0.00  0.00    -0.009 C 
ATOM      5  C   UNL     1       0.002  -0.004   0.002  0.00  0.00    -0.043 C 
BRANCH   5   6
ATOM      6  C   UNL     1       0.707  -0.490  -1.238  0.00  0.00    -0.062 A 
ATOM      7  C   UNL     1       2.089  -0.511  -1.284  0.00  0.00    +0.003 A 
ATOM      8  C   UNL     1       2.736  -0.957  -2.421  0.00  0.00    +0.015 A 
ATOM      9  C   UNL     1       2.002  -1.383  -3.512  0.00  0.00    +0.018 A 
ATOM     10  C   UNL     1       0.619  -1.362  -3.466  0.00  0.00    +0.015 A 
ATOM     11  C   UNL     1      -0.027  -0.920  -2.327  0.00  0.00    +0.003 A 
ATOM     12 BR   UNL     1       2.887  -1.992  -5.068  0.00  0.00    -0.050 Br
ENDBRANCH   5   6
ENDBRANCH   1   5
BRANCH   1  13
ATOM     13  C   UNL     1      -0.040  -0.119   2.398  0.00  0.00    -0.040 C 
ATOM     14  C   UNL     1      -1.385  -0.847   2.404  0.00  0.00    -0.009 C 
BRANCH  13  15
ATOM     15  C   UNL     1       0.748  -0.509   3.622  0.00  0.00    -0.020 A 
ATOM     16  C   UNL     1       1.750  -1.456   3.525  0.00  0.00    +0.009 A 
ATOM     17  C   UNL     1       2.474  -1.815   4.645  0.00  0.00    +0.046 A 
ATOM     18  C   UNL     1       2.196  -1.227   5.871  0.00  0.00    +0.120 A 
ATOM     19  C   UNL     1       1.192  -0.277   5.971  0.00  0.00    +0.091 A 
ATOM     20  C   UNL     1       0.470   0.086   4.844  0.00  0.00    +0.122 A 
BRANCH  20  21
ATOM     21  O   UNL     1      -0.511   1.022   4.937  0.00  0.00    -0.506 OA
ATOM     22  H   UNL     1      -1.384   0.657   5.140  0.00  0.00    +0.292 HD
ENDBRANCH  20  21
BRANCH  18  23
ATOM     23  O   UNL     1       2.908  -1.581   6.973  0.00  0.00    -0.507 OA
ATOM     24  H   UNL     1       3.701  -1.046   7.118  0.00  0.00    +0.292 HD
ENDBRANCH  18  23
ENDBRANCH  13  15
ENDBRANCH   1  13
TORSDOF 6
