REMARK  Name = ZINC27520958
REMARK  9 active torsions:
REMARK  status: ('A' for Active; 'I' for Inactive)
REMARK    1  A    between atoms: C_1  and  C_2
REMARK    2  A    between atoms: C_2  and  O_3
REMARK    3  A    between atoms: O_3  and  C_4
REMARK    4  A    between atoms: C_4  and  C_6
REMARK    5  A    between atoms: C_10  and  N_11
REMARK    6  A    between atoms: C_13  and  C_24
REMARK    7  A    between atoms: C_19  and  O_22
REMARK    8  A    between atoms: O_22  and  C_23
REMARK    9  A    between atoms: N_26  and  C_27
REMARK                            x       y       z     vdW  Elec       q    Type
REMARK                         _______ _______ _______ _____ _____    ______ ____
ROOT
ATOM      1  N   UNL     1      -2.355  -0.298  -3.742  0.00  0.00    -0.319 N 
ATOM      2  C   UNL     1      -3.311  -0.864  -4.456  0.00  0.00    +0.212 A 
ATOM      3  C   UNL     1      -3.885  -2.163  -4.061  0.00  0.00    +0.098 A 
ATOM      4  C   UNL     1      -5.190  -2.427  -4.461  0.00  0.00    +0.030 A 
ATOM      5  C   UNL     1      -5.877  -1.392  -5.237  0.00  0.00    +0.022 A 
ATOM      6  C   UNL     1      -7.260  -1.455  -5.450  0.00  0.00    +0.012 A 
ATOM      7  C   UNL     1      -7.881  -0.476  -6.173  0.00  0.00    +0.004 A 
ATOM      8  C   UNL     1      -7.154   0.582  -6.699  0.00  0.00    +0.049 A 
ATOM      9  C   UNL     1      -5.787   0.664  -6.503  0.00  0.00    +0.163 A 
ATOM     10  C   UNL     1      -5.134  -0.324  -5.772  0.00  0.00    +0.179 A 
ATOM     11  O   UNL     1      -3.798  -0.265  -5.571  0.00  0.00    -0.435 OA
ATOM     12  H   UNL     1      -1.975  -0.796  -2.838  0.00  0.00    +0.169 HD
ENDROOT
BRANCH   1  17
ATOM     13  C   UNL     1      -0.838   1.651  -3.510  0.00  0.00    +0.093 A 
ATOM     14  C   UNL     1      -0.479   2.913  -4.133  0.00  0.00    -0.021 A 
ATOM     15  C   UNL     1      -1.149   3.237  -5.262  0.00  0.00    -0.004 A 
ATOM     16  S   UNL     1      -2.277   1.897  -5.528  0.00  0.00    -0.075 S 
ATOM     17  C   UNL     1      -1.845   0.890  -4.121  0.00  0.00    +0.095 A 
ATOM     18  C   UNL     1      -0.974   4.467  -6.098  0.00  0.00    +0.043 C 
ATOM     19  C   UNL     1      -0.184   5.501  -5.279  0.00  0.00    +0.005 C 
ATOM     20  C   UNL     1       1.038   4.806  -4.672  0.00  0.00    +0.005 C 
ATOM     21  C   UNL     1       0.594   3.841  -3.572  0.00  0.00    +0.037 C 
BRANCH  13  22
ATOM     22  C   UNL     1      -0.198   1.208  -2.325  0.00  0.00    +0.342 C 
ATOM     23  O   UNL     1       0.804   0.520  -2.395  0.00  0.00    -0.245 OA
BRANCH  22  24
ATOM     24  O   UNL     1      -0.700   1.548  -1.119  0.00  0.00    -0.461 OA
BRANCH  24  26
ATOM     25  C   UNL     1      -0.715   1.551   1.297  0.00  0.00    +0.048 C 
ATOM     26  C   UNL     1      -0.004   1.067   0.032  0.00  0.00    +0.229 C 
ENDBRANCH  24  26
ENDBRANCH  22  24
ENDBRANCH  13  22
ENDBRANCH   1  17
BRANCH   3  27
ATOM     27  C   UNL     1      -3.109  -3.140  -3.278  0.00  0.00    +0.253 C 
ATOM     28  O   UNL     1      -1.969  -2.882  -2.942  0.00  0.00    -0.270 OA
ATOM     29  N   UNL     1      -3.663  -4.319  -2.933  0.00  0.00    -0.279 N 
ATOM     30  H   UNL     1      -4.717  -4.523  -3.172  0.00  0.00    +0.155 HD
BRANCH  29  31
ATOM     31  C   UNL     1      -2.896  -5.285  -2.270  0.00  0.00    +0.069 A 
ATOM     32  C   UNL     1      -1.922  -4.896  -1.361  0.00  0.00    +0.026 A 
ATOM     33  C   UNL     1      -1.167  -5.852  -0.708  0.00  0.00    +0.002 A 
ATOM     34  C   UNL     1      -1.381  -7.195  -0.958  0.00  0.00    +0.003 A 
ATOM     35  C   UNL     1      -2.350  -7.587  -1.863  0.00  0.00    +0.040 A 
ATOM     36  C   UNL     1      -3.113  -6.636  -2.516  0.00  0.00    +0.144 A 
ATOM     37  F   UNL     1      -4.064  -7.020  -3.396  0.00  0.00    -0.204 F 
ENDBRANCH  29  31
ENDBRANCH   3  27
BRANCH   9  38
ATOM     38  O   UNL     1      -5.083   1.705  -7.024  0.00  0.00    -0.491 OA
ATOM     39  C   UNL     1      -5.821   2.681  -7.764  0.00  0.00    +0.277 C 
ENDBRANCH   9  38
TORSDOF 7
