REMARK  Name = ZINC39580711
REMARK  8 active torsions:
REMARK  status: ('A' for Active; 'I' for Inactive)
REMARK    1  A    between atoms: C_1  and  C_2
REMARK    2  A    between atoms: C_5  and  O_32
REMARK    3  A    between atoms: C_16  and  O_31
REMARK    4  A    between atoms: C_19  and  C_30
REMARK    5  A    between atoms: C_24  and  C_25
REMARK    6  A    between atoms: C_24  and  O_29
REMARK    7  A    between atoms: C_25  and  C_27
REMARK    8  A    between atoms: C_27  and  O_28
REMARK                            x       y       z     vdW  Elec       q    Type
REMARK                         _______ _______ _______ _____ _____    ______ ____
ROOT
ATOM      1  C   UNL     1       0.540   1.674   0.255  0.00  0.00    +0.012 C 
ATOM      2  C   UNL     1       0.407   0.154   0.234  0.00  0.00    -0.024 C 
ATOM      3  C   UNL     1      -1.037  -0.211   0.615  0.00  0.00    +0.010 C 
ATOM      4  C   UNL     1      -1.386   0.291   2.015  0.00  0.00    +0.032 C 
ATOM      5  C   UNL     1      -0.430  -0.279   3.059  0.00  0.00    +0.115 C 
ATOM      6  C   UNL     1       1.010   0.080   2.688  0.00  0.00    +0.035 C 
ATOM      7  C   UNL     1       1.327  -0.459   1.300  0.00  0.00    -0.002 C 
ATOM      8  C   UNL     1       2.791  -0.204   0.952  0.00  0.00    +0.004 C 
ATOM      9  C   UNL     1       3.109  -0.935  -0.355  0.00  0.00    +0.004 C 
ATOM     10  C   UNL     1       2.234  -0.383  -1.478  0.00  0.00    -0.001 C 
ATOM     11  C   UNL     1       0.757  -0.446  -1.115  0.00  0.00    +0.027 C 
ATOM     12  C   UNL     1      -0.055   0.032  -2.304  0.00  0.00    +0.119 C 
ATOM     13  C   UNL     1       0.335   1.412  -2.791  0.00  0.00    +0.041 C 
ATOM     14  C   UNL     1       1.817   1.624  -2.978  0.00  0.00    +0.009 C 
ATOM     15  C   UNL     1       2.698   1.009  -1.886  0.00  0.00    +0.002 C 
ATOM     16  C   UNL     1       4.075   0.840  -2.595  0.00  0.00    +0.008 C 
ATOM     17  C   UNL     1       3.722   0.493  -4.054  0.00  0.00    +0.043 C 
ATOM     18  C   UNL     1       2.326   1.085  -4.320  0.00  0.00    +0.131 C 
ATOM     19  C   UNL     1       2.064   3.147  -2.975  0.00  0.00    +0.015 C 
ENDROOT
BRANCH  18  20
ATOM     20  C   UNL     1       2.434   2.217  -5.315  0.00  0.00    +0.190 C 
ATOM     21  O   UNL     1       3.470   2.828  -5.426  0.00  0.00    -0.292 OA
BRANCH  20  22
ATOM     22  C   UNL     1       1.248   2.585  -6.170  0.00  0.00    +0.233 C 
BRANCH  22  23
ATOM     23  O   UNL     1       1.596   3.677  -7.023  0.00  0.00    -0.387 OA
ATOM     24  H   UNL     1       0.879   3.968  -7.603  0.00  0.00    +0.210 HD
ENDBRANCH  22  23
ENDBRANCH  20  22
ENDBRANCH  18  20
BRANCH  18  25
ATOM     25  O   UNL     1       1.453   0.079  -4.832  0.00  0.00    -0.380 OA
ATOM     26  H   UNL     1       1.734  -0.292  -5.680  0.00  0.00    +0.211 HD
ENDBRANCH  18  25
BRANCH  12  27
ATOM     27  O   UNL     1      -1.461  -0.043  -2.074  0.00  0.00    -0.391 OA
ATOM     28  H   UNL     1      -1.998   0.257  -2.820  0.00  0.00    +0.210 HD
ENDBRANCH  12  27
BRANCH   5  29
ATOM     29  O   UNL     1      -0.571  -1.698   3.123  0.00  0.00    -0.392 OA
ATOM     30  H   UNL     1      -1.460  -1.995   3.363  0.00  0.00    +0.210 HD
ENDBRANCH   5  29
TORSDOF 6
