REMARK  Name = ZINC17003739
REMARK  9 active torsions:
REMARK  status: ('A' for Active; 'I' for Inactive)
REMARK    1  A    between atoms: C_1  and  C_2
REMARK    2  A    between atoms: C_2  and  C_4
REMARK    3  A    between atoms: C_10  and  C_32
REMARK    4  A    between atoms: C_18  and  N_66
REMARK    5  A    between atoms: C_20  and  O_29
REMARK    6  A    between atoms: C_21  and  C_28
REMARK    7  A    between atoms: C_24  and  O_27
REMARK    8  A    between atoms: C_30  and  N_66
REMARK    9  A    between atoms: C_31  and  N_66
REMARK                            x       y       z     vdW  Elec       q    Type
REMARK                         _______ _______ _______ _____ _____    ______ ____
ROOT
ATOM      1  C   UNL     1      -1.560  -7.568   2.385  0.00  0.00    +0.061 C 
ATOM      2  C   UNL     1      -2.230  -8.065   1.079  0.00  0.00    +0.012 C 
ATOM      3  C   UNL     1      -2.260  -6.848   0.111  0.00  0.00    +0.005 C 
ATOM      4  C   UNL     1      -1.283  -5.865   0.769  0.00  0.00    -0.001 C 
ATOM      5  C   UNL     1      -1.623  -6.028   2.263  0.00  0.00    -0.019 C 
ATOM      6  C   UNL     1      -0.636  -5.297   3.135  0.00  0.00    +0.008 C 
ATOM      7  C   UNL     1      -0.188  -3.979   2.488  0.00  0.00    +0.005 C 
ATOM      8  C   UNL     1      -1.216  -3.479   1.482  0.00  0.00    +0.001 C 
ATOM      9  C   UNL     1      -1.311  -4.439   0.302  0.00  0.00    -0.005 C 
ATOM     10  C   UNL     1      -2.491  -4.097  -0.591  0.00  0.00    -0.009 C 
ATOM     11  C   UNL     1      -2.634  -2.575  -0.745  0.00  0.00    -0.036 C 
ATOM     12  C   UNL     1      -1.301  -1.904  -0.462  0.00  0.00    +0.062 C 
ATOM     13  C   UNL     1      -0.925  -2.061   1.012  0.00  0.00    -0.002 C 
ATOM     14  C   UNL     1       0.528  -1.638   1.188  0.00  0.00    +0.012 C 
ATOM     15  C   UNL     1       0.680  -0.170   0.778  0.00  0.00    +0.032 C 
ATOM     16  C   UNL     1       0.158   0.096  -0.627  0.00  0.00    +0.117 C 
ATOM     17  C   UNL     1      -1.271  -0.422  -0.828  0.00  0.00    +0.065 C 
ATOM     18  C   UNL     1      -1.806  -1.138   1.869  0.00  0.00    +0.014 C 
ATOM     19  C   UNL     1      -3.061  -5.622   2.591  0.00  0.00    +0.012 C 
ENDROOT
BRANCH  11  22
ATOM     20  C   UNL     1      -3.912  -3.350  -2.654  0.00  0.00    -0.096 C 
ATOM     21  C   UNL     1      -3.747  -0.979  -2.191  0.00  0.00    -0.096 C 
ATOM     22  N   UNL     1      -3.038  -2.275  -2.139  0.00  0.00    +0.380 N 
ATOM     23  H   UNL     1      -2.197  -2.219  -2.725  0.00  0.00    -0.082 HD
ENDBRANCH  11  22
BRANCH   1  25
ATOM     24  C   UNL     1      -1.676  -8.088   4.936  0.00  0.00    +0.086 C 
ATOM     25  C   UNL     1      -2.343  -8.017   3.586  0.00  0.00    +0.134 C 
ATOM     26  O   UNL     1      -3.506  -8.320   3.471  0.00  0.00    -0.297 OA
ENDBRANCH   1  25
BRANCH  16  27
ATOM     27  O   UNL     1       0.177   1.507  -0.874  0.00  0.00    -0.392 OA
ATOM     28  H   UNL     1       1.056   1.905  -0.812  0.00  0.00    +0.210 HD
ENDBRANCH  16  27
BRANCH  12  29
ATOM     29  O   UNL     1      -0.296  -2.529  -1.278  0.00  0.00    -0.390 OA
ATOM     30  H   UNL     1      -0.467  -2.469  -2.228  0.00  0.00    +0.210 HD
ENDBRANCH  12  29
TORSDOF 4
