REMARK  Name = ZINC64610020
REMARK  8 active torsions:
REMARK  status: ('A' for Active; 'I' for Inactive)
REMARK    1  A    between atoms: C_4  and  O_7
REMARK    2  A    between atoms: O_7  and  C_8
REMARK    3  A    between atoms: C_8  and  C_9
REMARK    4  A    between atoms: N_11  and  C_12
REMARK    5  A    between atoms: C_12  and  C_13
REMARK    6  A    between atoms: C_13  and  C_14
REMARK    7  A    between atoms: N_22  and  C_25
REMARK    8  A    between atoms: C_25  and  C_26
REMARK                            x       y       z     vdW  Elec       q    Type
REMARK                         _______ _______ _______ _____ _____    ______ ____
ROOT
ATOM      1  C   UNL     1       7.833  -6.574  -0.112  0.00  0.00    +0.118 C 
ATOM      2  N   UNL     1       8.889  -5.849  -0.114  0.00  0.00    -0.175 NA
ATOM      3  N   UNL     1      10.049  -6.637  -0.170  0.00  0.00    -0.247 N 
ATOM      4  C   UNL     1       9.563  -8.000  -0.388  0.00  0.00    +0.177 C 
ATOM      5  N   UNL     1       8.132  -7.948  -0.123  0.00  0.00    -0.296 N 
ATOM      6  C   UNL     1       7.136  -8.953   0.180  0.00  0.00    +0.123 C 
ATOM      7  C   UNL     1       7.129  -9.224   1.696  0.00  0.00    +0.103 C 
ATOM      8  N   UNL     1       8.428  -9.733   2.057  0.00  0.00    -0.298 NA
ATOM      9  C   UNL     1       9.562  -8.843   1.937  0.00  0.00    +0.088 C 
ATOM     10  C   UNL     1      10.237  -9.006   0.567  0.00  0.00    +0.059 C 
ATOM     11  H   UNL     1      10.970  -6.344  -0.085  0.00  0.00    +0.170 HD
ENDROOT
BRANCH   1  12
ATOM     12  C   UNL     1       6.432  -6.018  -0.095  0.00  0.00    +0.092 C 
BRANCH  12  13
ATOM     13  C   UNL     1       6.490  -4.489  -0.087  0.00  0.00    +0.112 C 
BRANCH  13  16
ATOM     14  C   UNL     1       4.932  -2.615  -0.061  0.00  0.00    +0.251 C 
ATOM     15  O   UNL     1       5.883  -1.863  -0.067  0.00  0.00    -0.272 OA
ATOM     16  N   UNL     1       5.128  -3.949  -0.070  0.00  0.00    -0.312 N 
ATOM     17  H   UNL     1       4.368  -4.551  -0.066  0.00  0.00    +0.149 HD
BRANCH  14  18
ATOM     18  C   UNL     1       3.531  -2.060  -0.044  0.00  0.00    +0.324 C 
BRANCH  18  19
ATOM     19  O   UNL     1       3.586  -0.632  -0.037  0.00  0.00    -0.483 OA
BRANCH  19  23
ATOM     20  C   UNL     1      -0.017   1.378   0.010  0.00  0.00    +0.000 A 
ATOM     21  C   UNL     1       1.170   2.088   0.002  0.00  0.00    +0.004 A 
ATOM     22  C   UNL     1       2.377   1.417  -0.013  0.00  0.00    +0.045 A 
ATOM     23  C   UNL     1       2.399   0.030  -0.021  0.00  0.00    +0.121 A 
ATOM     24  C   UNL     1       1.207  -0.680  -0.013  0.00  0.00    +0.045 A 
ATOM     25  C   UNL     1       0.002  -0.004   0.002  0.00  0.00    +0.004 A 
ENDBRANCH  19  23
ENDBRANCH  18  19
ENDBRANCH  14  18
ENDBRANCH  13  16
ENDBRANCH  12  13
ENDBRANCH   1  12
BRANCH   8  26
ATOM     26  C   UNL     1       8.395 -10.368   3.381  0.00  0.00    +0.113 C 
BRANCH  26  27
ATOM     27  C   UNL     1       7.516 -11.619   3.325  0.00  0.00    +0.117 C 
ATOM     28  C   UNL     1       7.616 -12.385   4.625  0.00  0.00    +0.008 C 
ATOM     29  C   UNL     1       8.112 -13.602   4.307  0.00  0.00    -0.004 A 
ATOM     30  C   UNL     1       8.437 -14.786   5.112  0.00  0.00    +0.010 A 
ATOM     31  C   UNL     1       8.931 -15.883   4.495  0.00  0.00    +0.001 A 
ATOM     32  C   UNL     1       9.140 -15.919   3.110  0.00  0.00    +0.002 A 
ATOM     33  C   UNL     1       8.866 -14.872   2.304  0.00  0.00    +0.026 A 
ATOM     34  C   UNL     1       8.342 -13.665   2.846  0.00  0.00    +0.043 A 
ATOM     35  N   UNL     1       8.000 -12.530   2.282  0.00  0.00    -0.377 N 
ATOM     36  H   UNL     1       8.058 -12.327   1.335  0.00  0.00    +0.160 HD
ENDBRANCH  26  27
ENDBRANCH   8  26
TORSDOF 8
