REMARK  Name = ZINC03978028
REMARK  14 active torsions:
REMARK  status: ('A' for Active; 'I' for Inactive)
REMARK    1  A    between atoms: C_1  and  C_2
REMARK    2  A    between atoms: C_2  and  C_3
REMARK    3  A    between atoms: C_3  and  C_4
REMARK    4  A    between atoms: C_7  and  C_12
REMARK    5  A    between atoms: N_9  and  C_11
REMARK    6  A    between atoms: N_14  and  C_15
REMARK    7  A    between atoms: C_15  and  C_17
REMARK    8  A    between atoms: C_15  and  C_33
REMARK    9  A    between atoms: C_19  and  O_32
REMARK   10  A    between atoms: C_21  and  O_31
REMARK   11  A    between atoms: C_23  and  O_30
REMARK   12  A    between atoms: C_25  and  S_28
REMARK   13  A    between atoms: S_28  and  C_29
REMARK   14  A    between atoms: C_33  and  C_35
REMARK                            x       y       z     vdW  Elec       q    Type
REMARK                         _______ _______ _______ _____ _____    ______ ____
ROOT
ATOM      1  C   UNL     1       1.298  -6.224  -1.207  0.00  0.00    +0.122 C 
ENDROOT
BRANCH   1   2
ATOM      2  C   UNL     1       2.011  -6.426  -2.546  0.00  0.00    +0.172 C 
ATOM      3  C   UNL     1       1.065  -7.121  -3.528  0.00  0.00    +0.176 C 
ATOM      4  C   UNL     1       0.702  -8.505  -2.982  0.00  0.00    +0.177 C 
ATOM      5  C   UNL     1       1.988  -9.304  -2.749  0.00  0.00    +0.184 C 
ATOM      6  C   UNL     1       2.898  -8.524  -1.797  0.00  0.00    +0.207 C 
ATOM      7  O   UNL     1       3.172  -7.235  -2.350  0.00  0.00    -0.356 OA
BRANCH   6   8
ATOM      8  S   UNL     1       4.454  -9.429  -1.571  0.00  0.00    -0.131 S 
ATOM      9  C   UNL     1       5.170  -8.703  -0.071  0.00  0.00    +0.087 C 
ENDBRANCH   6   8
BRANCH   5  10
ATOM     10  O   UNL     1       2.658  -9.504  -3.996  0.00  0.00    -0.386 OA
ATOM     11  H   UNL     1       3.482 -10.004  -3.923  0.00  0.00    +0.210 HD
ENDBRANCH   5  10
BRANCH   4  12
ATOM     12  O   UNL     1      -0.004  -8.362  -1.748  0.00  0.00    -0.386 OA
ATOM     13  H   UNL     1      -0.266  -9.201  -1.345  0.00  0.00    +0.210 HD
ENDBRANCH   4  12
BRANCH   3  14
ATOM     14  O   UNL     1      -0.122  -6.340  -3.682  0.00  0.00    -0.387 OA
ATOM     15  H   UNL     1      -0.768  -6.722  -4.292  0.00  0.00    +0.210 HD
ENDBRANCH   3  14
ENDBRANCH   1   2
BRANCH   1  18
ATOM     16  C   UNL     1      -0.980  -5.663  -0.550  0.00  0.00    +0.200 C 
ATOM     17  O   UNL     1      -0.842  -6.372   0.425  0.00  0.00    -0.278 OA
ATOM     18  N   UNL     1       0.032  -5.522  -1.429  0.00  0.00    -0.310 N 
ATOM     19  H   UNL     1      -0.079  -4.955  -2.208  0.00  0.00    +0.149 HD
BRANCH  16  22
ATOM     20  C   UNL     1      -2.417  -3.005   0.672  0.00  0.00    -0.029 C 
ATOM     21  C   UNL     1      -2.045  -3.416  -0.777  0.00  0.00    -0.005 C 
ATOM     22  C   UNL     1      -2.283  -4.941  -0.778  0.00  0.00    +0.019 C 
ATOM     23  N   UNL     1      -3.223  -5.237   0.319  0.00  0.00    +0.386 N 
ATOM     24  C   UNL     1      -3.592  -3.966   0.979  0.00  0.00    -0.075 C 
ATOM     25  C   UNL     1      -4.427  -5.881  -0.223  0.00  0.00    -0.095 C 
ATOM     26  H   UNL     1      -2.782  -5.851   0.988  0.00  0.00    -0.081 HD
BRANCH  20  27
ATOM     27  C   UNL     1      -2.873  -1.546   0.728  0.00  0.00    +0.001 C 
BRANCH  27  29
ATOM     28  C   UNL     1      -2.133   0.832   0.521  0.00  0.00    +0.004 C 
ATOM     29  C   UNL     1      -1.677  -0.628   0.466  0.00  0.00    -0.003 C 
ENDBRANCH  27  29
ENDBRANCH  20  27
ENDBRANCH  16  22
ENDBRANCH   1  18
BRANCH   1  30
ATOM     30  C   UNL     1       2.185  -5.395  -0.276  0.00  0.00    +0.100 C 
ATOM     31  C   UNL     1       1.417  -5.071   1.006  0.00  0.00    +0.026 C 
ATOM     32 CL   UNL     1       3.670  -6.333   0.133  0.00  0.00    -0.120 Cl
ENDBRANCH   1  30
TORSDOF 10
