REMARK  Name = ZINC38971822
REMARK  6 active torsions:
REMARK  status: ('A' for Active; 'I' for Inactive)
REMARK    1  A    between atoms: C_1  and  C_2
REMARK    2  A    between atoms: C_5  and  C_31
REMARK    3  A    between atoms: C_6  and  S_8
REMARK    4  A    between atoms: S_8  and  N_11
REMARK    5  A    between atoms: C_13  and  N_23
REMARK    6  A    between atoms: N_23  and  C_24
REMARK                            x       y       z     vdW  Elec       q    Type
REMARK                         _______ _______ _______ _____ _____    ______ ____
ROOT
ATOM      1  N   UNL     1      -1.240  -3.943   2.340  0.00  0.00    -0.110 NA
ATOM      2  C   UNL     1      -1.505  -4.473   3.498  0.00  0.00    +0.192 C 
ATOM      3  C   UNL     1      -2.835  -5.149   3.746  0.00  0.00    +0.237 C 
ATOM      4  N   UNL     1      -3.073  -5.730   5.076  0.00  0.00    -0.359 N 
ATOM      5  C   UNL     1      -2.132  -5.636   5.974  0.00  0.00    +0.063 A 
ATOM      6  C   UNL     1      -2.320  -6.200   7.319  0.00  0.00    +0.027 A 
ATOM      7  C   UNL     1      -1.322  -6.083   8.222  0.00  0.00    +0.002 A 
ATOM      8  C   UNL     1      -0.114  -5.438   7.908  0.00  0.00    +0.002 A 
ATOM      9  C   UNL     1       0.131  -4.896   6.695  0.00  0.00    +0.030 A 
ATOM     10  C   UNL     1      -0.846  -4.960   5.670  0.00  0.00    +0.089 A 
ATOM     11  N   UNL     1      -0.600  -4.434   4.489  0.00  0.00    -0.226 NA
ATOM     12  H   UNL     1      -3.912  -6.173   5.281  0.00  0.00    +0.162 HD
ENDROOT
BRANCH   1  13
ATOM     13  S   UNL     1       0.223  -3.213   2.080  0.00  0.00    +0.101 S 
ATOM     14  O   UNL     1       1.206  -4.237   2.143  0.00  0.00    -0.146 OA
ATOM     15  O   UNL     1       0.261  -2.068   2.921  0.00  0.00    -0.146 OA
BRANCH  13  21
ATOM     16  C   UNL     1       0.333   0.687  -1.398  0.00  0.00    +0.044 C 
ATOM     17  C   UNL     1       0.273  -0.794  -1.128  0.00  0.00    -0.049 A 
ATOM     18  C   UNL     1       0.217  -1.687  -2.182  0.00  0.00    +0.004 A 
ATOM     19  C   UNL     1       0.162  -3.046  -1.934  0.00  0.00    +0.005 A 
ATOM     20  C   UNL     1       0.164  -3.512  -0.632  0.00  0.00    -0.024 A 
ATOM     21  C   UNL     1       0.221  -2.619   0.421  0.00  0.00    +0.116 A 
ATOM     22  C   UNL     1       0.280  -1.260   0.173  0.00  0.00    +0.032 A 
ATOM     23  C   UNL     1       0.103  -4.993  -0.362  0.00  0.00    +0.046 C 
ENDBRANCH  13  21
ENDBRANCH   1  13
BRANCH   3  24
ATOM     24  N   UNL     1      -2.983  -6.220   2.758  0.00  0.00    -0.318 N 
ATOM     25  H   UNL     1      -2.234  -6.804   2.559  0.00  0.00    +0.148 HD
BRANCH  24  26
ATOM     26  C   UNL     1      -4.203  -6.402   2.102  0.00  0.00    +0.030 A 
ATOM     27  C   UNL     1      -5.318  -5.668   2.489  0.00  0.00    +0.023 A 
ATOM     28  C   UNL     1      -6.522  -5.849   1.839  0.00  0.00    +0.003 A 
ATOM     29  C   UNL     1      -6.620  -6.760   0.803  0.00  0.00    +0.015 A 
ATOM     30  C   UNL     1      -5.513  -7.492   0.414  0.00  0.00    +0.020 A 
ATOM     31  C   UNL     1      -4.303  -7.311   1.057  0.00  0.00    +0.038 A 
ATOM     32 BR   UNL     1      -5.652  -8.736  -1.003  0.00  0.00    -0.050 Br
ENDBRANCH  24  26
ENDBRANCH   3  24
TORSDOF 4
