REMARK  Name = ZINC20589528
REMARK  5 active torsions:
REMARK  status: ('A' for Active; 'I' for Inactive)
REMARK    1  A    between atoms: C_6  and  C_21
REMARK    2  A    between atoms: C_7  and  N_9
REMARK    3  A    between atoms: N_15  and  C_18
REMARK    4  A    between atoms: C_18  and  C_19
REMARK    5  A    between atoms: C_19  and  O_20
REMARK                            x       y       z     vdW  Elec       q    Type
REMARK                         _______ _______ _______ _____ _____    ______ ____
ROOT
ATOM      1  C   UNL     1       7.061   1.385   1.540  0.00  0.00    +0.005 C 
ATOM      2  C   UNL     1       6.987   0.091   0.725  0.00  0.00    +0.005 C 
ATOM      3  C   UNL     1       5.620  -0.567   0.966  0.00  0.00    +0.043 C 
ATOM      4  C   UNL     1       4.559   0.479   0.815  0.00  0.00    -0.004 A 
ATOM      5  C   UNL     1       4.732   1.818   0.797  0.00  0.00    -0.023 A 
ATOM      6  C   UNL     1       3.517   2.597   0.627  0.00  0.00    +0.068 A 
ATOM      7  C   UNL     1       2.321   1.902   0.514  0.00  0.00    +0.086 A 
ATOM      8  S   UNL     1       2.815   0.245   0.618  0.00  0.00    -0.077 S 
ATOM      9  C   UNL     1       6.119   2.432   0.941  0.00  0.00    +0.037 C 
ENDROOT
BRANCH   7  10
ATOM     10  N   UNL     1       1.041   2.411   0.351  0.00  0.00    -0.263 N 
ATOM     11  C   UNL     1      -0.010   1.573   0.253  0.00  0.00    +0.307 C 
ATOM     12  O   UNL     1       0.172   0.372   0.214  0.00  0.00    -0.252 OA
ATOM     13  N   UNL     1      -1.262   2.067   0.192  0.00  0.00    -0.283 N 
ATOM     14  C   UNL     1      -2.428   1.170   0.182  0.00  0.00    +0.124 C 
ATOM     15  C   UNL     1      -3.406   1.639   1.271  0.00  0.00    +0.103 C 
ATOM     16  N   UNL     1      -3.715   3.060   1.066  0.00  0.00    -0.297 NA
ATOM     17  C   UNL     1      -2.514   3.893   1.213  0.00  0.00    +0.103 C 
ATOM     18  C   UNL     1      -1.499   3.517   0.128  0.00  0.00    +0.124 C 
ATOM     19  H   UNL     1       0.884   3.499   0.301  0.00  0.00    +0.157 HD
BRANCH  16  20
ATOM     20  C   UNL     1      -4.778   3.504   1.977  0.00  0.00    +0.112 C 
BRANCH  20  21
ATOM     21  C   UNL     1      -5.415   4.784   1.432  0.00  0.00    +0.171 C 
BRANCH  21  22
ATOM     22  O   UNL     1      -6.052   4.505   0.183  0.00  0.00    -0.394 OA
ATOM     23  H   UNL     1      -6.567   5.309  -0.363  0.00  0.00    +0.209 HD
ENDBRANCH  21  22
ENDBRANCH  20  21
ENDBRANCH  16  20
ENDBRANCH   7  10
BRANCH   6  24
ATOM     24  C   UNL     1       3.553   4.061   0.582  0.00  0.00    +0.244 C 
ATOM     25  O   UNL     1       3.449   4.705   1.610  0.00  0.00    -0.270 OA
ATOM     26  N   UNL     1       3.701   4.696  -0.598  0.00  0.00    -0.325 N 
ATOM     27  H   UNL     1       3.728   5.795  -0.631  0.00  0.00    +0.145 HD
ATOM     28  H   UNL     1       3.796   4.114  -1.526  0.00  0.00    +0.145 HD
ENDBRANCH   6  24
TORSDOF 5
