REMARK  Name = ZINC16633281
REMARK  10 active torsions:
REMARK  status: ('A' for Active; 'I' for Inactive)
REMARK    1  A    between atoms: C_1  and  C_2
REMARK    2  A    between atoms: C_2  and  C_4
REMARK    3  A    between atoms: C_2  and  N_56
REMARK    4  A    between atoms: N_6  and  C_7
REMARK    5  A    between atoms: C_12  and  C_13
REMARK    6  A    between atoms: C_13  and  C_15
REMARK    7  A    between atoms: C_21  and  N_56
REMARK    8  A    between atoms: C_22  and  C_23
REMARK    9  A    between atoms: C_22  and  N_56
REMARK   10  A    between atoms: N_25  and  C_26
REMARK                            x       y       z     vdW  Elec       q    Type
REMARK                         _______ _______ _______ _____ _____    ______ ____
ROOT
ATOM      1  C   UNL     1      -1.676   3.251  -0.206  0.00  0.00    +0.203 C 
ATOM      2  O   UNL     1      -2.107   2.400  -0.955  0.00  0.00    -0.277 OA
ATOM      3  N   UNL     1      -2.013   4.543  -0.389  0.00  0.00    -0.286 N 
ATOM      4  H   UNL     1      -1.613   5.232   0.164  0.00  0.00    +0.155 HD
ENDROOT
BRANCH   3   5
ATOM      5  C   UNL     1      -2.935   4.889  -1.374  0.00  0.00    +0.044 A 
ATOM      6  C   UNL     1      -3.984   4.032  -1.679  0.00  0.00    +0.024 A 
ATOM      7  C   UNL     1      -4.900   4.379  -2.652  0.00  0.00    +0.002 A 
ATOM      8  C   UNL     1      -4.775   5.577  -3.338  0.00  0.00    +0.001 A 
ATOM      9  C   UNL     1      -3.738   6.438  -3.053  0.00  0.00    +0.013 A 
ATOM     10  C   UNL     1      -2.805   6.103  -2.067  0.00  0.00    +0.043 A 
BRANCH  10  11
ATOM     11  C   UNL     1      -1.692   7.019  -1.757  0.00  0.00    +0.195 C 
ATOM     12  O   UNL     1      -1.898   8.027  -1.109  0.00  0.00    -0.287 OA
BRANCH  11  13
ATOM     13  C   UNL     1      -0.328   6.710  -2.233  0.00  0.00    +0.022 A 
ATOM     14  C   UNL     1      -0.106   5.608  -3.061  0.00  0.00    +0.012 A 
ATOM     15  C   UNL     1       1.170   5.330  -3.506  0.00  0.00    +0.001 A 
ATOM     16  C   UNL     1       2.230   6.133  -3.124  0.00  0.00    +0.000 A 
ATOM     17  C   UNL     1       2.018   7.224  -2.299  0.00  0.00    +0.001 A 
ATOM     18  C   UNL     1       0.747   7.517  -1.851  0.00  0.00    +0.012 A 
ENDBRANCH  11  13
ENDBRANCH  10  11
ENDBRANCH   3   5
BRANCH   1  20
ATOM     19  C   UNL     1      -1.424   3.228   2.261  0.00  0.00    -0.004 C 
ATOM     20  C   UNL     1      -0.764   2.864   0.929  0.00  0.00    +0.017 C 
BRANCH  20  22
ATOM     21  C   UNL     1       0.587   1.045   1.784  0.00  0.00    -0.094 C 
ATOM     22  N   UNL     1      -0.507   1.410   0.859  0.00  0.00    +0.391 N 
ATOM     23  H   UNL     1      -0.229   1.167  -0.099  0.00  0.00    -0.080 HD
BRANCH  22  24
ATOM     24  C   UNL     1      -1.733   0.663   1.208  0.00  0.00    +0.020 C 
BRANCH  24  25
ATOM     25  C   UNL     1      -1.511  -0.799   0.917  0.00  0.00    +0.201 C 
ATOM     26  O   UNL     1      -0.443  -1.176   0.484  0.00  0.00    -0.278 OA
ATOM     27  N   UNL     1      -2.500  -1.688   1.137  0.00  0.00    -0.286 N 
ATOM     28  H   UNL     1      -3.375  -1.380   1.420  0.00  0.00    +0.155 HD
BRANCH  27  29
ATOM     29  C   UNL     1      -2.264  -3.056   0.959  0.00  0.00    +0.047 A 
ATOM     30  C   UNL     1      -1.402  -3.489  -0.040  0.00  0.00    +0.024 A 
ATOM     31  C   UNL     1      -1.168  -4.839  -0.212  0.00  0.00    +0.002 A 
ATOM     32  C   UNL     1      -1.798  -5.761   0.604  0.00  0.00    +0.001 A 
ATOM     33  C   UNL     1      -2.661  -5.334   1.597  0.00  0.00    +0.017 A 
ATOM     34  C   UNL     1      -2.896  -3.984   1.777  0.00  0.00    +0.039 A 
ATOM     35 BR   UNL     1      -4.077  -3.401   3.134  0.00  0.00    -0.048 Br
ENDBRANCH  27  29
ENDBRANCH  24  25
ENDBRANCH  22  24
ENDBRANCH  20  22
ENDBRANCH   1  20
TORSDOF 8
