REMARK  Name = ZINC38008804
REMARK  5 active torsions:
REMARK  status: ('A' for Active; 'I' for Inactive)
REMARK    1  A    between atoms: C_1  and  C_2
REMARK    2  A    between atoms: C_5  and  N_9
REMARK    3  A    between atoms: N_9  and  S_10
REMARK    4  A    between atoms: S_10  and  C_13
REMARK    5  A    between atoms: N_19  and  N_20
REMARK                            x       y       z     vdW  Elec       q    Type
REMARK                         _______ _______ _______ _____ _____    ______ ____
ROOT
ATOM      1  S   UNL     1       0.203  -5.003   1.401  0.00  0.00    +0.092 S 
ATOM      2  O   UNL     1       1.448  -4.623   1.970  0.00  0.00    -0.148 OA
ATOM      3  O   UNL     1      -1.030  -4.846   2.090  0.00  0.00    -0.148 OA
ENDROOT
BRANCH   1   4
ATOM      4  C   UNL     1       0.337  -6.712   0.991  0.00  0.00    +0.115 A 
ATOM      5  C   UNL     1      -0.797  -7.505   0.878  0.00  0.00    +0.046 A 
ATOM      6  C   UNL     1      -0.659  -8.840   0.555  0.00  0.00    +0.086 A 
ATOM      7  N   UNL     1       0.534  -9.368   0.355  0.00  0.00    -0.349 N 
ATOM      8  C   UNL     1       1.639  -8.645   0.454  0.00  0.00    +0.112 A 
ATOM      9  C   UNL     1       1.573  -7.291   0.770  0.00  0.00    +0.071 A 
ATOM     10  N   UNL     1       2.875  -9.241   0.234  0.00  0.00    -0.269 N 
ATOM     11  H   UNL     1       3.687  -8.715   0.306  0.00  0.00    +0.167 HD
ATOM     12  H   UNL     1       0.603 -10.309   0.129  0.00  0.00    +0.167 HD
BRANCH  10  13
ATOM     13  N   UNL     1       2.946 -10.568  -0.082  0.00  0.00    -0.255 NA
ATOM     14  H   UNL     1       2.392 -10.775  -0.899  0.00  0.00    +0.140 HD
ATOM     15  H   UNL     1       3.904 -10.858  -0.211  0.00  0.00    +0.140 HD
ENDBRANCH  10  13
ENDBRANCH   1   4
BRANCH   1  16
ATOM     16  N   UNL     1       0.059  -4.168  -0.023  0.00  0.00    -0.097 NA
BRANCH  16  21
ATOM     17  C   UNL     1      -0.081   1.502   0.018  0.00  0.00    +0.044 C 
ATOM     18  C   UNL     1      -0.044  -0.005   0.007  0.00  0.00    -0.049 A 
ATOM     19  C   UNL     1      -0.059  -0.704   1.200  0.00  0.00    +0.005 A 
ATOM     20  C   UNL     1      -0.025  -2.085   1.194  0.00  0.00    +0.028 A 
ATOM     21  C   UNL     1       0.025  -2.772  -0.013  0.00  0.00    +0.088 A 
ATOM     22  C   UNL     1       0.040  -2.066  -1.210  0.00  0.00    +0.043 A 
ATOM     23  C   UNL     1       0.000  -0.685  -1.196  0.00  0.00    +0.020 A 
ATOM     24 BR   UNL     1       0.107  -2.995  -2.856  0.00  0.00    -0.048 Br
ENDBRANCH  16  21
ENDBRANCH   1  16
TORSDOF 4
