REMARK  Name = ZINC52094531
REMARK  8 active torsions:
REMARK  status: ('A' for Active; 'I' for Inactive)
REMARK    1  A    between atoms: C_1  and  C_2
REMARK    2  A    between atoms: C_2  and  C_3
REMARK    3  A    between atoms: C_3  and  C_4
REMARK    4  A    between atoms: C_4  and  C_5
REMARK    5  A    between atoms: C_5  and  C_6
REMARK    6  A    between atoms: C_6  and  C_8
REMARK    7  A    between atoms: C_6  and  N_21
REMARK    8  A    between atoms: N_21  and  C_22
REMARK                            x       y       z     vdW  Elec       q    Type
REMARK                         _______ _______ _______ _____ _____    ______ ____
ROOT
ATOM      1  C   UNL     1       2.267  -4.407  -3.713  0.00  0.00    -0.045 A 
ATOM      2  C   UNL     1       3.633  -4.612  -3.691  0.00  0.00    +0.031 A 
ATOM      3  C   UNL     1       4.301  -4.944  -4.859  0.00  0.00    +0.067 A 
ATOM      4  C   UNL     1       3.590  -5.068  -6.055  0.00  0.00    +0.068 A 
ATOM      5  C   UNL     1       2.220  -4.860  -6.069  0.00  0.00    +0.043 A 
ATOM      6  C   UNL     1       1.561  -4.536  -4.898  0.00  0.00    +0.022 A 
ATOM      7 BR   UNL     1      -0.309  -4.260  -4.914  0.00  0.00    -0.050 Br
ATOM      8  N   UNL     1       4.516  -5.403  -7.041  0.00  0.00    -0.306 N 
ATOM      9  H   UNL     1       4.318  -5.555  -7.978  0.00  0.00    +0.170 HD
ATOM     10  C   UNL     1       5.734  -5.479  -6.471  0.00  0.00    +0.325 A 
ATOM     11  O   UNL     1       6.765  -5.751  -7.056  0.00  0.00    -0.247 OA
ATOM     12  N   UNL     1       5.636  -5.207  -5.156  0.00  0.00    -0.306 N 
ATOM     13  H   UNL     1       6.371  -5.196  -4.522  0.00  0.00    +0.170 HD
ENDROOT
BRANCH   1  14
ATOM     14  C   UNL     1       1.541  -4.047  -2.442  0.00  0.00    -0.040 C 
BRANCH  14  15
ATOM     15  N   UNL     1       2.361  -4.429  -1.285  0.00  0.00    +0.382 N 
ATOM     16  C   UNL     1       2.487  -5.892  -1.235  0.00  0.00    -0.100 C 
ATOM     17  H   UNL     1       3.278  -4.015  -1.371  0.00  0.00    -0.085 HD
ATOM     18  H   UNL     1       1.922  -4.100  -0.438  0.00  0.00    -0.085 HD
ENDBRANCH  14  15
BRANCH  14  19
ATOM     19  C   UNL     1       1.285  -2.539  -2.411  0.00  0.00    -0.011 C 
BRANCH  19  20
ATOM     20  C   UNL     1       0.436  -2.191  -1.187  0.00  0.00    -0.001 C 
BRANCH  20  21
ATOM     21  C   UNL     1       0.067  -0.707  -1.226  0.00  0.00    -0.000 C 
BRANCH  21  23
ATOM     22  C   UNL     1      -1.150   1.125  -0.042  0.00  0.00    +0.004 C 
ATOM     23  C   UNL     1      -0.782  -0.359  -0.002  0.00  0.00    -0.003 C 
ENDBRANCH  21  23
ENDBRANCH  20  21
ENDBRANCH  19  20
ENDBRANCH  14  19
ENDBRANCH   1  14
TORSDOF 6
