REMARK  Name = ZINC22760412
REMARK  10 active torsions:
REMARK  status: ('A' for Active; 'I' for Inactive)
REMARK    1  A    between atoms: C_1  and  C_2
REMARK    2  A    between atoms: C_5  and  N_9
REMARK    3  A    between atoms: C_6  and  C_8
REMARK    4  A    between atoms: C_13  and  C_15
REMARK    5  A    between atoms: C_15  and  C_17
REMARK    6  A    between atoms: C_15  and  N_18
REMARK    7  A    between atoms: N_21  and  C_24
REMARK    8  A    between atoms: C_24  and  C_25
REMARK    9  A    between atoms: N_27  and  C_28
REMARK   10  A    between atoms: C_28  and  C_29
REMARK                            x       y       z     vdW  Elec       q    Type
REMARK                         _______ _______ _______ _____ _____    ______ ____
ROOT
ATOM      1  C   UNL     1      -1.748   3.881  -2.205  0.00  0.00    +0.140 C 
ATOM      2  C   UNL     1      -2.874   2.910  -2.569  0.00  0.00    +0.034 C 
ENDROOT
BRANCH   1   7
ATOM      3  N   UNL     1      -4.024   7.914  -3.496  0.00  0.00    -0.269 N 
ATOM      4  C   UNL     1      -3.442   7.173  -2.532  0.00  0.00    +0.310 C 
ATOM      5  O   UNL     1      -3.391   7.591  -1.392  0.00  0.00    -0.252 OA
ATOM      6  N   UNL     1      -2.917   5.968  -2.833  0.00  0.00    -0.239 N 
ATOM      7  C   UNL     1      -2.336   5.228  -1.869  0.00  0.00    +0.237 C 
ATOM      8  O   UNL     1      -2.284   5.645  -0.731  0.00  0.00    -0.274 OA
ATOM      9  H   UNL     1      -4.147   7.501  -4.508  0.00  0.00    +0.156 HD
ATOM     10  H   UNL     1      -2.964   5.590  -3.864  0.00  0.00    +0.159 HD
BRANCH   3  15
ATOM     11  C   UNL     1      -5.843  13.160  -2.332  0.00  0.00    +0.044 C 
ATOM     12  C   UNL     1      -5.360  11.766  -2.641  0.00  0.00    -0.050 A 
ATOM     13  C   UNL     1      -5.280  10.824  -1.632  0.00  0.00    +0.005 A 
ATOM     14  C   UNL     1      -4.838   9.546  -1.912  0.00  0.00    +0.024 A 
ATOM     15  C   UNL     1      -4.473   9.208  -3.209  0.00  0.00    +0.038 A 
ATOM     16  C   UNL     1      -4.550  10.158  -4.218  0.00  0.00    -0.029 A 
ATOM     17  C   UNL     1      -4.998  11.432  -3.933  0.00  0.00    +0.008 A 
ATOM     18  C   UNL     1      -4.149   9.796  -5.626  0.00  0.00    +0.045 C 
ENDBRANCH   3  15
ENDBRANCH   1   7
BRANCH   1  19
ATOM     19  N   UNL     1      -1.013   3.364  -1.043  0.00  0.00    -0.295 NA
ATOM     20  C   UNL     1       0.204   4.151  -0.797  0.00  0.00    +0.066 C 
ATOM     21  C   UNL     1       0.898   3.632   0.464  0.00  0.00    -0.063 C 
ATOM     22  N   UNL     1       1.220   2.208   0.293  0.00  0.00    +0.387 N 
ATOM     23  C   UNL     1       0.003   1.421   0.047  0.00  0.00    -0.063 C 
ATOM     24  C   UNL     1      -0.690   1.940  -1.215  0.00  0.00    +0.066 C 
ATOM     25  H   UNL     1       1.871   2.110  -0.588  0.00  0.00    -0.081 HD
BRANCH  22  26
ATOM     26  C   UNL     1       1.956   1.691   1.455  0.00  0.00    +0.019 C 
BRANCH  26  27
ATOM     27  C   UNL     1       3.314   2.341   1.519  0.00  0.00    +0.197 C 
ATOM     28  O   UNL     1       3.641   3.148   0.675  0.00  0.00    -0.278 OA
ATOM     29  N   UNL     1       4.166   2.024   2.514  0.00  0.00    -0.313 N 
ATOM     30  H   UNL     1       3.870   1.292   3.280  0.00  0.00    +0.149 HD
BRANCH  29  31
ATOM     31  C   UNL     1       5.487   2.655   2.576  0.00  0.00    +0.131 C 
BRANCH  31  32
ATOM     32  C   UNL     1       6.237   2.133   3.775  0.00  0.00    -0.016 C 
ATOM     33  C   UNL     1       7.423   1.598   3.623  0.00  0.00    +0.005 C 
ENDBRANCH  31  32
ENDBRANCH  29  31
ENDBRANCH  26  27
ENDBRANCH  22  26
ENDBRANCH   1  19
TORSDOF 7
