REMARK  Name = ZINC13681689
REMARK  10 active torsions:
REMARK  status: ('A' for Active; 'I' for Inactive)
REMARK    1  A    between atoms: C_1  and  C_2
REMARK    2  A    between atoms: C_2  and  O_3
REMARK    3  A    between atoms: O_3  and  C_4
REMARK    4  A    between atoms: C_4  and  C_6
REMARK    5  A    between atoms: C_10  and  N_11
REMARK    6  A    between atoms: C_12  and  C_14
REMARK    7  A    between atoms: C_18  and  N_20
REMARK    8  A    between atoms: N_20  and  S_21
REMARK    9  A    between atoms: S_21  and  C_24
REMARK   10  A    between atoms: C_27  and  C_30
REMARK                            x       y       z     vdW  Elec       q    Type
REMARK                         _______ _______ _______ _____ _____    ______ ____
ROOT
ATOM      1  N   UNL     1      -1.071   1.249   5.043  0.00  0.00    -0.275 N 
ATOM      2  C   UNL     1      -1.872   1.910   5.903  0.00  0.00    +0.249 C 
ATOM      3  O   UNL     1      -2.528   2.858   5.517  0.00  0.00    -0.270 OA
ATOM      4  H   UNL     1      -0.548   0.493   5.352  0.00  0.00    +0.156 HD
ENDROOT
BRANCH   1   9
ATOM      5  C   UNL     1      -0.236   1.102   2.694  0.00  0.00    +0.091 A 
ATOM      6  C   UNL     1      -0.336   1.717   1.383  0.00  0.00    -0.021 A 
ATOM      7  C   UNL     1      -1.177   2.773   1.305  0.00  0.00    -0.004 A 
ATOM      8  S   UNL     1      -1.825   2.957   2.942  0.00  0.00    -0.077 S 
ATOM      9  C   UNL     1      -0.996   1.650   3.720  0.00  0.00    +0.087 A 
ATOM     10  C   UNL     1      -1.481   3.599   0.093  0.00  0.00    +0.043 C 
ATOM     11  C   UNL     1      -0.415   3.305  -0.973  0.00  0.00    +0.005 C 
ATOM     12  C   UNL     1      -0.248   1.788  -1.098  0.00  0.00    +0.005 C 
ATOM     13  C   UNL     1       0.428   1.234   0.157  0.00  0.00    +0.037 C 
BRANCH   5  14
ATOM     14  C   UNL     1       0.634  -0.052   2.927  0.00  0.00    +0.342 C 
ATOM     15  O   UNL     1       0.201  -1.179   2.782  0.00  0.00    -0.245 OA
BRANCH  14  16
ATOM     16  O   UNL     1       1.917   0.135   3.301  0.00  0.00    -0.461 OA
BRANCH  16  18
ATOM     17  C   UNL     1       4.136  -0.645   3.931  0.00  0.00    +0.048 C 
ATOM     18  C   UNL     1       2.721  -1.054   3.514  0.00  0.00    +0.229 C 
ENDBRANCH  16  18
ENDBRANCH  14  16
ENDBRANCH   5  14
ENDBRANCH   1   9
BRANCH   2  19
ATOM     19  C   UNL     1      -1.953   1.482   7.316  0.00  0.00    +0.039 A 
ATOM     20  C   UNL     1      -1.205   0.390   7.761  0.00  0.00    +0.013 A 
ATOM     21  C   UNL     1      -1.278  -0.004   9.081  0.00  0.00    +0.003 A 
ATOM     22  C   UNL     1      -2.098   0.672   9.965  0.00  0.00    +0.024 A 
ATOM     23  C   UNL     1      -2.851   1.757   9.531  0.00  0.00    +0.049 A 
ATOM     24  C   UNL     1      -2.781   2.164   8.207  0.00  0.00    +0.037 A 
BRANCH  23  25
ATOM     25  N   UNL     1      -3.679   2.436  10.428  0.00  0.00    -0.216 N 
ATOM     26  H   UNL     1      -3.674   3.406  10.453  0.00  0.00    +0.174 HD
BRANCH  25  27
ATOM     27  S   UNL     1      -4.669   1.586  11.448  0.00  0.00    +0.072 S 
ATOM     28  O   UNL     1      -3.847   0.638  12.115  0.00  0.00    -0.150 OA
ATOM     29  O   UNL     1      -5.449   2.545  12.149  0.00  0.00    -0.150 OA
BRANCH  27  30
ATOM     30  C   UNL     1      -5.786   0.666  10.442  0.00  0.00    +0.109 A 
ATOM     31  C   UNL     1      -6.947   1.256   9.981  0.00  0.00    +0.029 A 
ATOM     32  C   UNL     1      -7.821   0.535   9.189  0.00  0.00    +0.005 A 
ATOM     33  C   UNL     1      -7.538  -0.779   8.866  0.00  0.00    -0.050 A 
ATOM     34  C   UNL     1      -6.379  -1.371   9.332  0.00  0.00    +0.005 A 
ATOM     35  C   UNL     1      -5.503  -0.648  10.120  0.00  0.00    +0.029 A 
ATOM     36  C   UNL     1      -8.493  -1.566   8.006  0.00  0.00    +0.044 C 
ENDBRANCH  27  30
ENDBRANCH  25  27
ENDBRANCH  23  25
ENDBRANCH   2  19
TORSDOF 8
