REMARK  Name = ZINC43357369
REMARK  7 active torsions:
REMARK  status: ('A' for Active; 'I' for Inactive)
REMARK    1  A    between atoms: C_1  and  C_2
REMARK    2  A    between atoms: C_7  and  N_8
REMARK    3  A    between atoms: N_11  and  C_12
REMARK    4  A    between atoms: C_12  and  C_14
REMARK    5  A    between atoms: C_12  and  C_15
REMARK    6  A    between atoms: C_18  and  S_21
REMARK    7  A    between atoms: S_21  and  N_24
REMARK                            x       y       z     vdW  Elec       q    Type
REMARK                         _______ _______ _______ _____ _____    ______ ____
ROOT
ATOM      1  N   UNL     1       0.025  -0.014   2.417  0.00  0.00    -0.269 N 
ATOM      2  C   UNL     1      -0.056  -0.693   3.578  0.00  0.00    +0.304 C 
ATOM      3  O   UNL     1      -0.040  -1.909   3.574  0.00  0.00    -0.252 OA
ATOM      4  N   UNL     1      -0.156  -0.025   4.745  0.00  0.00    -0.293 N 
ATOM      5  H   UNL     1       0.078   0.955   2.425  0.00  0.00    +0.156 HD
ATOM      6  H   UNL     1      -0.169   0.945   4.748  0.00  0.00    +0.151 HD
ENDROOT
BRANCH   1  13
ATOM      7  C   UNL     1      -1.265   1.183   0.181  0.00  0.00    +0.045 C 
ATOM      8  C   UNL     1      -0.584  -0.158   0.085  0.00  0.00    -0.029 A 
ATOM      9  C   UNL     1      -0.570  -0.840  -1.117  0.00  0.00    +0.006 A 
ATOM     10  C   UNL     1       0.054  -2.070  -1.207  0.00  0.00    +0.020 A 
ATOM     11  C   UNL     1       0.666  -2.623  -0.095  0.00  0.00    +0.043 A 
ATOM     12  C   UNL     1       0.655  -1.944   1.109  0.00  0.00    +0.043 A 
ATOM     13  C   UNL     1       0.034  -0.706   1.201  0.00  0.00    +0.039 A 
ATOM     14 CL   UNL     1       1.448  -4.168  -0.213  0.00  0.00    -0.083 Cl
ENDBRANCH   1  13
BRANCH   4  15
ATOM     15  C   UNL     1      -0.245  -0.763   6.007  0.00  0.00    +0.102 C 
ATOM     16  C   UNL     1       1.163  -1.110   6.495  0.00  0.00    +0.033 C 
BRANCH  15  17
ATOM     17  C   UNL     1      -0.939   0.088   7.039  0.00  0.00    -0.027 A 
ATOM     18  C   UNL     1      -0.673   1.442   7.110  0.00  0.00    +0.007 A 
ATOM     19  C   UNL     1      -1.309   2.223   8.057  0.00  0.00    +0.029 A 
ATOM     20  C   UNL     1      -2.212   1.649   8.932  0.00  0.00    +0.105 A 
ATOM     21  C   UNL     1      -2.478   0.294   8.861  0.00  0.00    +0.029 A 
ATOM     22  C   UNL     1      -1.845  -0.485   7.911  0.00  0.00    +0.007 A 
BRANCH  20  23
ATOM     23  S   UNL     1      -3.022   2.644  10.140  0.00  0.00    +0.056 S 
ATOM     24  O   UNL     1      -3.409   1.770  11.192  0.00  0.00    -0.153 OA
ATOM     25  O   UNL     1      -2.192   3.776  10.356  0.00  0.00    -0.153 OA
BRANCH  23  26
ATOM     26  N   UNL     1      -4.420   3.205   9.453  0.00  0.00    -0.204 NA
ATOM     27  H   UNL     1      -4.645   2.962   8.541  0.00  0.00    +0.144 HD
ATOM     28  H   UNL     1      -5.015   3.778   9.962  0.00  0.00    +0.144 HD
ENDBRANCH  23  26
ENDBRANCH  20  23
ENDBRANCH  15  17
ENDBRANCH   4  15
TORSDOF 5
