REMARK  Name = ZINC56850888
REMARK  8 active torsions:
REMARK  status: ('A' for Active; 'I' for Inactive)
REMARK    1  A    between atoms: C_1  and  C_2
REMARK    2  A    between atoms: C_15  and  C_17
REMARK    3  A    between atoms: C_17  and  C_18
REMARK    4  A    between atoms: C_18  and  C_19
REMARK    5  A    between atoms: N_21  and  C_22
REMARK    6  A    between atoms: C_22  and  C_23
REMARK    7  A    between atoms: C_23  and  S_24
REMARK    8  A    between atoms: S_24  and  N_27
REMARK                            x       y       z     vdW  Elec       q    Type
REMARK                         _______ _______ _______ _____ _____    ______ ____
ROOT
ATOM      1  C   UNL     1      -0.019   1.526   0.010  0.00  0.00    +0.008 C 
ATOM      2  C   UNL     1       0.002  -0.004   0.002  0.00  0.00    -0.009 C 
ATOM      3  C   UNL     1      -1.433  -0.537   0.021  0.00  0.00    +0.008 C 
ATOM      4  C   UNL     1      -1.430  -2.044  -0.237  0.00  0.00    +0.037 C 
ATOM      5  C   UNL     1      -0.472  -2.712   0.745  0.00  0.00    -0.023 A 
ATOM      6  C   UNL     1       0.476  -1.985   1.383  0.00  0.00    -0.004 A 
ATOM      7  S   UNL     1       1.343  -3.148   2.406  0.00  0.00    -0.073 S 
ATOM      8  C   UNL     1       0.437  -4.601   1.978  0.00  0.00    +0.116 A 
ATOM      9  C   UNL     1      -0.517  -4.131   1.048  0.00  0.00    +0.075 A 
ATOM     10  C   UNL     1      -1.426  -5.099   0.502  0.00  0.00    +0.260 A 
ATOM     11  O   UNL     1      -2.286  -4.796  -0.308  0.00  0.00    -0.267 OA
ATOM     12  N   UNL     1      -1.267  -6.369   0.944  0.00  0.00    -0.310 N 
ATOM     13  H   UNL     1      -1.860  -7.056   0.601  0.00  0.00    +0.170 HD
ATOM     14  C   UNL     1      -0.319  -6.726   1.843  0.00  0.00    +0.111 A 
ATOM     15  N   UNL     1       0.532  -5.869   2.365  0.00  0.00    -0.227 NA
ATOM     16  C   UNL     1       0.737  -0.516   1.249  0.00  0.00    +0.046 C 
ENDROOT
BRANCH  14  17
ATOM     17  C   UNL     1      -0.234  -8.170   2.263  0.00  0.00    +0.083 C 
BRANCH  17  18
ATOM     18  C   UNL     1       0.900  -8.341   3.276  0.00  0.00    +0.103 C 
BRANCH  18  19
ATOM     19  C   UNL     1       0.985  -9.786   3.697  0.00  0.00    +0.213 C 
ATOM     20  O   UNL     1       0.214 -10.599   3.232  0.00  0.00    -0.276 OA
ATOM     21  N   UNL     1       1.917 -10.174   4.589  0.00  0.00    -0.314 N 
ATOM     22  H   UNL     1       2.534  -9.524   4.961  0.00  0.00    +0.149 HD
BRANCH  21  23
ATOM     23  C   UNL     1       2.000 -11.578   4.998  0.00  0.00    +0.128 C 
BRANCH  23  24
ATOM     24  C   UNL     1       3.134 -11.749   6.011  0.00  0.00    +0.203 C 
BRANCH  24  25
ATOM     25  S   UNL     1       3.236 -13.488   6.517  0.00  0.00    +0.028 S 
ATOM     26  O   UNL     1       2.086 -13.846   7.271  0.00  0.00    -0.158 OA
ATOM     27  O   UNL     1       3.666 -14.291   5.427  0.00  0.00    -0.158 OA
BRANCH  25  28
ATOM     28  N   UNL     1       4.486 -13.543   7.602  0.00  0.00    -0.208 NA
ATOM     29  H   UNL     1       4.972 -12.733   7.823  0.00  0.00    +0.144 HD
ATOM     30  H   UNL     1       4.732 -14.384   8.016  0.00  0.00    +0.144 HD
ENDBRANCH  25  28
ENDBRANCH  24  25
ENDBRANCH  23  24
ENDBRANCH  21  23
ENDBRANCH  18  19
ENDBRANCH  17  18
ENDBRANCH  14  17
TORSDOF 7
