REMARK  Name = ZINC38799178
REMARK  8 active torsions:
REMARK  status: ('A' for Active; 'I' for Inactive)
REMARK    1  A    between atoms: C_1  and  C_2
REMARK    2  A    between atoms: C_2  and  C_4
REMARK    3  A    between atoms: C_2  and  S_16
REMARK    4  A    between atoms: N_6  and  C_7
REMARK    5  A    between atoms: C_12  and  N_13
REMARK    6  A    between atoms: S_16  and  C_17
REMARK    7  A    between atoms: C_21  and  C_30
REMARK    8  A    between atoms: N_22  and  C_23
REMARK                            x       y       z     vdW  Elec       q    Type
REMARK                         _______ _______ _______ _____ _____    ______ ____
ROOT
ATOM      1  C   UNL     1       2.429  -0.041  -1.290  0.00  0.00    +0.242 C 
ATOM      2  N   UNL     1       2.602   1.421  -1.309  0.00  0.00    -0.237 N 
ATOM      3  N   UNL     1       3.188   1.769  -0.087  0.00  0.00    -0.169 NA
ATOM      4  C   UNL     1       3.389   0.715   0.660  0.00  0.00    +0.151 C 
ATOM      5  N   UNL     1       2.961  -0.454   0.019  0.00  0.00    -0.254 N 
ATOM      6  H   UNL     1       2.358   2.025  -2.028  0.00  0.00    +0.171 HD
ENDROOT
BRANCH   4   7
ATOM      7  C   UNL     1       3.962   0.750   1.941  0.00  0.00    +0.022 C 
ATOM      8  C   UNL     1       4.494   1.861   2.596  0.00  0.00    +0.006 A 
ATOM      9  C   UNL     1       4.625   3.216   2.224  0.00  0.00    +0.010 A 
ATOM     10  C   UNL     1       5.196   4.099   3.083  0.00  0.00    +0.001 A 
ATOM     11  C   UNL     1       5.663   3.701   4.337  0.00  0.00    +0.002 A 
ATOM     12  C   UNL     1       5.570   2.416   4.760  0.00  0.00    +0.026 A 
ATOM     13  C   UNL     1       4.984   1.436   3.918  0.00  0.00    +0.043 A 
ATOM     14  N   UNL     1       4.780   0.145   4.092  0.00  0.00    -0.380 N 
ATOM     15  C   UNL     1       4.128  -0.407   2.901  0.00  0.00    +0.152 C 
ATOM     16  H   UNL     1       5.020  -0.359   4.885  0.00  0.00    +0.160 HD
ENDBRANCH   4   7
BRANCH   5  17
ATOM     17  C   UNL     1       3.024  -1.757   0.522  0.00  0.00    +0.038 A 
ATOM     18  C   UNL     1       2.252  -2.118   1.619  0.00  0.00    +0.025 A 
ATOM     19  C   UNL     1       2.317  -3.406   2.113  0.00  0.00    +0.022 A 
ATOM     20  C   UNL     1       3.150  -4.336   1.517  0.00  0.00    +0.041 A 
ATOM     21  C   UNL     1       3.921  -3.979   0.424  0.00  0.00    +0.022 A 
ATOM     22  C   UNL     1       3.855  -2.694  -0.078  0.00  0.00    +0.025 A 
ATOM     23 CL   UNL     1       3.229  -5.954   2.142  0.00  0.00    -0.084 Cl
ENDBRANCH   5  17
BRANCH   1  24
ATOM     24  S   UNL     1       0.673  -0.474  -1.426  0.00  0.00    -0.105 S 
BRANCH  24  26
ATOM     25  C   UNL     1       0.025   1.903  -0.237  0.00  0.00    +0.029 C 
ATOM     26  C   UNL     1      -0.102   0.392  -0.033  0.00  0.00    +0.133 C 
BRANCH  26  27
ATOM     27  C   UNL     1      -1.560   0.016   0.044  0.00  0.00    +0.230 C 
ATOM     28  O   UNL     1      -2.119  -0.447  -0.928  0.00  0.00    -0.274 OA
ATOM     29  N   UNL     1      -2.242   0.194   1.193  0.00  0.00    -0.283 N 
ATOM     30  H   UNL     1      -1.777   0.483   1.993  0.00  0.00    +0.155 HD
BRANCH  29  31
ATOM     31  C   UNL     1      -3.622  -0.036   1.230  0.00  0.00    +0.064 A 
ATOM     32  C   UNL     1      -4.377   0.073   0.069  0.00  0.00    +0.025 A 
ATOM     33  C   UNL     1      -5.738  -0.154   0.110  0.00  0.00    +0.002 A 
ATOM     34  C   UNL     1      -6.350  -0.491   1.303  0.00  0.00    +0.002 A 
ATOM     35  C   UNL     1      -5.601  -0.601   2.460  0.00  0.00    +0.034 A 
ATOM     36  C   UNL     1      -4.238  -0.380   2.426  0.00  0.00    +0.147 A 
BRANCH  36  37
ATOM     37  N   UNL     1      -3.435  -0.504   3.663  0.00  0.00    +0.058 N 
ATOM     38  O   UNL     1      -3.955  -0.889   4.685  0.00  0.00    -0.126 OA
ATOM     39  O   UNL     1      -2.260  -0.220   3.653  0.00  0.00    -0.126 OA
ENDBRANCH  36  37
ENDBRANCH  29  31
ENDBRANCH  26  27
ENDBRANCH  24  26
ENDBRANCH   1  24
TORSDOF 7
