REMARK  Name = ZINC01407912
REMARK  14 active torsions:
REMARK  status: ('A' for Active; 'I' for Inactive)
REMARK    1  A    between atoms: C_1  and  C_2
REMARK    2  A    between atoms: C_7  and  C_8
REMARK    3  A    between atoms: C_8  and  N_9
REMARK    4  A    between atoms: N_9  and  C_10
REMARK    5  A    between atoms: C_10  and  C_12
REMARK    6  A    between atoms: C_10  and  C_15
REMARK    7  A    between atoms: C_12  and  C_13
REMARK    8  A    between atoms: C_12  and  C_14
REMARK    9  A    between atoms: N_17  and  C_18
REMARK   10  A    between atoms: C_27  and  C_29
REMARK   11  A    between atoms: C_29  and  S_30
REMARK   12  A    between atoms: S_30  and  C_31
REMARK   13  A    between atoms: C_33  and  C_38
REMARK   14  A    between atoms: C_35  and  C_37
REMARK                            x       y       z     vdW  Elec       q    Type
REMARK                         _______ _______ _______ _____ _____    ______ ____
ROOT
ATOM      1  N   UNL     1       4.529   5.866  -0.709  0.00  0.00    -0.285 N 
ATOM      2  C   UNL     1       3.756   4.822  -0.349  0.00  0.00    +0.227 C 
ATOM      3  O   UNL     1       2.552   4.950  -0.293  0.00  0.00    -0.275 OA
ENDROOT
BRANCH   1   4
ATOM      4  C   UNL     1       5.981   5.702  -0.809  0.00  0.00    +0.144 C 
BRANCH   4  11
ATOM      5  C   UNL     1       6.025   5.155   2.027  0.00  0.00    +0.044 C 
ATOM      6  C   UNL     1       6.682   6.401   1.490  0.00  0.00    -0.046 A 
ATOM      7  C   UNL     1       7.306   7.281   2.354  0.00  0.00    +0.003 A 
ATOM      8  C   UNL     1       7.908   8.423   1.861  0.00  0.00    +0.000 A 
ATOM      9  C   UNL     1       7.887   8.685   0.504  0.00  0.00    +0.000 A 
ATOM     10  C   UNL     1       7.268   7.802  -0.361  0.00  0.00    +0.005 A 
ATOM     11  C   UNL     1       6.661   6.662   0.133  0.00  0.00    -0.027 A 
ENDBRANCH   4  11
ENDBRANCH   1   4
BRANCH   1  12
ATOM     12  C   UNL     1       3.916   7.164  -1.002  0.00  0.00    +0.165 C 
BRANCH  12  13
ATOM     13  C   UNL     1       4.110   8.087   0.174  0.00  0.00    +0.238 C 
ATOM     14  O   UNL     1       4.828   7.755   1.093  0.00  0.00    -0.273 OA
ATOM     15  N   UNL     1       3.485   9.281   0.203  0.00  0.00    -0.284 N 
ATOM     16  H   UNL     1       2.874   9.526  -0.509  0.00  0.00    +0.155 HD
BRANCH  15  17
ATOM     17  C   UNL     1       3.718  10.167   1.262  0.00  0.00    +0.037 A 
ATOM     18  C   UNL     1       3.920   9.678   2.546  0.00  0.00    +0.027 A 
ATOM     19  C   UNL     1       4.154  10.551   3.591  0.00  0.00    +0.051 A 
ATOM     20  C   UNL     1       4.178  11.917   3.363  0.00  0.00    +0.166 A 
ATOM     21  C   UNL     1       3.971  12.412   2.078  0.00  0.00    +0.168 A 
ATOM     22  C   UNL     1       3.741  11.536   1.030  0.00  0.00    +0.072 A 
ATOM     23  O   UNL     1       4.044  13.774   2.117  0.00  0.00    -0.453 OA
ATOM     24  C   UNL     1       3.891  14.128   3.504  0.00  0.00    +0.466 C 
ATOM     25  O   UNL     1       4.381  12.971   4.208  0.00  0.00    -0.453 OA
ENDBRANCH  15  17
ENDBRANCH  12  13
BRANCH  12  26
ATOM     26  C   UNL     1       4.576   7.771  -2.241  0.00  0.00    +0.012 C 
ATOM     27  C   UNL     1       4.295   6.883  -3.455  0.00  0.00    +0.009 C 
ATOM     28  C   UNL     1       4.005   9.169  -2.489  0.00  0.00    +0.009 C 
ENDBRANCH  12  26
ENDBRANCH   1  12
BRANCH   2  29
ATOM     29  C   UNL     1       4.390   3.496  -0.015  0.00  0.00    +0.173 C 
BRANCH  29  30
ATOM     30  S   UNL     1       3.122   2.359   0.598  0.00  0.00    -0.077 S 
BRANCH  30  31
ATOM     31  C   UNL     1       4.110   0.932   0.902  0.00  0.00    +0.189 A 
ATOM     32  N   UNL     1       3.536  -0.164   1.376  0.00  0.00    -0.227 NA
ATOM     33  C   UNL     1       4.250  -1.252   1.615  0.00  0.00    +0.043 A 
ATOM     34  C   UNL     1       5.613  -1.235   1.364  0.00  0.00    +0.046 A 
ATOM     35  C   UNL     1       6.181  -0.072   0.868  0.00  0.00    +0.043 A 
ATOM     36  N   UNL     1       5.411   0.981   0.651  0.00  0.00    -0.227 NA
ATOM     37  C   UNL     1       7.659  -0.007   0.581  0.00  0.00    +0.066 C 
ATOM     38  C   UNL     1       3.589  -2.494   2.154  0.00  0.00    +0.066 C 
ENDBRANCH  30  31
ENDBRANCH  29  30
ENDBRANCH   2  29
TORSDOF 9
