REMARK  Name = ZINC38547313
REMARK  7 active torsions:
REMARK  status: ('A' for Active; 'I' for Inactive)
REMARK    1  A    between atoms: C_1  and  C_2
REMARK    2  A    between atoms: C_6  and  N_8
REMARK    3  A    between atoms: N_8  and  C_9
REMARK    4  A    between atoms: C_9  and  C_11
REMARK    5  A    between atoms: C_9  and  C_18
REMARK    6  A    between atoms: C_22  and  N_23
REMARK    7  A    between atoms: C_24  and  C_26
REMARK                            x       y       z     vdW  Elec       q    Type
REMARK                         _______ _______ _______ _____ _____    ______ ____
ROOT
ATOM      1  C   UNL     1       0.372  -4.519   2.227  0.00  0.00    +0.135 C 
ENDROOT
BRANCH   1   2
ATOM      2  C   UNL     1      -0.583  -4.834   3.349  0.00  0.00    +0.009 A 
ATOM      3  C   UNL     1      -1.752  -5.550   3.092  0.00  0.00    -0.030 A 
ATOM      4  C   UNL     1      -2.563  -5.795   4.156  0.00  0.00    -0.005 A 
ATOM      5  S   UNL     1      -1.717  -5.040   5.519  0.00  0.00    -0.078 S 
ATOM      6  C   UNL     1      -0.303  -4.426   4.616  0.00  0.00    +0.078 A 
ATOM      7  C   UNL     1      -3.864  -6.531   4.159  0.00  0.00    +0.043 C 
ATOM      8  C   UNL     1      -4.347  -6.664   2.707  0.00  0.00    +0.005 C 
ATOM      9  C   UNL     1      -3.181  -7.155   1.845  0.00  0.00    +0.005 C 
ATOM     10  C   UNL     1      -2.135  -6.049   1.701  0.00  0.00    +0.036 C 
BRANCH   6  11
ATOM     11  N   UNL     1       0.799  -3.711   5.088  0.00  0.00    -0.273 N 
ATOM     12  C   UNL     1       0.955  -3.508   6.411  0.00  0.00    +0.284 C 
ATOM     13  O   UNL     1       0.134  -3.948   7.195  0.00  0.00    -0.266 OA
ATOM     14  H   UNL     1       1.454  -3.361   4.463  0.00  0.00    +0.156 HD
BRANCH  12  15
ATOM     15  C   UNL     1       2.113  -2.758   6.906  0.00  0.00    +0.189 A 
ATOM     16  C   UNL     1       2.394  -2.486   8.215  0.00  0.00    +0.054 A 
ATOM     17  C   UNL     1       3.589  -1.751   8.227  0.00  0.00    +0.042 A 
ATOM     18  C   UNL     1       3.981  -1.607   6.942  0.00  0.00    +0.196 A 
ATOM     19  O   UNL     1       3.092  -2.220   6.149  0.00  0.00    -0.458 OA
ENDBRANCH  12  15
ENDBRANCH   6  11
ENDBRANCH   1   2
BRANCH   1  20
ATOM     20  C   UNL     1       1.587  -5.404   2.337  0.00  0.00    -0.023 A 
ATOM     21  C   UNL     1       2.682  -4.987   3.070  0.00  0.00    +0.007 A 
ATOM     22  C   UNL     1       3.796  -5.799   3.171  0.00  0.00    +0.020 A 
ATOM     23  C   UNL     1       3.815  -7.029   2.538  0.00  0.00    +0.041 A 
ATOM     24  C   UNL     1       2.718  -7.446   1.804  0.00  0.00    +0.020 A 
ATOM     25  C   UNL     1       1.603  -6.636   1.708  0.00  0.00    +0.007 A 
ATOM     26 CL   UNL     1       5.214  -8.049   2.664  0.00  0.00    -0.084 Cl
ENDBRANCH   1  20
BRANCH   1  27
ATOM     27  N   UNL     1       0.782  -3.115   2.314  0.00  0.00    -0.320 N 
ATOM     28  H   UNL     1       0.559  -2.592   3.100  0.00  0.00    +0.148 HD
BRANCH  27  34
ATOM     29  C   UNL     1       2.925   0.777   0.532  0.00  0.00    +0.063 C 
ATOM     30  C   UNL     1       2.531  -0.670   0.387  0.00  0.00    +0.014 A 
ATOM     31  C   UNL     1       2.878  -1.359  -0.758  0.00  0.00    +0.021 A 
ATOM     32  C   UNL     1       2.512  -2.692  -0.886  0.00  0.00    +0.005 A 
ATOM     33  C   UNL     1       1.807  -3.286   0.145  0.00  0.00    +0.041 A 
ATOM     34  C   UNL     1       1.491  -2.531   1.270  0.00  0.00    +0.097 A 
ATOM     35  N   UNL     1       1.863  -1.263   1.357  0.00  0.00    -0.347 N 
ATOM     36  H   UNL     1       1.635  -0.757   2.153  0.00  0.00    +0.167 HD
ENDBRANCH  27  34
ENDBRANCH   1  27
TORSDOF 6
