REMARK  Name = ZINC49729485
REMARK  4 active torsions:
REMARK  status: ('A' for Active; 'I' for Inactive)
REMARK    1  A    between atoms: C_6  and  C_7
REMARK    2  A    between atoms: C_7  and  C_9
REMARK    3  A    between atoms: C_7  and  N_13
REMARK    4  A    between atoms: C_9  and  C_10
REMARK                            x       y       z     vdW  Elec       q    Type
REMARK                         _______ _______ _______ _____ _____    ______ ____
ROOT
ATOM      1  C   UNL     1      -0.017   1.378   0.010  0.00  0.00    +0.005 A 
ATOM      2  C   UNL     1       1.169   2.091   0.002  0.00  0.00    +0.048 A 
ATOM      3  C   UNL     1       2.378   1.419  -0.013  0.00  0.00    +0.142 A 
ATOM      4  C   UNL     1       2.397   0.025  -0.021  0.00  0.00    +0.076 A 
ATOM      5  C   UNL     1       1.207  -0.684  -0.013  0.00  0.00    +0.029 A 
ATOM      6  C   UNL     1       0.002  -0.004   0.002  0.00  0.00    -0.060 A 
ATOM      7  N   UNL     1       3.629  -0.644  -0.038  0.00  0.00    -0.280 N 
ATOM      8  C   UNL     1       4.751   0.043   0.269  0.00  0.00    +0.255 C 
ATOM      9  O   UNL     1       5.831  -0.507   0.231  0.00  0.00    -0.272 OA
ATOM     10  C   UNL     1       4.655   1.496   0.659  0.00  0.00    +0.325 C 
ATOM     11  O   UNL     1       3.552   2.104  -0.020  0.00  0.00    -0.481 OA
ATOM     12  H   UNL     1       3.675  -1.586  -0.267  0.00  0.00    +0.155 HD
ENDROOT
BRANCH   6  13
ATOM     13  C   UNL     1      -1.294  -0.773   0.011  0.00  0.00    -0.044 C 
BRANCH  13  14
ATOM     14  N   UNL     1      -2.247  -0.115   0.914  0.00  0.00    +0.383 N 
ATOM     15  H   UNL     1      -1.864  -0.091   1.848  0.00  0.00    -0.089 HD
ATOM     16  H   UNL     1      -2.417   0.827   0.596  0.00  0.00    -0.089 HD
ATOM     17  H   UNL     1      -3.115  -0.630   0.920  0.00  0.00    -0.089 HD
ENDBRANCH  13  14
BRANCH  13  18
ATOM     18  C   UNL     1      -1.875  -0.810  -1.404  0.00  0.00    -0.008 C 
BRANCH  18  19
ATOM     19  C   UNL     1      -3.123  -1.694  -1.420  0.00  0.00    -0.012 C 
ATOM     20  C   UNL     1      -3.080  -2.963  -2.274  0.00  0.00    +0.004 C 
ATOM     21  C   UNL     1      -3.921  -1.767  -2.723  0.00  0.00    +0.004 C 
ENDBRANCH  18  19
ENDBRANCH  13  18
ENDBRANCH   6  13
TORSDOF 4
