REMARK  Name = ZINC09647496
REMARK  13 active torsions:
REMARK  status: ('A' for Active; 'I' for Inactive)
REMARK    1  A    between atoms: C_1  and  C_2
REMARK    2  A    between atoms: C_3  and  C_35
REMARK    3  A    between atoms: C_7  and  N_18
REMARK    4  A    between atoms: C_9  and  C_11
REMARK    5  A    between atoms: C_11  and  N_65
REMARK    6  A    between atoms: C_14  and  C_17
REMARK    7  A    between atoms: N_18  and  C_19
REMARK    8  A    between atoms: C_19  and  C_21
REMARK    9  A    between atoms: C_19  and  C_23
REMARK   10  A    between atoms: C_21  and  O_22
REMARK   11  A    between atoms: C_23  and  C_25
REMARK   12  A    between atoms: C_23  and  O_34
REMARK   13  A    between atoms: C_28  and  N_31
REMARK                            x       y       z     vdW  Elec       q    Type
REMARK                         _______ _______ _______ _____ _____    ______ ____
ROOT
ATOM      1  C   UNK A   0       4.904   1.653   0.019  0.00  0.00    +0.045 C 
ATOM      2  C   UNK A   0       3.507   2.216   0.030  0.00  0.00    -0.028 A 
ATOM      3  C   UNK A   0       3.299   3.510   0.318  0.00  0.00    -0.008 A 
ATOM      4  S   UNK A   0       1.528   3.682   0.204  0.00  0.00    -0.074 S 
ATOM      5  C   UNK A   0       1.115   2.013  -0.227  0.00  0.00    +0.114 A 
ATOM      6  C   UNK A   0       2.369   1.365  -0.271  0.00  0.00    +0.051 A 
ATOM      7  C   UNK A   0       2.330  -0.018  -0.601  0.00  0.00    +0.131 A 
ATOM      8  N   UNK A   0       1.161  -0.591  -0.838  0.00  0.00    -0.219 NA
ATOM      9  C   UNK A   0       0.024   0.078  -0.779  0.00  0.00    +0.116 A 
ATOM     10  N   UNK A   0      -0.004   1.362  -0.478  0.00  0.00    -0.227 NA
ATOM     11  C   UNK A   0       4.319   4.565   0.657  0.00  0.00    +0.052 C 
ENDROOT
BRANCH   7  12
ATOM     12  N   UNK A   1       3.499  -0.754  -0.673  0.00  0.00    -0.321 N 
ATOM     13  H   UNK A   1       4.357  -0.311  -0.583  0.00  0.00    +0.148 HD
BRANCH  12  14
ATOM     14  C   UNK A   1       3.440  -2.202  -0.886  0.00  0.00    +0.130 C 
BRANCH  14  15
ATOM     15  C   UNK A   1       3.252  -2.908   0.458  0.00  0.00    +0.181 C 
BRANCH  15  16
ATOM     16  O   UNK A   1       4.404  -2.692   1.275  0.00  0.00    -0.393 OA
ATOM     17  H   UNK A   1       4.354  -3.112   2.145  0.00  0.00    +0.209 HD
ENDBRANCH  15  16
ENDBRANCH  14  15
BRANCH  14  18
ATOM     18  C   UNK A   1       4.743  -2.676  -1.532  0.00  0.00    +0.167 C 
BRANCH  18  19
ATOM     19  C   UNK A   1       4.991  -1.892  -2.796  0.00  0.00    -0.017 A 
ATOM     20  C   UNK A   1       5.618  -0.661  -2.734  0.00  0.00    +0.008 A 
ATOM     21  C   UNK A   1       5.849   0.055  -3.893  0.00  0.00    +0.033 A 
ATOM     22  C   UNK A   1       5.445  -0.455  -5.113  0.00  0.00    +0.126 A 
ATOM     23  C   UNK A   1       4.814  -1.683  -5.174  0.00  0.00    +0.033 A 
ATOM     24  C   UNK A   1       4.587  -2.402  -4.016  0.00  0.00    +0.008 A 
BRANCH  22  25
ATOM     25  N   UNK A   1       5.688   0.315  -6.354  0.00  0.00    +0.056 N 
ATOM     26  O   UNK A   1       5.331  -0.133  -7.428  0.00  0.00    -0.126 OA
ATOM     27  O   UNK A   1       6.244   1.398  -6.300  0.00  0.00    -0.126 OA
ENDBRANCH  22  25
ENDBRANCH  18  19
BRANCH  18  28
ATOM     28  O   UNK A   1       5.827  -2.471  -0.624  0.00  0.00    -0.385 OA
ATOM     29  H   UNK A   1       5.956  -1.547  -0.367  0.00  0.00    +0.210 HD
ENDBRANCH  18  28
ENDBRANCH  14  18
ENDBRANCH  12  14
ENDBRANCH   7  12
BRANCH   9  30
ATOM     30  C   UNK A   0      -1.270  -0.640  -1.062  0.00  0.00    -0.001 C 
BRANCH  30  37
ATOM     31  C   UNK A   0      -0.384  -0.858  -3.304  0.00  0.00    -0.078 C 
ATOM     32  C   UNK A   0      -0.696  -0.620  -4.784  0.00  0.00    -0.016 C 
ATOM     33  C   UNK A   0      -1.862  -1.518  -5.205  0.00  0.00    -0.018 C 
ATOM     34  C   UNK A   0      -3.073  -1.219  -4.317  0.00  0.00    -0.016 C 
ATOM     35  C   UNK A   0      -2.692  -1.439  -2.851  0.00  0.00    -0.078 C 
ATOM     36  C   UNK A   0      -2.219  -1.241  -6.667  0.00  0.00    +0.007 C 
ATOM     37  N   UNK A   0      -1.581  -0.528  -2.502  0.00  0.00    +0.384 N 
ATOM     38  H   UNK A   0      -1.864   0.437  -2.708  0.00  0.00    -0.081 HD
ENDBRANCH  30  37
ENDBRANCH   9  30
TORSDOF 10
