REMARK  Name = ZINC02726077
REMARK  10 active torsions:
REMARK  status: ('A' for Active; 'I' for Inactive)
REMARK    1  A    between atoms: C_1  and  C_2
REMARK    2  A    between atoms: C_2  and  C_4
REMARK    3  A    between atoms: C_2  and  N_50
REMARK    4  A    between atoms: C_7  and  S_16
REMARK    5  A    between atoms: N_8  and  C_9
REMARK    6  A    between atoms: S_16  and  C_17
REMARK    7  A    between atoms: C_17  and  C_18
REMARK    8  A    between atoms: N_20  and  C_21
REMARK    9  A    between atoms: C_29  and  N_50
REMARK   10  A    between atoms: C_30  and  N_50
REMARK                            x       y       z     vdW  Elec       q    Type
REMARK                         _______ _______ _______ _____ _____    ______ ____
ROOT
ATOM      1  C   UNL     1      -1.698   3.494   0.079  0.00  0.00    +0.125 A 
ATOM      2  N   UNL     1      -1.674   3.050  -1.146  0.00  0.00    -0.135 NA
ATOM      3  N   UNL     1      -2.598   3.614  -1.839  0.00  0.00    -0.122 NA
ATOM      4  C   UNL     1      -3.264   4.463  -1.091  0.00  0.00    +0.197 A 
ATOM      5  N   UNL     1      -2.710   4.414   0.159  0.00  0.00    -0.275 N 
ENDROOT
BRANCH   5   6
ATOM      6  C   UNL     1      -3.097   5.152   1.288  0.00  0.00    +0.050 A 
ATOM      7  C   UNL     1      -3.626   4.502   2.395  0.00  0.00    +0.028 A 
ATOM      8  C   UNL     1      -4.001   5.230   3.507  0.00  0.00    +0.022 A 
ATOM      9  C   UNL     1      -3.861   6.607   3.514  0.00  0.00    +0.041 A 
ATOM     10  C   UNL     1      -3.340   7.257   2.409  0.00  0.00    +0.022 A 
ATOM     11  C   UNL     1      -2.958   6.533   1.297  0.00  0.00    +0.028 A 
ATOM     12 CL   UNL     1      -4.341   7.519   4.910  0.00  0.00    -0.084 Cl
ENDBRANCH   5   6
BRANCH   1  14
ATOM     13  C   UNL     1       0.599   3.713   0.989  0.00  0.00    -0.005 C 
ATOM     14  C   UNL     1      -0.778   3.079   1.198  0.00  0.00    -0.003 C 
BRANCH  14  17
ATOM     15  C   UNL     1       0.039   1.143  -0.005  0.00  0.00    -0.096 C 
ATOM     16  C   UNL     1       0.046   1.155   2.416  0.00  0.00    -0.096 C 
ATOM     17  N   UNL     1      -0.672   1.604   1.205  0.00  0.00    +0.382 N 
ATOM     18  H   UNL     1      -1.617   1.202   1.210  0.00  0.00    -0.082 HD
ENDBRANCH  14  17
ENDBRANCH   1  14
BRANCH   4  19
ATOM     19  S   UNL     1      -4.615   5.473  -1.599  0.00  0.00    -0.076 S 
BRANCH  19  20
ATOM     20  C   UNL     1      -4.743   4.976  -3.335  0.00  0.00    +0.173 C 
BRANCH  20  21
ATOM     21  C   UNL     1      -5.867   5.735  -3.993  0.00  0.00    +0.228 C 
ATOM     22  O   UNL     1      -6.517   6.532  -3.352  0.00  0.00    -0.275 OA
ATOM     23  N   UNL     1      -6.149   5.526  -5.294  0.00  0.00    -0.283 N 
ATOM     24  H   UNL     1      -5.589   4.937  -5.824  0.00  0.00    +0.155 HD
BRANCH  23  25
ATOM     25  C   UNL     1      -7.251   6.160  -5.882  0.00  0.00    +0.069 A 
ATOM     26  C   UNL     1      -7.613   7.439  -5.482  0.00  0.00    +0.027 A 
ATOM     27  C   UNL     1      -8.700   8.062  -6.063  0.00  0.00    +0.017 A 
ATOM     28  C   UNL     1      -9.429   7.414  -7.044  0.00  0.00    +0.021 A 
ATOM     29  C   UNL     1      -9.072   6.139  -7.446  0.00  0.00    +0.055 A 
ATOM     30  C   UNL     1      -7.982   5.512  -6.872  0.00  0.00    +0.146 A 
ATOM     31  F   UNL     1      -7.629   4.269  -7.268  0.00  0.00    -0.204 F 
ATOM     32 BR   UNL     1     -10.917   8.271  -7.836  0.00  0.00    -0.050 Br
ENDBRANCH  23  25
ENDBRANCH  20  21
ENDBRANCH  19  20
ENDBRANCH   4  19
TORSDOF 7
