REMARK  Name = ZINC65127592
REMARK  9 active torsions:
REMARK  status: ('A' for Active; 'I' for Inactive)
REMARK    1  A    between atoms: C_1  and  C_2
REMARK    2  A    between atoms: C_2  and  C_3
REMARK    3  A    between atoms: C_3  and  C_4
REMARK    4  A    between atoms: C_4  and  C_5
REMARK    5  A    between atoms: C_5  and  N_6
REMARK    6  A    between atoms: N_9  and  N_10
REMARK    7  A    between atoms: C_11  and  C_13
REMARK    8  A    between atoms: C_13  and  N_14
REMARK    9  A    between atoms: C_15  and  C_17
REMARK                            x       y       z     vdW  Elec       q    Type
REMARK                         _______ _______ _______ _____ _____    ______ ____
ROOT
ATOM      1  C   UNL     1      -1.409  -8.862  -0.017  0.00  0.00    +0.202 C 
ENDROOT
BRANCH   1   3
ATOM      2  N   UNL     1      -2.741  -6.778   0.027  0.00  0.00    -0.232 N 
ATOM      3  C   UNL     1      -2.724  -8.125   0.015  0.00  0.00    +0.246 C 
ATOM      4  O   UNL     1      -3.766  -8.745   0.029  0.00  0.00    -0.273 OA
ATOM      5  H   UNL     1      -1.907  -6.282   0.015  0.00  0.00    +0.173 HD
BRANCH   2   9
ATOM      6  N   UNL     1      -2.821  -4.056   0.052  0.00  0.00    -0.298 N 
ATOM      7  C   UNL     1      -3.980  -4.745   0.068  0.00  0.00    +0.316 C 
ATOM      8  O   UNL     1      -5.040  -4.151   0.093  0.00  0.00    -0.251 OA
ATOM      9  N   UNL     1      -3.963  -6.093   0.056  0.00  0.00    -0.218 N 
ATOM     10  H   UNL     1      -1.976  -4.530   0.032  0.00  0.00    +0.150 HD
ATOM     11  H   UNL     1      -4.796  -6.588   0.067  0.00  0.00    +0.174 HD
BRANCH   6  12
ATOM     12  C   UNL     1      -2.840  -2.592   0.065  0.00  0.00    +0.106 C 
BRANCH  12  13
ATOM     13  C   UNL     1      -1.405  -2.063   0.043  0.00  0.00    +0.019 C 
BRANCH  13  14
ATOM     14  C   UNL     1      -1.424  -0.533   0.057  0.00  0.00    +0.001 C 
BRANCH  14  16
ATOM     15  C   UNL     1      -0.008   1.525   0.048  0.00  0.00    +0.004 C 
ATOM     16  C   UNL     1       0.012  -0.005   0.034  0.00  0.00    -0.003 C 
ENDBRANCH  14  16
ENDBRANCH  13  14
ENDBRANCH  12  13
ENDBRANCH   6  12
ENDBRANCH   2   9
ENDBRANCH   1   3
BRANCH   1  17
ATOM     17  N   UNL     1      -1.659 -10.306  -0.025  0.00  0.00    -0.303 N 
ATOM     18  C   UNL     1      -0.624 -11.168  -0.052  0.00  0.00    +0.250 C 
ATOM     19  O   UNL     1       0.513 -10.750  -0.164  0.00  0.00    -0.270 OA
ATOM     20  H   UNL     1      -2.569 -10.640  -0.011  0.00  0.00    +0.150 HD
BRANCH  18  21
ATOM     21  C   UNL     1      -0.869 -12.615   0.054  0.00  0.00    +0.100 A 
ATOM     22  C   UNL     1       0.186 -13.500   0.143  0.00  0.00    +0.100 A 
ATOM     23  N   UNL     1       0.001 -14.823   0.241  0.00  0.00    -0.360 N 
ATOM     24  C   UNL     1      -1.249 -15.403   0.259  0.00  0.00    +0.050 A 
ATOM     25  C   UNL     1      -1.387 -16.785   0.362  0.00  0.00    +0.026 A 
ATOM     26  C   UNL     1      -2.642 -17.352   0.380  0.00  0.00    +0.002 A 
ATOM     27  C   UNL     1      -3.779 -16.561   0.296  0.00  0.00    +0.001 A 
ATOM     28  C   UNL     1      -3.667 -15.193   0.193  0.00  0.00    +0.014 A 
ATOM     29  C   UNL     1      -2.402 -14.604   0.174  0.00  0.00    +0.046 A 
ATOM     30  C   UNL     1      -2.243 -13.142   0.072  0.00  0.00    +0.201 A 
ATOM     31  O   UNL     1      -3.208 -12.401   0.000  0.00  0.00    -0.286 OA
ATOM     32  H   UNL     1       0.780 -15.398   0.301  0.00  0.00    +0.165 HD
ENDBRANCH  18  21
ENDBRANCH   1  17
TORSDOF 8
