REMARK  Name = ZINC09184792
REMARK  11 active torsions:
REMARK  status: ('A' for Active; 'I' for Inactive)
REMARK    1  A    between atoms: C_1  and  C_2
REMARK    2  A    between atoms: C_5  and  S_8
REMARK    3  A    between atoms: S_8  and  C_11
REMARK    4  A    between atoms: C_12  and  N_26
REMARK    5  A    between atoms: C_14  and  S_16
REMARK    6  A    between atoms: S_16  and  C_19
REMARK    7  A    between atoms: C_22  and  C_25
REMARK    8  A    between atoms: N_26  and  C_27
REMARK    9  A    between atoms: C_27  and  C_28
REMARK   10  A    between atoms: C_28  and  C_29
REMARK   11  A    between atoms: C_29  and  N_30
REMARK                            x       y       z     vdW  Elec       q    Type
REMARK                         _______ _______ _______ _____ _____    ______ ____
ROOT
ATOM      1  C   UNL     1       1.133  -0.678  -0.012  0.00  0.00    +0.212 A 
ATOM      2  C   UNL     1       2.319  -0.003  -0.020  0.00  0.00    +0.113 A 
ATOM      3  S   UNL     1       1.732   1.687  -0.005  0.00  0.00    -0.032 S 
ATOM      4  C   UNL     1      -0.016   1.311   0.009  0.00  0.00    +0.224 A 
ATOM      5  N   UNL     1       0.002  -0.004   0.002  0.00  0.00    -0.201 NA
ENDROOT
BRANCH   1   6
ATOM      6  S   UNL     1       1.116  -2.440  -0.022  0.00  0.00    +0.044 S 
ATOM      7  O   UNL     1       2.363  -2.861   0.514  0.00  0.00    -0.163 OA
ATOM      8  O   UNL     1      -0.128  -2.837   0.538  0.00  0.00    -0.163 OA
BRANCH   6  13
ATOM      9  C   UNL     1       1.042  -4.191  -5.796  0.00  0.00    +0.044 C 
ATOM     10  C   UNL     1       1.060  -3.754  -4.354  0.00  0.00    -0.050 A 
ATOM     11  C   UNL     1       2.266  -3.565  -3.704  0.00  0.00    +0.005 A 
ATOM     12  C   UNL     1       2.283  -3.164  -2.381  0.00  0.00    +0.028 A 
ATOM     13  C   UNL     1       1.094  -2.951  -1.708  0.00  0.00    +0.095 A 
ATOM     14  C   UNL     1      -0.111  -3.146  -2.356  0.00  0.00    +0.028 A 
ATOM     15  C   UNL     1      -0.128  -3.543  -3.680  0.00  0.00    +0.005 A 
ENDBRANCH   6  13
ENDBRANCH   1   6
BRANCH   4  16
ATOM     16  S   UNL     1      -1.394   2.409   0.022  0.00  0.00    +0.049 S 
ATOM     17  O   UNL     1      -0.938   3.639  -0.524  0.00  0.00    -0.162 OA
ATOM     18  O   UNL     1      -2.490   1.690  -0.527  0.00  0.00    -0.162 OA
BRANCH  16  19
ATOM     19  C   UNL     1      -1.793   2.724   1.709  0.00  0.00    +0.096 A 
ATOM     20  C   UNL     1      -2.700   1.915   2.368  0.00  0.00    +0.028 A 
ATOM     21  C   UNL     1      -3.010   2.160   3.692  0.00  0.00    +0.005 A 
ATOM     22  C   UNL     1      -2.419   3.219   4.356  0.00  0.00    -0.050 A 
ATOM     23  C   UNL     1      -1.517   4.032   3.696  0.00  0.00    +0.005 A 
ATOM     24  C   UNL     1      -1.204   3.784   2.372  0.00  0.00    +0.028 A 
ATOM     25  C   UNL     1      -2.760   3.489   5.799  0.00  0.00    +0.044 C 
ENDBRANCH  16  19
ENDBRANCH   4  16
BRANCH   2  26
ATOM     26  N   UNL     1       3.626  -0.494  -0.035  0.00  0.00    -0.336 N 
ATOM     27  H   UNL     1       3.785  -1.451  -0.042  0.00  0.00    +0.147 HD
BRANCH  26  28
ATOM     28  C   UNL     1       4.758   0.436  -0.041  0.00  0.00    +0.104 C 
BRANCH  28  29
ATOM     29  C   UNL     1       6.068  -0.354  -0.058  0.00  0.00    +0.040 C 
BRANCH  29  30
ATOM     30  C   UNL     1       7.250   0.617  -0.064  0.00  0.00    +0.124 C 
BRANCH  30  31
ATOM     31  N   UNL     1       8.504  -0.140  -0.080  0.00  0.00    -0.337 N 
ATOM     32  C   UNL     1       9.213  -0.561   1.013  0.00  0.00    +0.106 A 
ATOM     33  C   UNL     1      10.292  -1.219   0.548  0.00  0.00    +0.130 A 
ATOM     34  N   UNL     1      10.248  -1.193  -0.792  0.00  0.00    -0.244 NA
ATOM     35  C   UNL     1       9.180  -0.548  -1.176  0.00  0.00    +0.199 A 
ENDBRANCH  30  31
ENDBRANCH  29  30
ENDBRANCH  28  29
ENDBRANCH  26  28
ENDBRANCH   2  26
TORSDOF 9
