REMARK  Name = ZINC54698750
REMARK  11 active torsions:
REMARK  status: ('A' for Active; 'I' for Inactive)
REMARK    1  A    between atoms: C_1  and  C_2
REMARK    2  A    between atoms: C_2  and  C_4
REMARK    3  A    between atoms: C_2  and  N_10
REMARK    4  A    between atoms: C_13  and  N_16
REMARK    5  A    between atoms: N_19  and  C_20
REMARK    6  A    between atoms: N_19  and  C_23
REMARK    7  A    between atoms: C_20  and  C_21
REMARK    8  A    between atoms: C_21  and  O_22
REMARK    9  A    between atoms: C_23  and  C_24
REMARK   10  A    between atoms: C_29  and  O_30
REMARK   11  A    between atoms: O_30  and  C_31
REMARK                            x       y       z     vdW  Elec       q    Type
REMARK                         _______ _______ _______ _____ _____    ______ ____
ROOT
ATOM      1  N   UNL     1       1.820  -3.151   3.079  0.00  0.00    -0.298 N 
ATOM      2  C   UNL     1       1.765  -4.000   4.124  0.00  0.00    +0.303 C 
ATOM      3  O   UNL     1       0.721  -4.156   4.726  0.00  0.00    -0.253 OA
ATOM      4  N   UNL     1       2.868  -4.676   4.501  0.00  0.00    -0.279 N 
ATOM      5  H   UNL     1       2.653  -3.027   2.598  0.00  0.00    +0.150 HD
ENDROOT
BRANCH   1   9
ATOM      6  N   UNL     1       0.713  -0.491   1.192  0.00  0.00    +0.385 N 
ATOM      7  C   UNL     1      -0.018  -0.094   2.423  0.00  0.00    -0.076 C 
ATOM      8  C   UNL     1       0.491  -1.107   3.479  0.00  0.00    +0.002 C 
ATOM      9  C   UNL     1       0.621  -2.416   2.668  0.00  0.00    +0.056 C 
ATOM     10  C   UNL     1       0.742  -1.969   1.200  0.00  0.00    -0.056 C 
ATOM     11  H   UNL     1       1.652  -0.124   1.211  0.00  0.00    -0.081 HD
BRANCH   6  13
ATOM     12  C   UNL     1      -0.019   1.526   0.010  0.00  0.00    -0.008 C 
ATOM     13  C   UNL     1       0.002  -0.004   0.002  0.00  0.00    -0.041 C 
BRANCH  13  14
ATOM     14  C   UNL     1       0.707  -0.490  -1.238  0.00  0.00    -0.061 A 
ATOM     15  C   UNL     1       2.089  -0.511  -1.284  0.00  0.00    +0.002 A 
ATOM     16  C   UNL     1       2.736  -0.957  -2.421  0.00  0.00    +0.000 A 
ATOM     17  C   UNL     1       2.002  -1.382  -3.512  0.00  0.00    +0.000 A 
ATOM     18  C   UNL     1       0.620  -1.362  -3.466  0.00  0.00    +0.000 A 
ATOM     19  C   UNL     1      -0.027  -0.920  -2.327  0.00  0.00    +0.002 A 
ENDBRANCH  13  14
ENDBRANCH   6  13
ENDBRANCH   1   9
BRANCH   4  20
ATOM     20  C   UNL     1       4.127  -4.489   3.775  0.00  0.00    +0.137 C 
BRANCH  20  21
ATOM     21  C   UNL     1       4.919  -3.347   4.415  0.00  0.00    +0.175 C 
BRANCH  21  22
ATOM     22  O   UNL     1       5.300  -3.717   5.742  0.00  0.00    -0.393 OA
ATOM     23  H   UNL     1       5.806  -3.038   6.209  0.00  0.00    +0.209 HD
ENDBRANCH  21  22
ENDBRANCH  20  21
ENDBRANCH   4  20
BRANCH   4  24
ATOM     24  C   UNL     1       2.808  -5.599   5.638  0.00  0.00    +0.148 C 
BRANCH  24  25
ATOM     25  C   UNL     1       2.439  -6.976   5.148  0.00  0.00    +0.012 A 
ATOM     26  C   UNL     1       1.137  -7.423   5.259  0.00  0.00    +0.009 A 
ATOM     27  C   UNL     1       0.797  -8.686   4.811  0.00  0.00    +0.001 A 
ATOM     28  C   UNL     1       1.760  -9.504   4.249  0.00  0.00    +0.004 A 
ATOM     29  C   UNL     1       3.063  -9.062   4.135  0.00  0.00    +0.046 A 
ATOM     30  C   UNL     1       3.405  -7.793   4.580  0.00  0.00    +0.125 A 
BRANCH  30  31
ATOM     31  O   UNL     1       4.686  -7.353   4.463  0.00  0.00    -0.495 OA
ATOM     32  C   UNL     1       5.628  -8.248   3.868  0.00  0.00    +0.277 C 
ENDBRANCH  30  31
ENDBRANCH  24  25
ENDBRANCH   4  24
TORSDOF 9
