REMARK  Name = ZINC59372446
REMARK  8 active torsions:
REMARK  status: ('A' for Active; 'I' for Inactive)
REMARK    1  A    between atoms: C_4  and  S_7
REMARK    2  A    between atoms: S_7  and  N_10
REMARK    3  A    between atoms: N_10  and  C_11
REMARK    4  A    between atoms: N_10  and  C_26
REMARK    5  A    between atoms: C_11  and  C_12
REMARK    6  A    between atoms: N_14  and  N_15
REMARK    7  A    between atoms: C_16  and  C_17
REMARK    8  A    between atoms: C_22  and  O_23
REMARK                            x       y       z     vdW  Elec       q    Type
REMARK                         _______ _______ _______ _____ _____    ______ ____
ROOT
ATOM      1  N   UNL     1       4.378  -1.079   1.536  0.00  0.00    -0.194 N 
ENDROOT
BRANCH   1   2
ATOM      2  C   UNL     1       5.241  -0.180   2.167  0.00  0.00    +0.053 A 
ATOM      3  C   UNL     1       4.914   0.340   3.413  0.00  0.00    +0.025 A 
ATOM      4  C   UNL     1       5.769   1.228   4.036  0.00  0.00    +0.003 A 
ATOM      5  C   UNL     1       6.950   1.600   3.420  0.00  0.00    +0.020 A 
ATOM      6  C   UNL     1       7.279   1.085   2.179  0.00  0.00    +0.043 A 
ATOM      7  C   UNL     1       6.429   0.191   1.553  0.00  0.00    +0.044 A 
ATOM      8 CL   UNL     1       8.762   1.556   1.409  0.00  0.00    -0.083 Cl
ENDBRANCH   1   2
BRANCH   1   9
ATOM      9  S   UNL     1       3.741  -0.711   0.052  0.00  0.00    +0.075 S 
ATOM     10  O   UNL     1       3.524  -1.947  -0.615  0.00  0.00    -0.150 OA
ATOM     11  O   UNL     1       4.554   0.317  -0.496  0.00  0.00    -0.150 OA
BRANCH   9  15
ATOM     12  C   UNL     1      -0.343   1.109   0.760  0.00  0.00    +0.000 A 
ATOM     13  C   UNL     1       0.775   1.919   0.710  0.00  0.00    +0.002 A 
ATOM     14  C   UNL     1       2.023   1.364   0.494  0.00  0.00    +0.029 A 
ATOM     15  C   UNL     1       2.151  -0.003   0.328  0.00  0.00    +0.109 A 
ATOM     16  C   UNL     1       1.032  -0.813   0.379  0.00  0.00    +0.029 A 
ATOM     17  C   UNL     1      -0.215  -0.257   0.594  0.00  0.00    +0.002 A 
ENDBRANCH   9  15
ENDBRANCH   1   9
BRANCH   1  18
ATOM     18  C   UNL     1       4.036  -2.346   2.186  0.00  0.00    +0.228 C 
BRANCH  18  19
ATOM     19  C   UNL     1       5.096  -3.371   1.877  0.00  0.00    +0.251 C 
ATOM     20  O   UNL     1       6.045  -3.072   1.182  0.00  0.00    -0.272 OA
ATOM     21  N   UNL     1       4.992  -4.620   2.373  0.00  0.00    -0.206 N 
ATOM     22  H   UNL     1       4.233  -4.859   2.929  0.00  0.00    +0.177 HD
BRANCH  21  23
ATOM     23  N   UNL     1       5.977  -5.573   2.086  0.00  0.00    -0.188 NA
ATOM     24  C   UNL     1       5.876  -6.776   2.563  0.00  0.00    +0.142 C 
BRANCH  24  25
ATOM     25  C   UNL     1       6.913  -7.778   2.261  0.00  0.00    +0.039 A 
ATOM     26  C   UNL     1       6.806  -9.075   2.768  0.00  0.00    +0.033 A 
ATOM     27  C   UNL     1       7.780 -10.009   2.482  0.00  0.00    +0.043 A 
ATOM     28  C   UNL     1       8.866  -9.666   1.693  0.00  0.00    +0.043 A 
ATOM     29  C   UNL     1       8.984  -8.385   1.185  0.00  0.00    +0.084 A 
ATOM     30  C   UNL     1       8.010  -7.437   1.458  0.00  0.00    +0.144 A 
ATOM     31 CL   UNL     1      10.349  -7.966   0.198  0.00  0.00    -0.080 Cl
ATOM     32 CL   UNL     1       7.645 -11.621   3.113  0.00  0.00    -0.083 Cl
BRANCH  30  33
ATOM     33  O   UNL     1       8.122  -6.180   0.955  0.00  0.00    -0.505 OA
ATOM     34  H   UNL     1       8.603  -5.568   1.528  0.00  0.00    +0.292 HD
ENDBRANCH  30  33
ENDBRANCH  24  25
ENDBRANCH  21  23
ENDBRANCH  18  19
ENDBRANCH   1  18
TORSDOF 8
