REMARK  Name = ZINC62610717
REMARK  6 active torsions:
REMARK  status: ('A' for Active; 'I' for Inactive)
REMARK    1  A    between atoms: C_1  and  C_2
REMARK    2  A    between atoms: C_4  and  C_12
REMARK    3  A    between atoms: C_12  and  C_14
REMARK    4  A    between atoms: C_12  and  O_18
REMARK    5  A    between atoms: C_14  and  C_16
REMARK    6  A    between atoms: C_14  and  N_17
REMARK                            x       y       z     vdW  Elec       q    Type
REMARK                         _______ _______ _______ _____ _____    ______ ____
ROOT
ATOM      1  C   UNL     1      -0.018   1.503   0.010  0.00  0.00    +0.047 C 
ATOM      2  C   UNL     1       0.002  -0.004   0.002  0.00  0.00    -0.008 A 
ATOM      3  C   UNL     1       0.006  -0.685  -1.198  0.00  0.00    +0.013 A 
ATOM      4  C   UNL     1       0.024  -2.068  -1.208  0.00  0.00    -0.020 A 
ATOM      5  C   UNL     1       0.036  -2.766  -0.015  0.00  0.00    +0.013 A 
ATOM      6  C   UNL     1       0.031  -2.088   1.192  0.00  0.00    -0.005 A 
ATOM      7  C   UNL     1       0.023  -0.704   1.204  0.00  0.00    +0.127 A 
ATOM      8  O   UNL     1       0.035   0.002   2.365  0.00  0.00    -0.491 OA
ATOM      9  C   UNL     1      -0.312  -0.685   3.568  0.00  0.00    +0.229 C 
ATOM     10  C   UNL     1       0.494  -1.989   3.631  0.00  0.00    +0.046 C 
ATOM     11  C   UNL     1       0.040  -2.885   2.471  0.00  0.00    +0.042 C 
ENDROOT
BRANCH   4  12
ATOM     12  C   UNL     1       0.029  -2.813  -2.518  0.00  0.00    +0.130 C 
BRANCH  12  13
ATOM     13  C   UNL     1      -1.393  -2.865  -3.080  0.00  0.00    -0.045 C 
ATOM     14  C   UNL     1      -1.387  -3.622  -4.410  0.00  0.00    -0.011 C 
BRANCH  13  15
ATOM     15  N   UNL     1      -2.271  -3.557  -2.127  0.00  0.00    +0.382 N 
ATOM     16  H   UNL     1      -2.275  -3.058  -1.250  0.00  0.00    -0.090 HD
ATOM     17  H   UNL     1      -3.209  -3.592  -2.498  0.00  0.00    -0.090 HD
ATOM     18  H   UNL     1      -1.933  -4.496  -1.979  0.00  0.00    -0.090 HD
ENDBRANCH  13  15
ENDBRANCH  12  13
BRANCH  12  19
ATOM     19  O   UNL     1       0.884  -2.140  -3.444  0.00  0.00    -0.389 OA
ATOM     20  H   UNL     1       0.618  -1.230  -3.635  0.00  0.00    +0.210 HD
ENDBRANCH  12  19
ENDBRANCH   4  12
TORSDOF 4
