REMARK  Name = ZINC39355737
REMARK  11 active torsions:
REMARK  status: ('A' for Active; 'I' for Inactive)
REMARK    1  A    between atoms: C_1  and  C_2
REMARK    2  A    between atoms: C_4  and  C_9
REMARK    3  A    between atoms: C_5  and  O_8
REMARK    4  A    between atoms: C_9  and  C_11
REMARK    5  A    between atoms: C_9  and  C_23
REMARK    6  A    between atoms: C_13  and  N_20
REMARK    7  A    between atoms: C_14  and  O_19
REMARK    8  A    between atoms: C_15  and  O_17
REMARK    9  A    between atoms: O_17  and  C_18
REMARK   10  A    between atoms: C_25  and  C_30
REMARK   11  A    between atoms: C_28  and  O_29
REMARK                            x       y       z     vdW  Elec       q    Type
REMARK                         _______ _______ _______ _____ _____    ______ ____
ROOT
ATOM      1  C   UNL     1       0.154  -0.158  -2.765  0.00  0.00    +0.089 C 
ENDROOT
BRANCH   1   2
ATOM      2  C   UNL     1       0.117   1.194  -3.431  0.00  0.00    +0.047 A 
ATOM      3  C   UNL     1       1.157   2.051  -3.551  0.00  0.00    +0.041 A 
ATOM      4  N   UNL     1       0.716   3.145  -4.208  0.00  0.00    -0.278 N 
ATOM      5  N   UNL     1      -0.640   2.956  -4.503  0.00  0.00    -0.136 NA
ATOM      6  C   UNL     1      -1.000   1.782  -4.043  0.00  0.00    +0.236 A 
ATOM      7  C   UNL     1       2.557   1.826  -3.041  0.00  0.00    +0.065 C 
ATOM      8  H   UNL     1       1.246   3.925  -4.435  0.00  0.00    +0.189 HD
BRANCH   6  10
ATOM      9  H   UNL     1      -2.853   1.523  -3.449  0.00  0.00    +0.294 HD
ATOM     10  O   UNL     1      -2.240   1.233  -4.139  0.00  0.00    -0.491 OA
ENDBRANCH   6  10
ENDBRANCH   1   2
BRANCH   1  13
ATOM     11  C   UNL     1      -0.051   2.319  -0.622  0.00  0.00    +0.039 C 
ATOM     12  C   UNL     1      -0.060   0.837  -0.243  0.00  0.00    +0.157 C 
ATOM     13  C   UNL     1       0.590   0.001  -1.331  0.00  0.00    +0.031 C 
ATOM     14  C   UNL     1       1.639  -0.564  -0.720  0.00  0.00    +0.234 C 
ATOM     15  N   UNL     1       1.700  -0.178   0.578  0.00  0.00    -0.116 NA
ATOM     16  N   UNL     1       0.799   0.594   0.927  0.00  0.00    -0.176 NA
BRANCH  14  17
ATOM     17  O   UNL     1       2.521  -1.408  -1.318  0.00  0.00    -0.491 OA
ATOM     18  H   UNL     1       3.221  -1.726  -0.732  0.00  0.00    +0.294 HD
ENDBRANCH  14  17
ENDBRANCH   1  13
BRANCH   1  19
ATOM     19  C   UNL     1      -1.219  -0.777  -2.808  0.00  0.00    -0.030 A 
ATOM     20  C   UNL     1      -2.245  -0.232  -2.058  0.00  0.00    +0.041 A 
ATOM     21  C   UNL     1      -3.506  -0.796  -2.094  0.00  0.00    +0.171 A 
ATOM     22  C   UNL     1      -3.745  -1.910  -2.883  0.00  0.00    +0.189 A 
ATOM     23  C   UNL     1      -2.713  -2.458  -3.638  0.00  0.00    +0.164 A 
ATOM     24  C   UNL     1      -1.452  -1.885  -3.601  0.00  0.00    +0.054 A 
BRANCH  21  25
ATOM     25  N   UNL     1      -4.602  -0.210  -1.290  0.00  0.00    +0.060 N 
ATOM     26  O   UNL     1      -4.394   0.762  -0.601  0.00  0.00    -0.126 OA
ATOM     27  O   UNL     1      -5.705  -0.703  -1.321  0.00  0.00    -0.126 OA
ENDBRANCH  21  25
BRANCH  23  28
ATOM     28  O   UNL     1      -2.942  -3.551  -4.414  0.00  0.00    -0.491 OA
ATOM     29  C   UNL     1      -1.835  -4.060  -5.161  0.00  0.00    +0.277 C 
ENDBRANCH  23  28
BRANCH  22  30
ATOM     30  O   UNL     1      -4.986  -2.466  -2.919  0.00  0.00    -0.502 OA
ATOM     31  H   UNL     1      -5.560  -2.102  -3.606  0.00  0.00    +0.292 HD
ENDBRANCH  22  30
ENDBRANCH   1  19
TORSDOF 8
