REMARK  Name = ZINC20533881
REMARK  7 active torsions:
REMARK  status: ('A' for Active; 'I' for Inactive)
REMARK    1  A    between atoms: C_7  and  C_14
REMARK    2  A    between atoms: N_9  and  C_10
REMARK    3  A    between atoms: C_10  and  C_11
REMARK    4  A    between atoms: N_15  and  N_16
REMARK    5  A    between atoms: C_17  and  C_19
REMARK    6  A    between atoms: C_24  and  N_25
REMARK    7  A    between atoms: C_26  and  C_28
REMARK                            x       y       z     vdW  Elec       q    Type
REMARK                         _______ _______ _______ _____ _____    ______ ____
ROOT
ATOM      1  N   UNL     1      -2.721   7.451  -1.107  0.00  0.00    -0.203 N 
ATOM      2  C   UNL     1      -1.909   8.441  -0.687  0.00  0.00    +0.265 C 
ATOM      3  O   UNL     1      -0.707   8.261  -0.632  0.00  0.00    -0.268 OA
ATOM      4  H   UNL     1      -3.807   7.615  -1.157  0.00  0.00    +0.178 HD
ENDROOT
BRANCH   2   5
ATOM      5  C   UNL     1      -2.477   9.744  -0.294  0.00  0.00    +0.060 A 
ATOM      6  C   UNL     1      -3.853   9.968  -0.389  0.00  0.00    +0.015 A 
ATOM      7  C   UNL     1      -4.378  11.188  -0.019  0.00  0.00    +0.001 A 
ATOM      8  C   UNL     1      -3.548  12.194   0.447  0.00  0.00    +0.002 A 
ATOM      9  C   UNL     1      -2.187  11.988   0.547  0.00  0.00    +0.024 A 
ATOM     10  C   UNL     1      -1.640  10.764   0.184  0.00  0.00    +0.046 A 
BRANCH  10  11
ATOM     11  N   UNL     1      -0.268  10.552   0.289  0.00  0.00    -0.281 N 
ATOM     12  C   UNL     1       0.594  11.509  -0.107  0.00  0.00    +0.249 C 
ATOM     13  O   UNL     1       0.176  12.593  -0.463  0.00  0.00    -0.270 OA
ATOM     14  H   UNL     1       0.112   9.603   0.695  0.00  0.00    +0.155 HD
BRANCH  12  15
ATOM     15  C   UNL     1       2.047  11.240  -0.108  0.00  0.00    +0.051 A 
ATOM     16  C   UNL     1       2.530   9.997   0.306  0.00  0.00    +0.014 A 
ATOM     17  C   UNL     1       3.887   9.750   0.298  0.00  0.00    +0.001 A 
ATOM     18  C   UNL     1       4.770  10.735  -0.110  0.00  0.00    +0.001 A 
ATOM     19  C   UNL     1       4.300  11.970  -0.516  0.00  0.00    +0.016 A 
ATOM     20  C   UNL     1       2.943  12.229  -0.517  0.00  0.00    +0.030 A 
ATOM     21 BR   UNL     1       2.301  13.919  -1.073  0.00  0.00    -0.050 Br
ENDBRANCH  12  15
ENDBRANCH  10  11
ENDBRANCH   2   5
BRANCH   1  23
ATOM     22  C   UNL     1      -2.963   5.259  -1.887  0.00  0.00    +0.140 C 
ATOM     23  N   UNL     1      -2.181   6.214  -1.481  0.00  0.00    -0.187 NA
BRANCH  22  30
ATOM     24  C   UNL     1       1.412   3.595  -2.034  0.00  0.00    +0.001 A 
ATOM     25  C   UNL     1       1.463   2.282  -2.480  0.00  0.00    +0.002 A 
ATOM     26  C   UNL     1       0.309   1.611  -2.823  0.00  0.00    +0.026 A 
ATOM     27  C   UNL     1      -0.921   2.254  -2.728  0.00  0.00    +0.050 A 
ATOM     28  C   UNL     1      -0.972   3.581  -2.271  0.00  0.00    +0.009 A 
ATOM     29  C   UNL     1       0.203   4.246  -1.927  0.00  0.00    +0.010 A 
ATOM     30  C   UNL     1      -2.396   3.959  -2.279  0.00  0.00    +0.020 A 
ATOM     31  C   UNL     1      -3.083   2.877  -2.736  0.00  0.00    +0.096 A 
ATOM     32  N   UNL     1      -2.215   1.859  -2.997  0.00  0.00    -0.337 N 
BRANCH  32  33
ATOM     33  C   UNL     1      -2.600   0.535  -3.492  0.00  0.00    +0.217 C 
BRANCH  33  34
ATOM     34  C   UNL     1      -2.751  -0.411  -2.329  0.00  0.00    +0.230 C 
ATOM     35  O   UNL     1      -2.556  -0.018  -1.198  0.00  0.00    -0.274 OA
ATOM     36  N   UNL     1      -3.104  -1.694  -2.545  0.00  0.00    -0.328 N 
ATOM     37  H   UNL     1      -3.214  -2.385  -1.696  0.00  0.00    +0.145 HD
ATOM     38  H   UNL     1      -3.281  -2.050  -3.571  0.00  0.00    +0.145 HD
ENDBRANCH  33  34
ENDBRANCH  32  33
ENDBRANCH  22  30
ENDBRANCH   1  23
TORSDOF 7
