REMARK  Name = ZINC61632432
REMARK  11 active torsions:
REMARK  status: ('A' for Active; 'I' for Inactive)
REMARK    1  A    between atoms: C_1  and  C_2
REMARK    2  A    between atoms: C_2  and  N_3
REMARK    3  A    between atoms: N_3  and  C_4
REMARK    4  A    between atoms: N_3  and  C_6
REMARK    5  A    between atoms: C_4  and  C_5
REMARK    6  A    between atoms: C_6  and  C_7
REMARK    7  A    between atoms: C_6  and  C_22
REMARK    8  A    between atoms: C_7  and  N_8
REMARK    9  A    between atoms: N_11  and  C_12
REMARK   10  A    between atoms: C_12  and  C_13
REMARK   11  A    between atoms: C_12  and  C_19
REMARK                            x       y       z     vdW  Elec       q    Type
REMARK                         _______ _______ _______ _____ _____    ______ ____
ROOT
ATOM      1  N   UNL     1       0.097  -1.500   1.910  0.00  0.00    -0.301 N 
ATOM      2  C   UNL     1       0.674  -1.688   3.113  0.00  0.00    +0.300 C 
ATOM      3  O   UNL     1       0.128  -2.385   3.946  0.00  0.00    -0.253 OA
ATOM      4  N   UNL     1       1.855  -1.102   3.394  0.00  0.00    -0.284 N 
ATOM      5  H   UNL     1       0.533  -0.943   1.245  0.00  0.00    +0.150 HD
ATOM      6  H   UNL     1       2.290  -0.546   2.729  0.00  0.00    +0.151 HD
ENDROOT
BRANCH   1   7
ATOM      7  C   UNL     1      -1.186  -2.136   1.605  0.00  0.00    +0.095 C 
BRANCH   7   8
ATOM      8  C   UNL     1      -1.704  -1.621   0.261  0.00  0.00    -0.020 C 
BRANCH   8   9
ATOM      9  C   UNL     1      -2.626  -2.646  -0.349  0.00  0.00    -0.052 A 
ATOM     10  C   UNL     1      -2.194  -3.447  -1.390  0.00  0.00    +0.009 A 
ATOM     11  C   UNL     1      -3.048  -4.359  -1.915  0.00  0.00    +0.045 A 
ATOM     12  S   UNL     1      -4.514  -4.103  -0.930  0.00  0.00    -0.105 S 
ATOM     13  C   UNL     1      -3.888  -2.801   0.120  0.00  0.00    +0.047 A 
ENDBRANCH   8   9
BRANCH   8  14
ATOM     14  N   UNL     1      -2.438  -0.365   0.467  0.00  0.00    +0.385 N 
ATOM     15  H   UNL     1      -3.284  -0.551   0.985  0.00  0.00    -0.081 HD
BRANCH  14  17
ATOM     16  C   UNL     1      -2.367   1.877   1.450  0.00  0.00    -0.017 C 
ATOM     17  C   UNL     1      -1.597   0.574   1.222  0.00  0.00    -0.081 C 
ENDBRANCH  14  17
BRANCH  14  18
ATOM     18  C   UNL     1      -2.780   0.222  -0.835  0.00  0.00    -0.081 C 
ATOM     19  C   UNL     1      -3.828  -0.651  -1.529  0.00  0.00    -0.017 C 
ENDBRANCH  14  18
ENDBRANCH   8  14
ENDBRANCH   7   8
ENDBRANCH   1   7
BRANCH   4  20
ATOM     20  C   UNL     1       2.481  -1.306   4.702  0.00  0.00    +0.190 C 
BRANCH  20  21
ATOM     21  C   UNL     1       3.392  -0.146   5.010  0.00  0.00    -0.018 A 
ATOM     22  C   UNL     1       4.170   0.406   4.009  0.00  0.00    +0.006 A 
ATOM     23  C   UNL     1       5.006   1.471   4.291  0.00  0.00    +0.000 A 
ATOM     24  C   UNL     1       5.063   1.984   5.574  0.00  0.00    +0.000 A 
ATOM     25  C   UNL     1       4.284   1.432   6.574  0.00  0.00    +0.000 A 
ATOM     26  C   UNL     1       3.445   0.370   6.291  0.00  0.00    +0.006 A 
ENDBRANCH  20  21
BRANCH  20  27
ATOM     27  C   UNL     1       3.283  -2.582   4.682  0.00  0.00    +0.235 C 
ATOM     28  O   UNL     1       3.327  -3.255   3.674  0.00  0.00    -0.274 OA
ATOM     29  N   UNL     1       3.951  -2.976   5.784  0.00  0.00    -0.328 N 
ATOM     30  H   UNL     1       3.916  -2.438   6.590  0.00  0.00    +0.145 HD
ATOM     31  H   UNL     1       4.467  -3.797   5.771  0.00  0.00    +0.145 HD
ENDBRANCH  20  27
ENDBRANCH   4  20
TORSDOF 9
