REMARK  Name = ZINC51099886
REMARK  10 active torsions:
REMARK  status: ('A' for Active; 'I' for Inactive)
REMARK    1  A    between atoms: C_1  and  C_2
REMARK    2  A    between atoms: C_3  and  C_7
REMARK    3  A    between atoms: N_9  and  C_10
REMARK    4  A    between atoms: N_13  and  C_16
REMARK    5  A    between atoms: C_16  and  C_18
REMARK    6  A    between atoms: C_16  and  C_19
REMARK    7  A    between atoms: N_24  and  C_25
REMARK    8  A    between atoms: C_25  and  C_26
REMARK    9  A    between atoms: C_25  and  C_27
REMARK   10  A    between atoms: C_25  and  C_28
REMARK                            x       y       z     vdW  Elec       q    Type
REMARK                         _______ _______ _______ _____ _____    ______ ____
ROOT
ATOM      1  C   UNL     1       0.211   1.338  -5.556  0.00  0.00    +0.070 C 
ATOM      2  C   UNL     1      -1.226   1.488  -6.064  0.00  0.00    +0.004 C 
ATOM      3  C   UNL     1      -1.282   1.100  -7.543  0.00  0.00    -0.076 C 
ATOM      4  N   UNL     1      -0.847  -0.293  -7.704  0.00  0.00    +0.387 N 
ATOM      5  C   UNL     1       0.553  -0.429  -7.287  0.00  0.00    -0.076 C 
ATOM      6  C   UNL     1       0.680  -0.100  -5.797  0.00  0.00    +0.004 C 
ATOM      7  H   UNL     1      -1.426  -0.893  -7.136  0.00  0.00    -0.081 HD
ENDROOT
BRANCH   1  10
ATOM      8  C   UNL     1       0.388   2.908  -3.701  0.00  0.00    +0.253 C 
ATOM      9  O   UNL     1       0.468   3.812  -4.513  0.00  0.00    -0.270 OA
ATOM     10  N   UNL     1       0.258   1.634  -4.122  0.00  0.00    -0.308 N 
ATOM     11  H   UNL     1       0.195   0.914  -3.476  0.00  0.00    +0.149 HD
BRANCH   8  14
ATOM     12  C   UNL     1       0.681   5.710  -2.382  0.00  0.00    +0.067 C 
ATOM     13  C   UNL     1       0.562   4.415  -1.621  0.00  0.00    +0.058 A 
ATOM     14  C   UNL     1       0.435   3.205  -2.266  0.00  0.00    +0.096 A 
ATOM     15  S   UNL     1       0.342   2.097  -0.868  0.00  0.00    -0.071 S 
ATOM     16  C   UNL     1       0.471   3.252   0.350  0.00  0.00    +0.156 A 
ATOM     17  N   UNL     1       0.580   4.382  -0.311  0.00  0.00    -0.252 NA
ENDBRANCH   8  14
ENDBRANCH   1  10
BRANCH   4  18
ATOM     18  C   UNL     1      -0.976  -0.684  -9.114  0.00  0.00    +0.017 C 
ATOM     19  C   UNL     1      -0.471  -2.118  -9.294  0.00  0.00    -0.004 C 
BRANCH  18  20
ATOM     20  C   UNL     1      -2.424  -0.607  -9.527  0.00  0.00    +0.207 C 
ATOM     21  O   UNL     1      -3.298  -0.749  -8.699  0.00  0.00    -0.277 OA
ATOM     22  N   UNL     1      -2.746  -0.379 -10.815  0.00  0.00    -0.242 N 
ATOM     23  C   UNL     1      -4.040  -0.309 -11.184  0.00  0.00    +0.306 C 
ATOM     24  O   UNL     1      -4.917  -0.452 -10.354  0.00  0.00    -0.252 OA
ATOM     25  N   UNL     1      -4.363  -0.081 -12.473  0.00  0.00    -0.294 N 
ATOM     26  H   UNL     1      -2.046  -0.265 -11.477  0.00  0.00    +0.159 HD
ATOM     27  H   UNL     1      -3.663   0.033 -13.135  0.00  0.00    +0.151 HD
BRANCH  25  28
ATOM     28  C   UNL     1      -5.770  -0.005 -12.873  0.00  0.00    +0.028 C 
ATOM     29  C   UNL     1      -6.456   1.132 -12.114  0.00  0.00    +0.031 C 
ATOM     30  C   UNL     1      -5.858   0.259 -14.378  0.00  0.00    +0.031 C 
ATOM     31  C   UNL     1      -6.465  -1.329 -12.547  0.00  0.00    +0.031 C 
ENDBRANCH  25  28
ENDBRANCH  18  20
ENDBRANCH   4  18
TORSDOF 5
