REMARK  Name = ZINC59018660
REMARK  11 active torsions:
REMARK  status: ('A' for Active; 'I' for Inactive)
REMARK    1  A    between atoms: C_1  and  C_2
REMARK    2  A    between atoms: C_2  and  C_3
REMARK    3  A    between atoms: C_3  and  C_4
REMARK    4  A    between atoms: C_4  and  S_5
REMARK    5  A    between atoms: S_5  and  C_6
REMARK    6  A    between atoms: C_12  and  C_14
REMARK    7  A    between atoms: C_14  and  S_15
REMARK    8  A    between atoms: S_15  and  C_16
REMARK    9  A    between atoms: N_21  and  N_22
REMARK   10  A    between atoms: C_23  and  C_24
REMARK   11  A    between atoms: C_29  and  O_30
REMARK                            x       y       z     vdW  Elec       q    Type
REMARK                         _______ _______ _______ _____ _____    ______ ____
ROOT
ATOM      1  C   UNL     1       0.935 -13.374  -1.407  0.00  0.00    +0.211 A 
ATOM      2  N   UNL     1       0.533 -14.431  -0.694  0.00  0.00    -0.186 NA
ATOM      3  C   UNL     1       0.896 -15.540  -1.304  0.00  0.00    +0.232 A 
ATOM      4  N   UNL     1       1.548 -15.199  -2.436  0.00  0.00    -0.245 N 
ATOM      5  N   UNL     1       1.556 -13.796  -2.483  0.00  0.00    -0.144 NA
ATOM      6  N   UNL     1       0.653 -16.828  -0.862  0.00  0.00    -0.205 N 
ATOM      7  H   UNL     1       0.963 -17.586  -1.382  0.00  0.00    +0.177 HD
ATOM      8  H   UNL     1       1.933 -15.805  -3.089  0.00  0.00    +0.192 HD
ENDROOT
BRANCH   6   9
ATOM      9  N   UNL     1      -0.039 -17.038   0.338  0.00  0.00    -0.187 NA
ATOM     10  C   UNL     1      -0.267 -18.247   0.753  0.00  0.00    +0.142 C 
BRANCH  10  11
ATOM     11  C   UNL     1      -0.996 -18.467   2.015  0.00  0.00    +0.037 A 
ATOM     12  C   UNL     1      -1.238 -19.766   2.468  0.00  0.00    +0.033 A 
ATOM     13  C   UNL     1      -1.921 -19.966   3.651  0.00  0.00    +0.042 A 
ATOM     14  C   UNL     1      -2.367 -18.883   4.390  0.00  0.00    +0.023 A 
ATOM     15  C   UNL     1      -2.132 -17.593   3.952  0.00  0.00    +0.047 A 
ATOM     16  C   UNL     1      -1.444 -17.375   2.770  0.00  0.00    +0.126 A 
ATOM     17 CL   UNL     1      -2.223 -21.580   4.213  0.00  0.00    -0.084 Cl
BRANCH  16  18
ATOM     18  O   UNL     1      -1.210 -16.108   2.341  0.00  0.00    -0.506 OA
ATOM     19  H   UNL     1      -1.906 -15.748   1.774  0.00  0.00    +0.292 HD
ENDBRANCH  16  18
ENDBRANCH  10  11
ENDBRANCH   6   9
BRANCH   1  20
ATOM     20  S   UNL     1       0.668 -11.687  -0.975  0.00  0.00    -0.075 S 
BRANCH  20  21
ATOM     21  C   UNL     1       1.435 -10.759  -2.333  0.00  0.00    +0.173 C 
BRANCH  21  28
ATOM     22  C   UNL     1       1.529  -4.368  -2.621  0.00  0.00    +0.160 A 
ATOM     23  N   UNL     1       0.998  -5.132  -1.678  0.00  0.00    -0.133 NA
ATOM     24  N   UNL     1       1.044  -6.391  -1.734  0.00  0.00    -0.125 NA
ATOM     25  C   UNL     1       1.626  -7.027  -2.738  0.00  0.00    +0.189 A 
ATOM     26  S   UNL     1       2.164  -5.630  -3.721  0.00  0.00    -0.024 S 
ATOM     27  N   UNL     1       1.772  -8.393  -2.968  0.00  0.00    -0.263 N 
ATOM     28  C   UNL     1       1.277  -9.281  -2.084  0.00  0.00    +0.229 C 
ATOM     29  O   UNL     1       0.702  -8.892  -1.089  0.00  0.00    -0.275 OA
ATOM     30  H   UNL     1       2.232  -8.704  -3.763  0.00  0.00    +0.157 HD
BRANCH  22  31
ATOM     31  S   UNL     1       1.588  -2.612  -2.758  0.00  0.00    -0.097 S 
BRANCH  31  32
ATOM     32  C   UNL     1       0.739  -2.027  -1.265  0.00  0.00    +0.076 C 
BRANCH  32  33
ATOM     33  C   UNL     1       0.718  -0.497  -1.257  0.00  0.00    +0.011 C 
BRANCH  33  35
ATOM     34  C   UNL     1      -0.019   1.526   0.010  0.00  0.00    +0.004 C 
ATOM     35  C   UNL     1       0.002  -0.004   0.002  0.00  0.00    -0.003 C 
ENDBRANCH  33  35
ENDBRANCH  32  33
ENDBRANCH  31  32
ENDBRANCH  22  31
ENDBRANCH  21  28
ENDBRANCH  20  21
ENDBRANCH   1  20
TORSDOF 10
