REMARK  Name = ZINC65589386
REMARK  7 active torsions:
REMARK  status: ('A' for Active; 'I' for Inactive)
REMARK    1  A    between atoms: C_3  and  C_18
REMARK    2  A    between atoms: N_4  and  C_6
REMARK    3  A    between atoms: C_6  and  C_7
REMARK    4  A    between atoms: N_12  and  C_13
REMARK    5  A    between atoms: C_13  and  C_14
REMARK    6  A    between atoms: N_20  and  C_21
REMARK    7  A    between atoms: C_21  and  C_22
REMARK                            x       y       z     vdW  Elec       q    Type
REMARK                         _______ _______ _______ _____ _____    ______ ____
ROOT
ATOM      1  C   UNL     1      -0.019   1.536   0.011  0.00  0.00    -0.020 C 
ATOM      2  C   UNL     1       1.468   1.960  -0.001  0.00  0.00    -0.008 C 
ATOM      3  C   UNL     1       2.191   0.705   0.550  0.00  0.00    +0.020 C 
ATOM      4  N   UNL     1       1.421  -0.418  -0.044  0.00  0.00    +0.393 N 
ATOM      5  C   UNL     1       0.002  -0.004   0.002  0.00  0.00    -0.077 C 
ATOM      6  H   UNL     1       1.708  -0.571  -0.999  0.00  0.00    -0.080 HD
ENDROOT
BRANCH   3   7
ATOM      7  C   UNL     1       3.624   0.671   0.087  0.00  0.00    +0.200 C 
ATOM      8  O   UNL     1       4.018  -0.248  -0.600  0.00  0.00    -0.278 OA
ATOM      9  N   UNL     1       4.469   1.661   0.436  0.00  0.00    -0.308 N 
ATOM     10  H   UNL     1       4.154   2.396   0.985  0.00  0.00    +0.149 HD
BRANCH   9  11
ATOM     11  C   UNL     1       5.863   1.628  -0.014  0.00  0.00    +0.217 C 
BRANCH  11  12
ATOM     12  C   UNL     1       6.599   2.859   0.517  0.00  0.00    +0.405 C 
ATOM     13  F   UNL     1       6.561   2.859   1.916  0.00  0.00    -0.169 F 
ATOM     14  F   UNL     1       7.931   2.828   0.088  0.00  0.00    -0.169 F 
ATOM     15  F   UNL     1       5.981   4.017   0.034  0.00  0.00    -0.169 F 
ENDBRANCH  11  12
ENDBRANCH   9  11
ENDBRANCH   3   7
BRANCH   4  16
ATOM     16  C   UNL     1       1.618  -1.641   0.747  0.00  0.00    +0.020 C 
BRANCH  16  17
ATOM     17  C   UNL     1       0.932  -2.796   0.064  0.00  0.00    +0.204 C 
ATOM     18  O   UNL     1       0.338  -2.619  -0.978  0.00  0.00    -0.277 OA
ATOM     19  N   UNL     1       0.979  -4.027   0.613  0.00  0.00    -0.242 N 
ATOM     20  C   UNL     1       0.365  -5.060   0.002  0.00  0.00    +0.306 C 
ATOM     21  O   UNL     1      -0.230  -4.882  -1.042  0.00  0.00    -0.252 OA
ATOM     22  N   UNL     1       0.412  -6.290   0.550  0.00  0.00    -0.291 N 
ATOM     23  H   UNL     1       1.454  -4.168   1.446  0.00  0.00    +0.159 HD
ATOM     24  H   UNL     1       0.887  -6.432   1.384  0.00  0.00    +0.151 HD
BRANCH  22  25
ATOM     25  C   UNL     1      -0.255  -7.414  -0.113  0.00  0.00    +0.219 C 
BRANCH  25  26
ATOM     26  C   UNL     1      -0.050  -8.687   0.711  0.00  0.00    +0.405 C 
ATOM     27  F   UNL     1      -0.594  -8.509   1.987  0.00  0.00    -0.169 F 
ATOM     28  F   UNL     1      -0.686  -9.759   0.077  0.00  0.00    -0.169 F 
ATOM     29  F   UNL     1       1.319  -8.956   0.821  0.00  0.00    -0.169 F 
ENDBRANCH  25  26
ENDBRANCH  22  25
ENDBRANCH  16  17
ENDBRANCH   4  16
TORSDOF 7
