REMARK  Name = ZINC29351750
REMARK  12 active torsions:
REMARK  status: ('A' for Active; 'I' for Inactive)
REMARK    1  A    between atoms: C_1  and  C_2
REMARK    2  A    between atoms: C_2  and  C_4
REMARK    3  A    between atoms: C_2  and  S_19
REMARK    4  A    between atoms: N_6  and  C_7
REMARK    5  A    between atoms: C_9  and  O_17
REMARK    6  A    between atoms: C_10  and  O_15
REMARK    7  A    between atoms: C_11  and  O_13
REMARK    8  A    between atoms: O_13  and  C_14
REMARK    9  A    between atoms: O_15  and  C_16
REMARK   10  A    between atoms: O_17  and  C_18
REMARK   11  A    between atoms: S_19  and  C_20
REMARK   12  A    between atoms: C_20  and  C_21
REMARK                            x       y       z     vdW  Elec       q    Type
REMARK                         _______ _______ _______ _____ _____    ______ ____
ROOT
ATOM      1  C   UNL     1       1.955   8.483  -1.231  0.00  0.00    +0.029 C 
ATOM      2  C   UNL     1       0.453   8.240  -1.389  0.00  0.00    +0.130 C 
ENDROOT
BRANCH   2   3
ATOM      3  C   UNL     1      -0.024   7.319  -0.296  0.00  0.00    +0.230 C 
ATOM      4  O   UNL     1      -0.581   7.774   0.681  0.00  0.00    -0.274 OA
ATOM      5  N   UNL     1       0.168   5.989  -0.404  0.00  0.00    -0.284 N 
ATOM      6  H   UNL     1       0.749   5.584  -1.245  0.00  0.00    +0.155 HD
BRANCH   5   7
ATOM      7  C   UNL     1      -0.372   5.123   0.556  0.00  0.00    +0.041 A 
ATOM      8  C   UNL     1       0.303   3.959   0.899  0.00  0.00    +0.073 A 
ATOM      9  C   UNL     1      -0.230   3.102   1.848  0.00  0.00    +0.167 A 
ATOM     10  C   UNL     1      -1.438   3.411   2.462  0.00  0.00    +0.204 A 
ATOM     11  C   UNL     1      -2.116   4.573   2.114  0.00  0.00    +0.167 A 
ATOM     12  C   UNL     1      -1.582   5.429   1.164  0.00  0.00    +0.073 A 
BRANCH  11  13
ATOM     13  O   UNL     1      -3.301   4.873   2.710  0.00  0.00    -0.491 OA
ATOM     14  C   UNL     1      -3.940   6.087   2.309  0.00  0.00    +0.277 C 
ENDBRANCH  11  13
BRANCH  10  15
ATOM     15  O   UNL     1      -1.960   2.572   3.399  0.00  0.00    -0.488 OA
ATOM     16  C   UNL     1      -2.829   1.538   2.932  0.00  0.00    +0.277 C 
ENDBRANCH  10  15
BRANCH   9  17
ATOM     17  O   UNL     1       0.432   1.962   2.184  0.00  0.00    -0.491 OA
ATOM     18  C   UNL     1       1.671   1.712   1.518  0.00  0.00    +0.277 C 
ENDBRANCH   9  17
ENDBRANCH   5   7
ENDBRANCH   2   3
BRANCH   2  19
ATOM     19  S   UNL     1      -0.430   9.820  -1.276  0.00  0.00    -0.140 S 
BRANCH  19  20
ATOM     20  C   UNL     1       0.138  10.746  -2.729  0.00  0.00    +0.146 C 
BRANCH  20  21
ATOM     21  C   UNL     1      -0.529  12.097  -2.756  0.00  0.00    +0.146 A 
ATOM     22  N   UNL     1      -1.679  12.252  -3.388  0.00  0.00    -0.199 NA
ATOM     23  C   UNL     1      -2.273  13.443  -3.411  0.00  0.00    +0.217 A 
ATOM     24  N   UNL     1      -1.703  14.479  -2.805  0.00  0.00    -0.181 NA
ATOM     25  C   UNL     1      -0.544  14.320  -2.175  0.00  0.00    +0.217 A 
ATOM     26  N   UNL     1       0.041  13.125  -2.153  0.00  0.00    -0.199 NA
ATOM     27  N   UNL     1       0.052  15.394  -1.546  0.00  0.00    -0.327 N 
ATOM     28  N   UNL     1      -3.477  13.602  -4.066  0.00  0.00    -0.327 N 
ATOM     29  H   UNL     1       1.012  15.262  -1.024  0.00  0.00    +0.145 HD
ATOM     30  H   UNL     1      -0.432  16.381  -1.565  0.00  0.00    +0.145 HD
ATOM     31  H   UNL     1      -3.967  14.586  -4.085  0.00  0.00    +0.145 HD
ATOM     32  H   UNL     1      -3.946  12.744  -4.571  0.00  0.00    +0.145 HD
ENDBRANCH  20  21
ENDBRANCH  19  20
ENDBRANCH   2  19
TORSDOF 8
