REMARK  Name = ZINC06017008
REMARK  5 active torsions:
REMARK  status: ('A' for Active; 'I' for Inactive)
REMARK    1  A    between atoms: C_1  and  C_2
REMARK    2  A    between atoms: C_5  and  C_7
REMARK    3  A    between atoms: C_9  and  C_13
REMARK    4  A    between atoms: N_15  and  N_16
REMARK    5  A    between atoms: N_16  and  C_17
REMARK                            x       y       z     vdW  Elec       q    Type
REMARK                         _______ _______ _______ _____ _____    ______ ____
ROOT
ATOM      1  C   UNL     1       3.522  -6.708  -0.255  0.00  0.00    +0.280 C 
ATOM      2  O   UNL     1       4.609  -6.208  -0.036  0.00  0.00    -0.267 OA
ATOM      3  N   UNL     1       3.390  -8.049  -0.282  0.00  0.00    -0.231 N 
ATOM      4  H   UNL     1       2.523  -8.447  -0.457  0.00  0.00    +0.173 HD
ENDROOT
BRANCH   1   7
ATOM      5  C   UNL     1       1.034  -4.083  -0.754  0.00  0.00    +0.073 A 
ATOM      6  C   UNL     1       2.332  -4.434  -0.493  0.00  0.00    +0.063 A 
ATOM      7  C   UNL     1       2.346  -5.845  -0.491  0.00  0.00    +0.149 A 
ATOM      8  N   UNL     1       1.117  -6.251  -0.739  0.00  0.00    -0.169 NA
ATOM      9  N   UNL     1       0.333  -5.245  -0.891  0.00  0.00    -0.276 N 
ATOM     10  H   UNL     1      -0.618  -5.303  -1.077  0.00  0.00    +0.189 HD
BRANCH   5  15
ATOM     11  C   UNL     1      -0.084   1.433  -0.978  0.00  0.00    +0.051 C 
ATOM     12  C   UNL     1      -0.041  -0.073  -0.968  0.00  0.00    -0.013 A 
ATOM     13  C   UNL     1      -1.053  -0.957  -1.167  0.00  0.00    +0.011 A 
ATOM     14  C   UNL     1      -0.786  -2.307  -1.114  0.00  0.00    +0.018 A 
ATOM     15  C   UNL     1       0.498  -2.714  -0.861  0.00  0.00    +0.037 A 
ATOM     16  S   UNL     1       1.353  -1.155  -0.701  0.00  0.00    -0.092 S 
ENDBRANCH   5  15
ENDBRANCH   1   7
BRANCH   3  17
ATOM     17  N   UNL     1       4.505  -8.867  -0.058  0.00  0.00    -0.259 N 
ATOM     18  H   UNL     1       5.386  -8.472   0.030  0.00  0.00    +0.170 HD
BRANCH  17  19
ATOM     19  C   UNL     1       4.354 -10.191   0.034  0.00  0.00    +0.116 C 
ATOM     20  C   UNL     1       3.140 -10.921   0.046  0.00  0.00    +0.025 A 
ATOM     21  C   UNL     1       1.794 -10.544  -0.028  0.00  0.00    +0.027 A 
ATOM     22  C   UNL     1       0.809 -11.513   0.010  0.00  0.00    +0.019 A 
ATOM     23  C   UNL     1       1.150 -12.852   0.120  0.00  0.00    +0.017 A 
ATOM     24  C   UNL     1       2.477 -13.245   0.194  0.00  0.00    +0.025 A 
ATOM     25  C   UNL     1       3.491 -12.292   0.158  0.00  0.00    +0.043 A 
ATOM     26  N   UNL     1       4.849 -12.411   0.213  0.00  0.00    -0.280 N 
ATOM     27  C   UNL     1       5.436 -11.231   0.141  0.00  0.00    +0.264 C 
ATOM     28  O   UNL     1       6.635 -11.022   0.160  0.00  0.00    -0.268 OA
ATOM     29 BR   UNL     1      -1.011 -11.010  -0.089  0.00  0.00    -0.050 Br
ATOM     30  H   UNL     1       5.322 -13.255   0.292  0.00  0.00    +0.155 HD
ENDBRANCH  17  19
ENDBRANCH   3  17
TORSDOF 4
