REMARK  Name = ZINC21596135
REMARK  9 active torsions:
REMARK  status: ('A' for Active; 'I' for Inactive)
REMARK    1  A    between atoms: C_1  and  N_2
REMARK    2  A    between atoms: N_5  and  C_8
REMARK    3  A    between atoms: C_11  and  C_31
REMARK    4  A    between atoms: C_13  and  N_14
REMARK    5  A    between atoms: C_15  and  C_17
REMARK    6  A    between atoms: C_18  and  C_19
REMARK    7  A    between atoms: C_22  and  C_24
REMARK    8  A    between atoms: C_31  and  O_33
REMARK    9  A    between atoms: O_33  and  C_34
REMARK                            x       y       z     vdW  Elec       q    Type
REMARK                         _______ _______ _______ _____ _____    ______ ____
ROOT
ATOM      1  C   UNL     1      -0.007   1.381  -0.005  0.00  0.00    +0.051 A 
ATOM      2  C   UNL     1       0.017  -0.009  -0.021  0.00  0.00    +0.026 A 
ATOM      3  C   UNL     1       1.220  -0.679  -0.040  0.00  0.00    +0.017 A 
ATOM      4  C   UNL     1       2.421   0.037  -0.042  0.00  0.00    +0.061 A 
ATOM      5  C   UNL     1       2.399   1.435  -0.025  0.00  0.00    +0.040 A 
ATOM      6  C   UNL     1       1.189   2.104  -0.007  0.00  0.00    +0.056 A 
ENDROOT
BRANCH   1  11
ATOM      7  C   UNL     1      -5.351   2.961   0.076  0.00  0.00    -0.096 C 
ATOM      8  N   UNL     1      -4.066   2.251   0.062  0.00  0.00    +0.380 N 
ATOM      9  C   UNL     1      -3.317   2.541  -1.168  0.00  0.00    -0.060 C 
ATOM     10  C   UNL     1      -2.024   1.722  -1.180  0.00  0.00    +0.086 C 
ATOM     11  N   UNL     1      -1.226   2.054   0.009  0.00  0.00    -0.332 N 
ATOM     12  C   UNL     1      -1.975   1.764   1.239  0.00  0.00    +0.086 C 
ATOM     13  C   UNL     1      -3.268   2.583   1.251  0.00  0.00    -0.060 C 
ATOM     14  H   UNL     1      -4.277   1.172   0.085  0.00  0.00    -0.082 HD
ENDBRANCH   1  11
BRANCH   6  15
ATOM     15  N   UNL     1       1.162   3.504   0.010  0.00  0.00    -0.280 N 
ATOM     16  C   UNL     1       2.114   4.188   0.675  0.00  0.00    +0.241 C 
ATOM     17  O   UNL     1       3.043   3.593   1.192  0.00  0.00    -0.270 OA
ATOM     18  H   UNL     1       0.364   4.045  -0.519  0.00  0.00    +0.155 HD
BRANCH  16  19
ATOM     19  C   UNL     1       2.035   5.597   0.773  0.00  0.00    +0.071 C 
ATOM     20  C   UNL     1       2.994   6.286   1.443  0.00  0.00    +0.051 C 
BRANCH  20  21
ATOM     21  C   UNL     1       2.915   7.694   1.540  0.00  0.00    +0.129 A 
ATOM     22  C   UNL     1       3.815   8.515   2.194  0.00  0.00    +0.050 A 
ATOM     23  C   UNL     1       3.354   9.825   2.036  0.00  0.00    +0.050 A 
ATOM     24  C   UNL     1       2.198   9.760   1.309  0.00  0.00    +0.136 A 
ATOM     25  O   UNL     1       1.944   8.472   1.017  0.00  0.00    -0.455 OA
BRANCH  24  26
ATOM     26  C   UNL     1       1.366  10.912   0.912  0.00  0.00    +0.017 A 
ATOM     27  C   UNL     1       1.736  12.207   1.286  0.00  0.00    +0.012 A 
ATOM     28  C   UNL     1       0.957  13.279   0.908  0.00  0.00    +0.016 A 
ATOM     29  C   UNL     1      -0.196  13.075   0.169  0.00  0.00    +0.018 A 
ATOM     30  C   UNL     1      -0.572  11.794  -0.200  0.00  0.00    +0.016 A 
ATOM     31  C   UNL     1       0.201  10.713   0.167  0.00  0.00    +0.012 A 
ATOM     32 BR   UNL     1      -1.263  14.552  -0.339  0.00  0.00    -0.050 Br
ENDBRANCH  24  26
ENDBRANCH  20  21
ENDBRANCH  16  19
ENDBRANCH   6  15
BRANCH   4  33
ATOM     33  C   UNL     1       3.708  -0.680  -0.061  0.00  0.00    +0.339 C 
ATOM     34  O   UNL     1       4.752  -0.056  -0.063  0.00  0.00    -0.245 OA
BRANCH  33  35
ATOM     35  O   UNL     1       3.729  -2.027  -0.077  0.00  0.00    -0.464 OA
ATOM     36  C   UNL     1       5.032  -2.667  -0.095  0.00  0.00    +0.280 C 
ENDBRANCH  33  35
ENDBRANCH   4  33
TORSDOF 7
