REMARK  Name = ZINC48026273
REMARK  7 active torsions:
REMARK  status: ('A' for Active; 'I' for Inactive)
REMARK    1  A    between atoms: C_3  and  C_6
REMARK    2  A    between atoms: C_6  and  C_7
REMARK    3  A    between atoms: C_7  and  N_8
REMARK    4  A    between atoms: C_12  and  C_14
REMARK    5  A    between atoms: C_14  and  N_15
REMARK    6  A    between atoms: C_18  and  C_21
REMARK    7  A    between atoms: C_21  and  C_22
REMARK                            x       y       z     vdW  Elec       q    Type
REMARK                         _______ _______ _______ _____ _____    ______ ____
ROOT
ATOM      1  N   UNL     1       5.633   2.506   1.403  0.00  0.00    -0.299 N 
ATOM      2  C   UNL     1       6.279   2.728   2.565  0.00  0.00    +0.306 C 
ATOM      3  O   UNL     1       5.717   2.517   3.623  0.00  0.00    -0.252 OA
ATOM      4  N   UNL     1       7.547   3.184   2.555  0.00  0.00    -0.242 N 
ATOM      5  C   UNL     1       8.193   3.406   3.717  0.00  0.00    +0.204 C 
ATOM      6  O   UNL     1       7.633   3.196   4.772  0.00  0.00    -0.277 OA
ATOM      7  H   UNL     1       6.082   2.674   0.560  0.00  0.00    +0.150 HD
ATOM      8  H   UNL     1       7.995   3.352   1.712  0.00  0.00    +0.159 HD
ENDROOT
BRANCH   1   9
ATOM      9  C   UNL     1       4.255   2.011   1.414  0.00  0.00    +0.111 C 
BRANCH   9  10
ATOM     10  C   UNL     1       3.761   1.845  -0.024  0.00  0.00    +0.061 C 
BRANCH  10  13
ATOM     11  C   UNL     1      -0.016   1.351   0.009  0.00  0.00    +0.008 A 
ATOM     12  C   UNL     1       1.183   2.038   0.002  0.00  0.00    +0.011 A 
ATOM     13  C   UNL     1       2.343   1.336  -0.013  0.00  0.00    -0.009 A 
ATOM     14  S   UNL     1       1.754  -0.349  -0.017  0.00  0.00    -0.102 S 
ATOM     15  C   UNL     1       0.002  -0.004   0.002  0.00  0.00    +0.045 A 
ENDBRANCH  10  13
ENDBRANCH   9  10
ENDBRANCH   1   9
BRANCH   5  16
ATOM     16  C   UNL     1       9.611   3.915   3.706  0.00  0.00    +0.019 C 
BRANCH  16  17
ATOM     17  N   UNL     1      10.085   4.074   5.088  0.00  0.00    +0.385 N 
ATOM     18  C   UNL     1       9.295   5.114   5.758  0.00  0.00    -0.078 C 
ATOM     19  C   UNL     1       9.731   5.226   7.221  0.00  0.00    -0.015 C 
ATOM     20  C   UNL     1      11.216   5.595   7.278  0.00  0.00    -0.006 C 
ATOM     21  C   UNL     1      12.023   4.543   6.512  0.00  0.00    -0.015 C 
ATOM     22  C   UNL     1      11.503   4.455   5.076  0.00  0.00    -0.078 C 
ATOM     23  H   UNL     1       9.977   3.201   5.582  0.00  0.00    -0.081 HD
BRANCH  20  24
ATOM     24  C   UNL     1      11.678   5.632   8.737  0.00  0.00    +0.099 C 
BRANCH  24  25
ATOM     25  C   UNL     1      13.105   6.113   8.800  0.00  0.00    +0.211 C 
ATOM     26  O   UNL     1      13.694   6.398   7.779  0.00  0.00    -0.276 OA
ATOM     27  N   UNL     1      13.726   6.226   9.991  0.00  0.00    -0.329 N 
ATOM     28  H   UNL     1      13.254   5.998  10.807  0.00  0.00    +0.145 HD
ATOM     29  H   UNL     1      14.644   6.536  10.031  0.00  0.00    +0.145 HD
ENDBRANCH  24  25
ENDBRANCH  20  24
ENDBRANCH  16  17
ENDBRANCH   5  16
TORSDOF 7
