REMARK  Name = ZINC45166582
REMARK  8 active torsions:
REMARK  status: ('A' for Active; 'I' for Inactive)
REMARK    1  A    between atoms: C_1  and  C_2
REMARK    2  A    between atoms: C_2  and  C_3
REMARK    3  A    between atoms: C_2  and  N_4
REMARK    4  A    between atoms: C_7  and  C_10
REMARK    5  A    between atoms: C_10  and  N_11
REMARK    6  A    between atoms: N_11  and  S_12
REMARK    7  A    between atoms: S_12  and  C_15
REMARK    8  A    between atoms: C_16  and  N_22
REMARK                            x       y       z     vdW  Elec       q    Type
REMARK                         _______ _______ _______ _____ _____    ______ ____
ROOT
ATOM      1  S   UNL     1      -4.475  -5.658  -3.184  0.00  0.00    +0.062 S 
ATOM      2  O   UNL     1      -5.866  -5.819  -3.426  0.00  0.00    -0.153 OA
ATOM      3  O   UNL     1      -3.515  -5.657  -4.231  0.00  0.00    -0.153 OA
ENDROOT
BRANCH   1   4
ATOM      4  C   UNL     1      -4.006  -6.942  -2.072  0.00  0.00    +0.144 A 
ATOM      5  C   UNL     1      -2.675  -7.325  -1.974  0.00  0.00    +0.053 A 
ATOM      6  C   UNL     1      -2.309  -8.338  -1.097  0.00  0.00    +0.025 A 
ATOM      7  C   UNL     1      -3.269  -8.960  -0.324  0.00  0.00    +0.003 A 
ATOM      8  C   UNL     1      -4.594  -8.578  -0.422  0.00  0.00    +0.022 A 
ATOM      9  C   UNL     1      -4.962  -7.565  -1.292  0.00  0.00    +0.069 A 
ATOM     10 CL   UNL     1      -6.625  -7.082  -1.407  0.00  0.00    -0.081 Cl
BRANCH   5  11
ATOM     11  N   UNL     1      -1.706  -6.694  -2.758  0.00  0.00    -0.356 N 
ATOM     12  H   UNL     1      -1.900  -5.840  -3.175  0.00  0.00    +0.142 HD
ATOM     13  H   UNL     1      -0.838  -7.110  -2.884  0.00  0.00    +0.142 HD
ENDBRANCH   5  11
ENDBRANCH   1   4
BRANCH   1  14
ATOM     14  N   UNL     1      -4.298  -4.223  -2.377  0.00  0.00    -0.190 NA
ATOM     15  H   UNL     1      -5.076  -3.676  -2.183  0.00  0.00    +0.148 HD
BRANCH  14  16
ATOM     16  C   UNL     1      -2.967  -3.778  -1.957  0.00  0.00    +0.107 C 
BRANCH  16  20
ATOM     17  N   UNL     1      -1.693  -0.330  -1.393  0.00  0.00    +0.381 N 
ATOM     18  C   UNL     1      -2.423  -0.182  -2.671  0.00  0.00    -0.078 C 
ATOM     19  C   UNL     1      -3.315  -1.427  -2.828  0.00  0.00    -0.016 C 
ATOM     20  C   UNL     1      -3.020  -2.295  -1.583  0.00  0.00    -0.014 C 
ATOM     21  C   UNL     1      -1.626  -1.790  -1.131  0.00  0.00    -0.074 C 
ATOM     22  H   UNL     1      -2.193   0.135  -0.650  0.00  0.00    -0.081 HD
BRANCH  17  24
ATOM     23  C   UNL     1      -0.425   1.729  -1.786  0.00  0.00    -0.014 C 
ATOM     24  C   UNL     1      -0.338   0.225  -1.517  0.00  0.00    -0.075 C 
ATOM     25  C   UNL     1       0.433  -0.017  -0.218  0.00  0.00    -0.014 C 
ENDBRANCH  17  24
ENDBRANCH  16  20
ENDBRANCH  14  16
ENDBRANCH   1  14
TORSDOF 6
