REMARK  Name = ZINC36231207
REMARK  9 active torsions:
REMARK  status: ('A' for Active; 'I' for Inactive)
REMARK    1  A    between atoms: C_1  and  C_2
REMARK    2  A    between atoms: C_8  and  N_28
REMARK    3  A    between atoms: C_9  and  O_27
REMARK    4  A    between atoms: N_10  and  C_11
REMARK    5  A    between atoms: C_13  and  O_26
REMARK    6  A    between atoms: C_15  and  O_25
REMARK    7  A    between atoms: C_17  and  O_24
REMARK    8  A    between atoms: C_19  and  C_22
REMARK    9  A    between atoms: C_22  and  O_23
REMARK                            x       y       z     vdW  Elec       q    Type
REMARK                         _______ _______ _______ _____ _____    ______ ____
ROOT
ATOM      1  C   UNL     1      -0.018   1.503   0.010  0.00  0.00    +0.044 C 
ATOM      2  C   UNL     1       0.002  -0.004   0.002  0.00  0.00    -0.039 A 
ATOM      3  C   UNL     1       0.006  -0.690  -1.194  0.00  0.00    +0.004 A 
ATOM      4  C   UNL     1       0.025  -2.076  -1.204  0.00  0.00    +0.002 A 
ATOM      5  C   UNL     1       0.039  -2.787  -0.021  0.00  0.00    +0.026 A 
ATOM      6  C   UNL     1       0.036  -2.113   1.194  0.00  0.00    +0.057 A 
ATOM      7  C   UNL     1       0.023  -0.709   1.201  0.00  0.00    +0.034 A 
ATOM      8  C   UNL     1       0.031  -0.307   2.622  0.00  0.00    +0.153 A 
ATOM      9  C   UNL     1       0.053  -1.492   3.360  0.00  0.00    +0.224 A 
ATOM     10  N   UNL     1       0.047  -2.547   2.509  0.00  0.00    -0.281 N 
ENDROOT
BRANCH   8  11
ATOM     11  N   UNL     1       0.018   0.942   3.105  0.00  0.00    -0.166 NA
ATOM     12  N   UNL     1       0.027   1.141   4.379  0.00  0.00    -0.256 N 
ATOM     13  C   UNL     1       0.015   2.398   4.865  0.00  0.00    +0.165 C 
ATOM     14  N   UNL     1      -0.007   3.467   4.003  0.00  0.00    -0.378 N 
ATOM     15  S   UNL     1       0.027   2.654   6.505  0.00  0.00    -0.012 SA
ATOM     16  H   UNL     1      -0.013   3.317   3.045  0.00  0.00    +0.158 HD
ATOM     17  H   UNL     1       0.043   0.386   4.988  0.00  0.00    +0.191 HD
ATOM     18  H   UNL     1      -0.016   4.372   4.353  0.00  0.00    +0.158 HD
ENDBRANCH   8  11
BRANCH  10  19
ATOM     19  C   UNL     1       0.067  -3.952   2.923  0.00  0.00    +0.254 C 
ATOM     20  C   UNL     1      -1.320  -4.354   3.432  0.00  0.00    +0.195 C 
ATOM     21  C   UNL     1      -1.275  -5.806   3.918  0.00  0.00    +0.178 C 
ATOM     22  C   UNL     1      -0.199  -5.938   5.000  0.00  0.00    +0.177 C 
ATOM     23  C   UNL     1       1.145  -5.474   4.431  0.00  0.00    +0.177 C 
ATOM     24  O   UNL     1       1.026  -4.127   3.968  0.00  0.00    -0.346 OA
BRANCH  22  25
ATOM     25  O   UNL     1      -0.548  -5.126   6.123  0.00  0.00    -0.386 OA
ATOM     26  H   UNL     1      -1.393  -5.362   6.531  0.00  0.00    +0.210 HD
ENDBRANCH  22  25
BRANCH  21  27
ATOM     27  O   UNL     1      -2.547  -6.168   4.461  0.00  0.00    -0.386 OA
ATOM     28  H   UNL     1      -2.590  -7.076   4.789  0.00  0.00    +0.210 HD
ENDBRANCH  21  27
BRANCH  20  29
ATOM     29  O   UNL     1      -1.699  -3.499   4.512  0.00  0.00    -0.385 OA
ATOM     30  H   UNL     1      -2.569  -3.697   4.884  0.00  0.00    +0.210 HD
ENDBRANCH  20  29
BRANCH  23  31
ATOM     31  C   UNL     1       2.214  -5.546   5.523  0.00  0.00    +0.190 C 
BRANCH  31  32
ATOM     32  O   UNL     1       3.489  -5.225   4.963  0.00  0.00    -0.392 OA
ATOM     33  H   UNL     1       4.216  -5.251   5.601  0.00  0.00    +0.210 HD
ENDBRANCH  31  32
ENDBRANCH  23  31
ENDBRANCH  10  19
BRANCH   9  34
ATOM     34  O   UNL     1       0.067  -1.573   4.708  0.00  0.00    -0.492 OA
ATOM     35  H   UNL     1      -0.812  -1.610   5.109  0.00  0.00    +0.294 HD
ENDBRANCH   9  34
TORSDOF 8
