REMARK  Name = ZINC58846216
REMARK  7 active torsions:
REMARK  status: ('A' for Active; 'I' for Inactive)
REMARK    1  A    between atoms: C_1  and  C_2
REMARK    2  A    between atoms: C_5  and  N_9
REMARK    3  A    between atoms: C_6  and  C_8
REMARK    4  A    between atoms: N_9  and  S_10
REMARK    5  A    between atoms: S_10  and  C_13
REMARK    6  A    between atoms: C_26  and  C_29
REMARK    7  A    between atoms: C_31  and  N_36
REMARK                            x       y       z     vdW  Elec       q    Type
REMARK                         _______ _______ _______ _____ _____    ______ ____
ROOT
ATOM      1  C   UNL     1       3.070  -3.394  -2.039  0.00  0.00    +0.109 A 
ATOM      2  C   UNL     1       4.005  -2.421  -2.342  0.00  0.00    +0.030 A 
ATOM      3  C   UNL     1       5.313  -2.576  -1.931  0.00  0.00    +0.025 A 
ATOM      4  C   UNL     1       5.691  -3.706  -1.213  0.00  0.00    +0.031 A 
ATOM      5  C   UNL     1       4.752  -4.676  -0.897  0.00  0.00    -0.018 A 
ATOM      6  C   UNL     1       3.440  -4.511  -1.318  0.00  0.00    +0.034 A 
ATOM      7  C   UNL     1       5.110  -5.882  -0.095  0.00  0.00    +0.049 C 
ATOM      8  C   UNL     1       5.231  -7.117  -0.950  0.00  0.00    -0.023 C 
ATOM      9  C   UNL     1       6.194  -7.884  -0.504  0.00  0.00    -0.030 C 
ATOM     10  C   UNL     1       6.857  -7.269   0.709  0.00  0.00    +0.033 C 
ATOM     11  C   UNL     1       6.445  -5.780   0.640  0.00  0.00    +0.029 C 
ATOM     12  C   UNL     1       7.511  -5.030  -0.132  0.00  0.00    +0.106 C 
ATOM     13  N   UNL     1       7.016  -3.857  -0.822  0.00  0.00    -0.336 N 
ATOM     14  H   UNL     1       7.644  -3.152  -1.044  0.00  0.00    +0.147 HD
ENDROOT
BRANCH  12  15
ATOM     15  C   UNL     1       8.139  -5.975  -1.123  0.00  0.00    -0.007 A 
ATOM     16  C   UNL     1       7.549  -6.173  -2.358  0.00  0.00    +0.039 A 
ATOM     17  C   UNL     1       8.125  -7.040  -3.268  0.00  0.00    +0.127 A 
ATOM     18  C   UNL     1       9.290  -7.710  -2.943  0.00  0.00    +0.034 A 
ATOM     19  C   UNL     1       9.880  -7.512  -1.710  0.00  0.00    +0.022 A 
ATOM     20  C   UNL     1       9.308  -6.640  -0.801  0.00  0.00    +0.046 A 
ATOM     21 CL   UNL     1      10.053  -6.386   0.747  0.00  0.00    -0.083 Cl
BRANCH  17  22
ATOM     22  N   UNL     1       7.493  -7.253  -4.589  0.00  0.00    +0.056 N 
ATOM     23  O   UNL     1       6.474  -6.667  -4.873  0.00  0.00    -0.126 OA
ATOM     24  O   UNL     1       7.996  -8.011  -5.385  0.00  0.00    -0.126 OA
ENDBRANCH  17  22
ENDBRANCH  12  15
BRANCH   1  25
ATOM     25  S   UNL     1       1.401  -3.204  -2.569  0.00  0.00    +0.072 S 
ATOM     26  O   UNL     1       0.841  -4.510  -2.625  0.00  0.00    -0.150 OA
ATOM     27  O   UNL     1       1.428  -2.338  -3.695  0.00  0.00    -0.150 OA
BRANCH  25  28
ATOM     28  N   UNL     1       0.595  -2.396  -1.370  0.00  0.00    -0.216 N 
ATOM     29  H   UNL     1      -0.165  -2.809  -0.931  0.00  0.00    +0.174 HD
BRANCH  28  34
ATOM     30  C   UNL     1       2.278   2.795   0.176  0.00  0.00    +0.044 C 
ATOM     31  C   UNL     1       1.831   1.415  -0.235  0.00  0.00    -0.050 A 
ATOM     32  C   UNL     1       1.914   1.029  -1.560  0.00  0.00    +0.005 A 
ATOM     33  C   UNL     1       1.506  -0.234  -1.940  0.00  0.00    +0.025 A 
ATOM     34  C   UNL     1       1.010  -1.117  -0.989  0.00  0.00    +0.051 A 
ATOM     35  C   UNL     1       0.927  -0.726   0.341  0.00  0.00    -0.028 A 
ATOM     36  C   UNL     1       1.343   0.537   0.715  0.00  0.00    +0.008 A 
ATOM     37  C   UNL     1       0.390  -1.681   1.376  0.00  0.00    +0.046 C 
ENDBRANCH  28  34
ENDBRANCH  25  28
ENDBRANCH   1  25
TORSDOF 5
