REMARK  Name = ZINC20522757
REMARK  5 active torsions:
REMARK  status: ('A' for Active; 'I' for Inactive)
REMARK    1  A    between atoms: C_4  and  C_7
REMARK    2  A    between atoms: C_7  and  N_8
REMARK    3  A    between atoms: C_17  and  O_18
REMARK    4  A    between atoms: C_19  and  N_20
REMARK    5  A    between atoms: C_21  and  C_23
REMARK                            x       y       z     vdW  Elec       q    Type
REMARK                         _______ _______ _______ _____ _____    ______ ____
ROOT
ATOM      1  N   UNL     1       4.550  -1.815   0.315  0.00  0.00    -0.378 N 
ATOM      2  C   UNL     1       5.542  -2.047  -0.618  0.00  0.00    +0.075 A 
ATOM      3  C   UNL     1       5.635  -3.335  -1.323  0.00  0.00    +0.042 A 
ATOM      4  C   UNL     1       4.724  -4.362  -1.068  0.00  0.00    +0.013 A 
ATOM      5  C   UNL     1       4.838  -5.557  -1.744  0.00  0.00    +0.001 A 
ATOM      6  C   UNL     1       5.852  -5.741  -2.673  0.00  0.00    +0.004 A 
ATOM      7  C   UNL     1       6.758  -4.735  -2.934  0.00  0.00    +0.047 A 
ATOM      8  C   UNL     1       6.661  -3.522  -2.264  0.00  0.00    +0.141 A 
ATOM      9  O   UNL     1       7.542  -2.529  -2.509  0.00  0.00    -0.424 OA
ATOM     10  C   UNL     1       7.474  -1.347  -1.877  0.00  0.00    +0.309 A 
ATOM     11  C   UNL     1       6.476  -1.072  -0.925  0.00  0.00    +0.139 A 
ATOM     12  H   UNL     1       3.492  -1.872   0.019  0.00  0.00    +0.160 HD
ENDROOT
BRANCH  11  13
ATOM     13  N   UNL     1       6.431   0.179  -0.286  0.00  0.00    -0.274 N 
ATOM     14  C   UNL     1       7.396   0.524   0.589  0.00  0.00    +0.250 C 
ATOM     15  O   UNL     1       8.351  -0.208   0.760  0.00  0.00    -0.270 OA
ATOM     16  H   UNL     1       5.607   0.876  -0.501  0.00  0.00    +0.155 HD
BRANCH  14  17
ATOM     17  C   UNL     1       7.292   1.792   1.341  0.00  0.00    +0.055 A 
ATOM     18  C   UNL     1       6.198   2.637   1.143  0.00  0.00    +0.014 A 
ATOM     19  C   UNL     1       6.105   3.817   1.851  0.00  0.00    +0.001 A 
ATOM     20  C   UNL     1       7.097   4.169   2.749  0.00  0.00    +0.001 A 
ATOM     21  C   UNL     1       8.186   3.340   2.948  0.00  0.00    +0.021 A 
ATOM     22  C   UNL     1       8.290   2.153   2.249  0.00  0.00    +0.053 A 
ATOM     23 CL   UNL     1       9.658   1.113   2.498  0.00  0.00    -0.083 Cl
ENDBRANCH  14  17
ENDBRANCH  11  13
BRANCH  10  24
ATOM     24  O   UNL     1       8.297  -0.486  -2.139  0.00  0.00    -0.479 OA
ATOM     25  H   UNL     1       8.255   0.488  -1.630  0.00  0.00    +0.295 HD
ENDBRANCH  10  24
BRANCH   1  26
ATOM     26  C   UNL     1       5.126  -1.512   1.632  0.00  0.00    +0.148 C 
BRANCH  26  30
ATOM     27  C   UNL     1       1.980  -0.815   4.436  0.00  0.00    +0.000 A 
ATOM     28  C   UNL     1       2.504   0.238   3.709  0.00  0.00    +0.000 A 
ATOM     29  C   UNL     1       3.522   0.012   2.801  0.00  0.00    +0.005 A 
ATOM     30  C   UNL     1       4.016  -1.266   2.622  0.00  0.00    -0.028 A 
ATOM     31  C   UNL     1       3.493  -2.319   3.349  0.00  0.00    +0.005 A 
ATOM     32  C   UNL     1       2.475  -2.093   4.257  0.00  0.00    +0.000 A 
ENDBRANCH  26  30
ENDBRANCH   1  26
TORSDOF 5
