REMARK  Name = ZINC36245096
REMARK  8 active torsions:
REMARK  status: ('A' for Active; 'I' for Inactive)
REMARK    1  A    between atoms: C_1  and  C_2
REMARK    2  A    between atoms: C_3  and  N_21
REMARK    3  A    between atoms: C_6  and  N_8
REMARK    4  A    between atoms: N_8  and  C_9
REMARK    5  A    between atoms: C_9  and  C_10
REMARK    6  A    between atoms: C_10  and  C_11
REMARK    7  A    between atoms: C_14  and  S_17
REMARK    8  A    between atoms: S_17  and  N_20
REMARK                            x       y       z     vdW  Elec       q    Type
REMARK                         _______ _______ _______ _____ _____    ______ ____
ROOT
ATOM      1  C   UNL     1       0.070  -4.100   2.472  0.00  0.00    +0.107 C 
ENDROOT
BRANCH   1   2
ATOM      2  N   UNL     1       0.050  -2.636   2.418  0.00  0.00    -0.330 N 
ATOM      3  H   UNL     1       0.047  -2.120   3.239  0.00  0.00    +0.147 HD
BRANCH   2   9
ATOM      4  C   UNL     1      -0.018   1.503   0.010  0.00  0.00    +0.065 C 
ATOM      5  C   UNL     1       0.002  -0.004   0.002  0.00  0.00    +0.035 A 
ATOM      6  C   UNL     1       0.006  -0.683  -1.207  0.00  0.00    +0.044 A 
ATOM      7  C   UNL     1       0.025  -2.076  -1.204  0.00  0.00    +0.028 A 
ATOM      8  C   UNL     1       0.040  -2.732   0.014  0.00  0.00    +0.043 A 
ATOM      9  C   UNL     1       0.035  -1.985   1.186  0.00  0.00    +0.096 A 
ATOM     10  N   UNL     1       0.022  -0.662   1.145  0.00  0.00    -0.346 N 
ATOM     11  H   UNL     1       0.023  -0.164   1.978  0.00  0.00    +0.167 HD
BRANCH   6  12
ATOM     12  N   UNL     1      -0.011   0.023  -2.417  0.00  0.00    -0.357 N 
ATOM     13  H   UNL     1      -0.024   0.993  -2.412  0.00  0.00    +0.142 HD
ATOM     14  H   UNL     1      -0.008  -0.458  -3.259  0.00  0.00    +0.142 HD
ENDBRANCH   6  12
ENDBRANCH   2   9
ENDBRANCH   1   2
BRANCH   1  15
ATOM     15  C   UNL     1       0.083  -4.556   3.933  0.00  0.00    +0.054 C 
BRANCH  15  16
ATOM     16  C   UNL     1       0.104  -6.062   3.989  0.00  0.00    -0.046 A 
ATOM     17  C   UNL     1      -1.084  -6.769   4.014  0.00  0.00    +0.005 A 
ATOM     18  C   UNL     1      -1.065  -8.150   4.066  0.00  0.00    +0.029 A 
ATOM     19  C   UNL     1       0.142  -8.824   4.091  0.00  0.00    +0.105 A 
ATOM     20  C   UNL     1       1.329  -8.117   4.065  0.00  0.00    +0.029 A 
ATOM     21  C   UNL     1       1.310  -6.736   4.009  0.00  0.00    +0.005 A 
BRANCH  19  22
ATOM     22  S   UNL     1       0.166 -10.585   4.158  0.00  0.00    +0.056 S 
ATOM     23  O   UNL     1       1.417 -10.953   4.723  0.00  0.00    -0.153 OA
ATOM     24  O   UNL     1      -1.073 -10.987   4.725  0.00  0.00    -0.153 OA
BRANCH  22  25
ATOM     25  N   UNL     1       0.173 -11.134   2.596  0.00  0.00    -0.204 NA
ATOM     26  H   UNL     1       0.604 -11.975   2.379  0.00  0.00    +0.144 HD
ATOM     27  H   UNL     1      -0.255 -10.614   1.897  0.00  0.00    +0.144 HD
ENDBRANCH  22  25
ENDBRANCH  19  22
ENDBRANCH  15  16
ENDBRANCH   1  15
TORSDOF 7
