REMARK  Name = ZINC45069842
REMARK  6 active torsions:
REMARK  status: ('A' for Active; 'I' for Inactive)
REMARK    1  A    between atoms: C_8  and  N_13
REMARK    2  A    between atoms: N_13  and  C_14
REMARK    3  A    between atoms: C_14  and  C_15
REMARK    4  A    between atoms: C_15  and  C_16
REMARK    5  A    between atoms: C_16  and  S_17
REMARK    6  A    between atoms: S_17  and  N_20
REMARK                            x       y       z     vdW  Elec       q    Type
REMARK                         _______ _______ _______ _____ _____    ______ ____
ROOT
ATOM      1  N   UNL     1       3.609  -1.886   0.866  0.00  0.00    +0.384 N 
ATOM      2  H   UNL     1       3.605  -1.548   1.816  0.00  0.00    -0.085 HD
ATOM      3  H   UNL     1       2.759  -2.400   0.688  0.00  0.00    -0.085 HD
ENDROOT
BRANCH   1  11
ATOM      4  C   UNL     1       0.101   1.555   0.240  0.00  0.00    +0.019 A 
ATOM      5  C   UNL     1       1.317   2.201   0.159  0.00  0.00    +0.047 A 
ATOM      6  C   UNL     1       2.495   1.468   0.066  0.00  0.00    +0.122 A 
ATOM      7  C   UNL     1       2.443   0.085   0.053  0.00  0.00    -0.019 A 
ATOM      8  C   UNL     1       1.220  -0.559   0.137  0.00  0.00    +0.020 A 
ATOM      9  C   UNL     1       0.051   0.172   0.230  0.00  0.00    +0.018 A 
ATOM     10 BR   UNL     1      -1.614  -0.716   0.343  0.00  0.00    -0.050 Br
ATOM     11  C   UNL     1       3.695  -0.748  -0.059  0.00  0.00    -0.034 C 
ATOM     12  C   UNL     1       4.915   0.106   0.298  0.00  0.00    +0.030 C 
ATOM     13  C   UNL     1       4.820   1.428  -0.473  0.00  0.00    +0.228 C 
ATOM     14  O   UNL     1       3.673   2.140  -0.007  0.00  0.00    -0.492 OA
ENDBRANCH   1  11
BRANCH   1  15
ATOM     15  C   UNL     1       4.766  -2.769   0.664  0.00  0.00    -0.080 C 
BRANCH  15  16
ATOM     16  C   UNL     1       4.611  -4.018   1.534  0.00  0.00    +0.005 C 
BRANCH  16  17
ATOM     17  C   UNL     1       5.816  -4.938   1.324  0.00  0.00    +0.183 C 
BRANCH  17  18
ATOM     18  S   UNL     1       5.633  -6.419   2.354  0.00  0.00    +0.027 S 
ATOM     19  O   UNL     1       5.737  -6.075   3.729  0.00  0.00    -0.158 OA
ATOM     20  O   UNL     1       4.550  -7.211   1.886  0.00  0.00    -0.158 OA
BRANCH  18  21
ATOM     21  N   UNL     1       6.984  -7.325   2.042  0.00  0.00    -0.208 NA
ATOM     22  H   UNL     1       7.650  -7.002   1.415  0.00  0.00    +0.144 HD
ATOM     23  H   UNL     1       7.110  -8.178   2.487  0.00  0.00    +0.144 HD
ENDBRANCH  18  21
ENDBRANCH  17  18
ENDBRANCH  16  17
ENDBRANCH  15  16
ENDBRANCH   1  15
TORSDOF 6
