REMARK  Name = ZINC33748759
REMARK  9 active torsions:
REMARK  status: ('A' for Active; 'I' for Inactive)
REMARK    1  A    between atoms: C_1  and  C_2
REMARK    2  A    between atoms: C_7  and  C_8
REMARK    3  A    between atoms: N_10  and  C_11
REMARK    4  A    between atoms: C_14  and  C_17
REMARK    5  A    between atoms: C_19  and  C_29
REMARK    6  A    between atoms: C_20  and  C_28
REMARK    7  A    between atoms: N_31  and  C_32
REMARK    8  A    between atoms: C_35  and  O_38
REMARK    9  A    between atoms: O_38  and  C_39
REMARK                            x       y       z     vdW  Elec       q    Type
REMARK                         _______ _______ _______ _____ _____    ______ ____
ROOT
ATOM      1  C   UNL     1      -4.355   1.437   0.488  0.00  0.00    +0.142 C 
ATOM      2  C   UNL     1      -2.855   1.444   0.305  0.00  0.00    +0.058 C 
ATOM      3  C   UNL     1      -2.224   0.292  -0.061  0.00  0.00    +0.025 C 
ATOM      4  N   UNL     1      -2.920  -0.820  -0.295  0.00  0.00    -0.341 N 
ATOM      5  C   UNL     1      -4.230  -0.790  -0.464  0.00  0.00    +0.135 C 
ATOM      6  N   UNL     1      -4.913   0.392  -0.404  0.00  0.00    -0.300 N 
ATOM      7  C   UNL     1      -6.126   0.676  -1.141  0.00  0.00    +0.109 C 
ATOM      8  C   UNL     1      -7.048  -0.503  -1.354  0.00  0.00    +0.030 C 
ATOM      9  C   UNL     1      -6.312  -1.699  -1.954  0.00  0.00    +0.078 C 
ATOM     10  S   UNL     1      -5.111  -2.297  -0.733  0.00  0.00    -0.092 S 
ATOM     11  C   UNL     1      -0.724   0.277  -0.201  0.00  0.00    +0.064 C 
ATOM     12  H   UNL     1      -2.381  -1.777  -0.347  0.00  0.00    +0.167 HD
ENDROOT
BRANCH   1  16
ATOM     13  C   UNL     1      -5.313   0.550   4.557  0.00  0.00    +0.034 A 
ATOM     14  C   UNL     1      -5.334   1.864   4.108  0.00  0.00    +0.023 A 
ATOM     15  C   UNL     1      -5.024   2.147   2.792  0.00  0.00    +0.007 A 
ATOM     16  C   UNL     1      -4.693   1.124   1.923  0.00  0.00    -0.022 A 
ATOM     17  C   UNL     1      -4.677  -0.186   2.365  0.00  0.00    +0.007 A 
ATOM     18  C   UNL     1      -4.980  -0.475   3.681  0.00  0.00    +0.023 A 
BRANCH  13  21
ATOM     19  C   UNL     1      -5.182   1.062   6.876  0.00  0.00    +0.249 C 
ATOM     20  O   UNL     1      -4.589   2.088   6.605  0.00  0.00    -0.270 OA
ATOM     21  N   UNL     1      -5.627   0.260   5.889  0.00  0.00    -0.281 N 
ATOM     22  H   UNL     1      -6.236  -0.624   6.130  0.00  0.00    +0.155 HD
BRANCH  19  29
ATOM     23  C   UNL     1      -4.203   2.786   8.984  0.00  0.00    +0.044 C 
ATOM     24  C   UNL     1      -4.949   1.519   9.314  0.00  0.00    -0.038 A 
ATOM     25  C   UNL     1      -5.172   1.170  10.630  0.00  0.00    +0.004 A 
ATOM     26  C   UNL     1      -5.857   0.008  10.935  0.00  0.00    +0.000 A 
ATOM     27  C   UNL     1      -6.324  -0.813   9.923  0.00  0.00    +0.001 A 
ATOM     28  C   UNL     1      -6.113  -0.474   8.603  0.00  0.00    +0.013 A 
ATOM     29  C   UNL     1      -5.417   0.695   8.289  0.00  0.00    +0.040 A 
ENDBRANCH  19  29
ENDBRANCH  13  21
ENDBRANCH   1  16
BRANCH   2  30
ATOM     30  C   UNL     1      -2.118   2.623   0.515  0.00  0.00    +0.248 C 
ATOM     31  O   UNL     1      -0.900   2.595   0.483  0.00  0.00    -0.270 OA
ATOM     32  N   UNL     1      -2.759   3.785   0.752  0.00  0.00    -0.282 N 
ATOM     33  H   UNL     1      -3.856   3.830   0.693  0.00  0.00    +0.155 HD
BRANCH  32  34
ATOM     34  C   UNL     1      -2.027   4.935   1.075  0.00  0.00    +0.034 A 
ATOM     35  C   UNL     1      -2.447   6.177   0.617  0.00  0.00    +0.027 A 
ATOM     36  C   UNL     1      -1.729   7.311   0.941  0.00  0.00    +0.047 A 
ATOM     37  C   UNL     1      -0.581   7.208   1.713  0.00  0.00    +0.120 A 
ATOM     38  C   UNL     1      -0.157   5.967   2.166  0.00  0.00    +0.047 A 
ATOM     39  C   UNL     1      -0.878   4.833   1.848  0.00  0.00    +0.027 A 
BRANCH  37  40
ATOM     40  O   UNL     1       0.129   8.325   2.027  0.00  0.00    -0.495 OA
ATOM     41  C   UNL     1      -0.365   9.569   1.527  0.00  0.00    +0.277 C 
ENDBRANCH  37  40
ENDBRANCH  32  34
ENDBRANCH   2  30
TORSDOF 6
