REMARK  Name = ZINC67129363
REMARK  7 active torsions:
REMARK  status: ('A' for Active; 'I' for Inactive)
REMARK    1  A    between atoms: C_3  and  O_23
REMARK    2  A    between atoms: C_6  and  N_7
REMARK    3  A    between atoms: C_8  and  C_10
REMARK    4  A    between atoms: C_10  and  N_11
REMARK    5  A    between atoms: C_13  and  O_21
REMARK    6  A    between atoms: C_16  and  C_18
REMARK    7  A    between atoms: O_23  and  C_24
REMARK                            x       y       z     vdW  Elec       q    Type
REMARK                         _______ _______ _______ _____ _____    ______ ____
ROOT
ATOM      1  N   UNL     1      -1.202  -0.721   0.010  0.00  0.00    -0.287 N 
ATOM      2  C   UNL     1      -1.186  -2.064  -0.099  0.00  0.00    +0.201 C 
ATOM      3  O   UNL     1      -0.130  -2.660  -0.113  0.00  0.00    -0.278 OA
ATOM      4  H   UNL     1      -2.046  -0.251   0.098  0.00  0.00    +0.155 HD
ENDROOT
BRANCH   1  10
ATOM      5  C   UNL     1       1.070  -0.455  -0.766  0.00  0.00    +0.027 A 
ATOM      6  C   UNL     1       2.256   0.253  -0.780  0.00  0.00    +0.049 A 
ATOM      7  C   UNL     1       2.381   1.414  -0.033  0.00  0.00    +0.145 A 
ATOM      8  C   UNL     1       1.312   1.866   0.731  0.00  0.00    +0.084 A 
ATOM      9  C   UNL     1       0.126   1.159   0.746  0.00  0.00    +0.047 A 
ATOM     10  C   UNL     1       0.002  -0.004  -0.004  0.00  0.00    +0.035 A 
ATOM     11 CL   UNL     1       1.469   3.319   1.668  0.00  0.00    -0.080 Cl
BRANCH   7  12
ATOM     12  O   UNL     1       3.549   2.110  -0.046  0.00  0.00    -0.433 OA
BRANCH  12  13
ATOM     13  C   UNL     1       4.606   1.588  -0.854  0.00  0.00    +0.541 C 
ATOM     14  F   UNL     1       4.939   0.303  -0.411  0.00  0.00    -0.166 F 
ATOM     15  F   UNL     1       4.188   1.528  -2.188  0.00  0.00    -0.166 F 
ENDBRANCH  12  13
ENDBRANCH   7  12
ENDBRANCH   1  10
BRANCH   2  16
ATOM     16  C   UNL     1      -2.482  -2.827  -0.204  0.00  0.00    +0.020 C 
BRANCH  16  17
ATOM     17  N   UNL     1      -2.197  -4.264  -0.312  0.00  0.00    +0.395 N 
ATOM     18  C   UNL     1      -1.645  -4.771   0.963  0.00  0.00    -0.045 C 
ATOM     19  C   UNL     1      -2.186  -6.201   1.153  0.00  0.00    +0.097 C 
ATOM     20  C   UNL     1      -3.097  -6.453  -0.070  0.00  0.00    +0.023 C 
ATOM     21  C   UNL     1      -3.456  -5.020  -0.537  0.00  0.00    +0.022 C 
ATOM     22  H   UNL     1      -1.549  -4.435  -1.066  0.00  0.00    -0.080 HD
BRANCH  21  23
ATOM     23  C   UNL     1      -3.827  -5.013  -1.997  0.00  0.00    +0.197 C 
ATOM     24  O   UNL     1      -3.122  -4.437  -2.799  0.00  0.00    -0.278 OA
ATOM     25  N   UNL     1      -4.941  -5.647  -2.413  0.00  0.00    -0.331 N 
ATOM     26  H   UNL     1      -5.505  -6.107  -1.771  0.00  0.00    +0.145 HD
ATOM     27  H   UNL     1      -5.180  -5.642  -3.353  0.00  0.00    +0.145 HD
ENDBRANCH  21  23
BRANCH  19  28
ATOM     28  O   UNL     1      -1.109  -7.140   1.174  0.00  0.00    -0.394 OA
ATOM     29  H   UNL     1      -1.390  -8.058   1.291  0.00  0.00    +0.210 HD
ENDBRANCH  19  28
ENDBRANCH  16  17
ENDBRANCH   2  16
TORSDOF 7
