REMARK  Name = ZINC39657109
REMARK  10 active torsions:
REMARK  status: ('A' for Active; 'I' for Inactive)
REMARK    1  A    between atoms: C_1  and  C_2
REMARK    2  A    between atoms: C_2  and  C_3
REMARK    3  A    between atoms: C_3  and  C_4
REMARK    4  A    between atoms: C_4  and  C_5
REMARK    5  A    between atoms: C_5  and  C_7
REMARK    6  A    between atoms: C_5  and  C_8
REMARK    7  A    between atoms: C_12  and  C_21
REMARK    8  A    between atoms: N_23  and  C_24
REMARK    9  A    between atoms: C_24  and  C_26
REMARK   10  A    between atoms: C_24  and  C_27
REMARK                            x       y       z     vdW  Elec       q    Type
REMARK                         _______ _______ _______ _____ _____    ______ ____
ROOT
ATOM      1  C   UNL     1       1.551  -4.181  -2.453  0.00  0.00    +0.218 C 
ATOM      2  O   UNL     1       1.171  -4.816  -1.491  0.00  0.00    -0.275 OA
ATOM      3  N   UNL     1       2.189  -4.805  -3.463  0.00  0.00    -0.300 N 
ATOM      4  C   UNL     1       2.728  -4.204  -4.705  0.00  0.00    +0.121 C 
ATOM      5  C   UNL     1       4.066  -4.939  -4.946  0.00  0.00    +0.100 C 
ATOM      6  C   UNL     1       3.916  -6.279  -4.207  0.00  0.00    -0.004 C 
ATOM      7  C   UNL     1       2.515  -6.247  -3.578  0.00  0.00    +0.115 C 
ATOM      8  C   UNL     1       4.975  -6.402  -3.115  0.00  0.00    -0.010 C 
ATOM      9  C   UNL     1       4.841  -7.767  -2.434  0.00  0.00    -0.082 C 
ATOM     10  N   UNL     1       5.010  -8.832  -3.430  0.00  0.00    +0.379 N 
ATOM     11  C   UNL     1       3.933  -8.763  -4.425  0.00  0.00    -0.082 C 
ATOM     12  C   UNL     1       4.028  -7.440  -5.191  0.00  0.00    -0.010 C 
ATOM     13  H   UNL     1       5.900  -8.721  -3.891  0.00  0.00    -0.086 HD
ATOM     14  H   UNL     1       4.983  -9.729  -2.969  0.00  0.00    -0.086 HD
ENDROOT
BRANCH   5  15
ATOM     15  C   UNL     1       4.281  -5.170  -6.419  0.00  0.00    +0.219 C 
ATOM     16  O   UNL     1       3.328  -5.327  -7.153  0.00  0.00    -0.275 OA
ATOM     17  N   UNL     1       5.531  -5.202  -6.921  0.00  0.00    -0.308 N 
ATOM     18  H   UNL     1       6.293  -5.077  -6.334  0.00  0.00    +0.149 HD
BRANCH  17  19
ATOM     19  C   UNL     1       5.740  -5.427  -8.354  0.00  0.00    +0.100 C 
ATOM     20  C   UNL     1       5.632  -4.095  -9.100  0.00  0.00    +0.033 C 
BRANCH  19  21
ATOM     21  C   UNL     1       7.108  -6.018  -8.575  0.00  0.00    -0.027 A 
ATOM     22  C   UNL     1       8.185  -5.563  -7.837  0.00  0.00    +0.006 A 
ATOM     23  C   UNL     1       9.440  -6.105  -8.040  0.00  0.00    +0.015 A 
ATOM     24  C   UNL     1       9.619  -7.102  -8.981  0.00  0.00    +0.018 A 
ATOM     25  C   UNL     1       8.541  -7.557  -9.719  0.00  0.00    +0.015 A 
ATOM     26  C   UNL     1       7.285  -7.018  -9.512  0.00  0.00    +0.006 A 
ATOM     27 BR   UNL     1      11.336  -7.844  -9.259  0.00  0.00    -0.050 Br
ENDBRANCH  19  21
ENDBRANCH  17  19
ENDBRANCH   5  15
BRANCH   1  28
ATOM     28  C   UNL     1       1.309  -2.695  -2.518  0.00  0.00    +0.072 C 
ATOM     29  C   UNL     1       0.460  -2.370  -3.748  0.00  0.00    +0.017 C 
BRANCH  28  30
ATOM     30  C   UNL     1       0.572  -2.242  -1.256  0.00  0.00    +0.012 C 
BRANCH  30  31
ATOM     31  C   UNL     1       0.437  -0.718  -1.263  0.00  0.00    +0.000 C 
BRANCH  31  33
ATOM     32  C   UNL     1      -0.434   1.258  -0.008  0.00  0.00    +0.004 C 
ATOM     33  C   UNL     1      -0.299  -0.266  -0.001  0.00  0.00    -0.003 C 
ENDBRANCH  31  33
ENDBRANCH  30  31
ENDBRANCH  28  30
ENDBRANCH   1  28
TORSDOF 7
