REMARK  Name = ZINC39951150
REMARK  7 active torsions:
REMARK  status: ('A' for Active; 'I' for Inactive)
REMARK    1  A    between atoms: C_1  and  C_2
REMARK    2  A    between atoms: C_2  and  C_3
REMARK    3  A    between atoms: C_8  and  C_24
REMARK    4  A    between atoms: C_9  and  O_11
REMARK    5  A    between atoms: C_15  and  C_17
REMARK    6  A    between atoms: C_20  and  N_23
REMARK    7  A    between atoms: C_24  and  C_25
REMARK                            x       y       z     vdW  Elec       q    Type
REMARK                         _______ _______ _______ _____ _____    ______ ____
ROOT
ATOM      1  C   UNL     1      -1.467  -0.428  -0.048  0.00  0.00    -0.016 C 
ATOM      2  C   UNL     1      -2.004   0.152  -1.320  0.00  0.00    +0.023 C 
ATOM      3  C   UNL     1      -3.480   0.371  -1.315  0.00  0.00    +0.083 C 
ATOM      4  N   UNL     1      -4.249  -0.617  -0.598  0.00  0.00    -0.311 NA
ATOM      5  C   UNL     1      -3.828  -1.990  -0.669  0.00  0.00    +0.090 C 
ATOM      6  C   UNL     1      -2.824  -2.456   0.366  0.00  0.00    -0.005 C 
ATOM      7  C   UNL     1      -1.448  -1.935   0.011  0.00  0.00    +0.125 C 
ATOM      8  C   UNL     1      -3.180  -1.906   1.752  0.00  0.00    -0.065 C 
ATOM      9  N   UNL     1      -3.333  -0.452   1.621  0.00  0.00    +0.394 N 
ATOM     10  C   UNL     1      -2.104   0.198   1.182  0.00  0.00    -0.067 C 
ATOM     11  C   UNL     1      -4.488  -0.157   0.781  0.00  0.00    +0.033 C 
ATOM     12  H   UNL     1      -3.546  -0.095   2.540  0.00  0.00    -0.079 HD
ENDROOT
BRANCH  11  13
ATOM     13  C   UNL     1      -5.701  -0.856   1.337  0.00  0.00    -0.047 A 
ATOM     14  C   UNL     1      -5.795  -1.098   2.695  0.00  0.00    +0.005 A 
ATOM     15  C   UNL     1      -6.906  -1.739   3.208  0.00  0.00    +0.023 A 
ATOM     16  C   UNL     1      -7.930  -2.139   2.359  0.00  0.00    +0.025 A 
ATOM     17  C   UNL     1      -7.832  -1.893   0.995  0.00  0.00    +0.023 A 
ATOM     18  C   UNL     1      -6.721  -1.248   0.489  0.00  0.00    +0.005 A 
BRANCH  16  19
ATOM     19  N   UNL     1      -9.054  -2.787   2.874  0.00  0.00    -0.358 N 
ATOM     20  H   UNL     1      -9.121  -2.958   3.827  0.00  0.00    +0.142 HD
ATOM     21  H   UNL     1      -9.768  -3.066   2.280  0.00  0.00    +0.142 HD
ENDBRANCH  16  19
ENDBRANCH  11  13
BRANCH   1  23
ATOM     22  C   UNL     1       0.754  -0.631  -1.174  0.00  0.00    +0.004 C 
ATOM     23  C   UNL     1       0.002  -0.004   0.002  0.00  0.00    +0.004 C 
ENDBRANCH   1  23
BRANCH   7  24
ATOM     24  O   UNL     1      -0.523  -2.364   1.012  0.00  0.00    -0.391 OA
ATOM     25  H   UNL     1       0.386  -2.075   0.857  0.00  0.00    +0.210 HD
ENDBRANCH   7  24
BRANCH   6  26
ATOM     26  C   UNL     1      -2.805  -3.985   0.409  0.00  0.00    +0.005 C 
ATOM     27  C   UNL     1      -4.196  -4.502   0.780  0.00  0.00    +0.004 C 
ENDBRANCH   6  26
TORSDOF 5
