REMARK  Name = ZINC38769713
REMARK  9 active torsions:
REMARK  status: ('A' for Active; 'I' for Inactive)
REMARK    1  A    between atoms: C_1  and  C_2
REMARK    2  A    between atoms: C_5  and  N_9
REMARK    3  A    between atoms: C_6  and  C_8
REMARK    4  A    between atoms: C_13  and  C_15
REMARK    5  A    between atoms: C_15  and  C_17
REMARK    6  A    between atoms: C_15  and  S_18
REMARK    7  A    between atoms: S_18  and  C_19
REMARK    8  A    between atoms: C_23  and  C_28
REMARK    9  A    between atoms: N_24  and  C_25
REMARK                            x       y       z     vdW  Elec       q    Type
REMARK                         _______ _______ _______ _____ _____    ______ ____
ROOT
ATOM      1  S   UNL     1       0.345  -8.985  -3.887  0.00  0.00    -0.106 S 
ENDROOT
BRANCH   1   2
ATOM      2  C   UNL     1       0.285 -10.789  -3.703  0.00  0.00    +0.238 C 
ATOM      3  N   UNL     1      -1.082 -11.228  -3.380  0.00  0.00    -0.237 N 
ATOM      4  N   UNL     1      -1.015 -11.849  -2.128  0.00  0.00    -0.169 NA
ATOM      5  C   UNL     1       0.205 -11.841  -1.658  0.00  0.00    +0.147 C 
ATOM      6  N   UNL     1       1.089 -11.215  -2.545  0.00  0.00    -0.282 N 
ATOM      7  H   UNL     1      -1.874 -11.110  -3.928  0.00  0.00    +0.171 HD
BRANCH   5   8
ATOM      8  C   UNL     1       0.581 -12.390  -0.423  0.00  0.00    +0.022 C 
ATOM      9  C   UNL     1      -0.224 -13.111   0.460  0.00  0.00    +0.006 A 
ATOM     10  C   UNL     1      -1.579 -13.502   0.412  0.00  0.00    +0.010 A 
ATOM     11  C   UNL     1      -2.110 -14.217   1.436  0.00  0.00    +0.001 A 
ATOM     12  C   UNL     1      -1.347 -14.581   2.548  0.00  0.00    +0.002 A 
ATOM     13  C   UNL     1      -0.039 -14.239   2.660  0.00  0.00    +0.026 A 
ATOM     14  C   UNL     1       0.586 -13.492   1.629  0.00  0.00    +0.043 A 
ATOM     15  N   UNL     1       1.820 -13.045   1.501  0.00  0.00    -0.380 N 
ATOM     16  C   UNL     1       1.945 -12.329   0.227  0.00  0.00    +0.152 C 
ATOM     17  H   UNL     1       2.533 -13.173   2.145  0.00  0.00    +0.160 HD
ENDBRANCH   5   8
BRANCH   6  18
ATOM     18  C   UNL     1       2.529 -11.020  -2.360  0.00  0.00    +0.078 C 
ATOM     19  C   UNL     1       3.282 -10.242  -3.441  0.00  0.00    +0.024 C 
ATOM     20  C   UNL     1       3.470 -11.755  -3.316  0.00  0.00    +0.024 C 
ENDBRANCH   6  18
ENDBRANCH   1   2
BRANCH   1  21
ATOM     21  C   UNL     1      -0.290  -8.361  -2.307  0.00  0.00    +0.133 C 
ATOM     22  C   UNL     1      -1.756  -8.767  -2.150  0.00  0.00    +0.029 C 
BRANCH  21  27
ATOM     23  N   UNL     1       0.082  -4.218   0.103  0.00  0.00    -0.269 N 
ATOM     24  C   UNL     1       0.001  -4.866  -1.075  0.00  0.00    +0.310 C 
ATOM     25  O   UNL     1       0.018  -4.239  -2.116  0.00  0.00    -0.252 OA
ATOM     26  N   UNL     1      -0.098  -6.210  -1.100  0.00  0.00    -0.239 N 
ATOM     27  C   UNL     1      -0.179  -6.858  -2.279  0.00  0.00    +0.233 C 
ATOM     28  O   UNL     1      -0.162  -6.232  -3.317  0.00  0.00    -0.274 OA
ATOM     29  H   UNL     1       0.132  -4.721   0.931  0.00  0.00    +0.156 HD
ATOM     30  H   UNL     1      -0.111  -6.711  -0.270  0.00  0.00    +0.159 HD
BRANCH  23  35
ATOM     31  C   UNL     1       0.125   1.454   0.224  0.00  0.00    +0.044 C 
ATOM     32  C   UNL     1       0.113  -0.053   0.192  0.00  0.00    -0.050 A 
ATOM     33  C   UNL     1       0.725  -0.725  -0.850  0.00  0.00    +0.005 A 
ATOM     34  C   UNL     1       0.716  -2.106  -0.883  0.00  0.00    +0.024 A 
ATOM     35  C   UNL     1       0.093  -2.819   0.133  0.00  0.00    +0.038 A 
ATOM     36  C   UNL     1      -0.520  -2.141   1.179  0.00  0.00    -0.029 A 
ATOM     37  C   UNL     1      -0.503  -0.760   1.208  0.00  0.00    +0.008 A 
ATOM     38  C   UNL     1      -1.197  -2.910   2.283  0.00  0.00    +0.045 C 
ENDBRANCH  23  35
ENDBRANCH  21  27
ENDBRANCH   1  21
TORSDOF 6
