REMARK  Name = ZINC66907006
REMARK  4 active torsions:
REMARK  status: ('A' for Active; 'I' for Inactive)
REMARK    1  A    between atoms: C_3  and  N_22
REMARK    2  A    between atoms: C_6  and  N_7
REMARK    3  A    between atoms: N_10  and  C_11
REMARK    4  A    between atoms: C_23  and  C_25
REMARK                            x       y       z     vdW  Elec       q    Type
REMARK                         _______ _______ _______ _____ _____    ______ ____
ROOT
ATOM      1  N   UNL     1      -1.245  -0.754   0.043  0.00  0.00    -0.268 N 
ATOM      2  C   UNL     1      -1.193  -2.096   0.148  0.00  0.00    +0.308 C 
ATOM      3  O   UNL     1      -0.125  -2.652   0.320  0.00  0.00    -0.252 OA
ATOM      4  N   UNL     1      -2.325  -2.823   0.064  0.00  0.00    -0.268 N 
ATOM      5  H   UNL     1      -2.102  -0.304  -0.015  0.00  0.00    +0.156 HD
ATOM      6  H   UNL     1      -3.184  -2.377  -0.006  0.00  0.00    +0.156 HD
ENDROOT
BRANCH   4   7
ATOM      7  C   UNL     1      -2.262  -4.224   0.076  0.00  0.00    +0.051 A 
ATOM      8  C   UNL     1      -1.306  -4.880   0.849  0.00  0.00    +0.028 A 
ATOM      9  C   UNL     1      -1.280  -6.262   0.831  0.00  0.00    +0.043 A 
ATOM     10  C   UNL     1      -2.202  -6.948   0.048  0.00  0.00    +0.099 A 
ATOM     11  N   UNL     1      -3.096  -6.291  -0.675  0.00  0.00    -0.348 N 
ATOM     12  C   UNL     1      -3.153  -4.973  -0.677  0.00  0.00    +0.107 A 
ATOM     13  N   UNL     1      -2.185  -8.340   0.023  0.00  0.00    -0.317 N 
ATOM     14  C   UNL     1      -1.258  -9.199   0.774  0.00  0.00    +0.106 C 
ATOM     15  C   UNL     1      -1.596 -10.661   0.415  0.00  0.00    +0.020 C 
ATOM     16  C   UNL     1      -2.321 -10.525  -0.950  0.00  0.00    +0.020 C 
ATOM     17  C   UNL     1      -3.097  -9.196  -0.757  0.00  0.00    +0.106 C 
ATOM     18  H   UNL     1      -3.728  -6.792  -1.213  0.00  0.00    +0.167 HD
ENDBRANCH   4   7
BRANCH   1  24
ATOM     19  C   UNL     1       1.083  -0.517  -0.597  0.00  0.00    +0.028 A 
ATOM     20  C   UNL     1       2.230   0.255  -0.599  0.00  0.00    +0.045 A 
ATOM     21  C   UNL     1       2.207   1.506   0.008  0.00  0.00    +0.125 A 
ATOM     22  N   UNL     1       1.104   1.958   0.583  0.00  0.00    -0.238 NA
ATOM     23  C   UNL     1      -0.008   1.250   0.603  0.00  0.00    +0.136 A 
ATOM     24  C   UNL     1      -0.059  -0.007   0.018  0.00  0.00    +0.053 A 
BRANCH  21  25
ATOM     25  N   UNL     1       3.360   2.292   0.012  0.00  0.00    -0.270 N 
ATOM     26  C   UNL     1       3.319   3.545   0.507  0.00  0.00    +0.221 C 
ATOM     27  O   UNL     1       2.307   3.957   1.032  0.00  0.00    -0.275 OA
ATOM     28  H   UNL     1       4.191   1.937  -0.341  0.00  0.00    +0.156 HD
BRANCH  26  29
ATOM     29  C   UNL     1       4.532   4.434   0.408  0.00  0.00    +0.075 C 
ATOM     30  C   UNL     1       5.259   4.785   1.708  0.00  0.00    +0.013 C 
ATOM     31  C   UNL     1       4.422   5.846   0.988  0.00  0.00    +0.013 C 
ENDBRANCH  26  29
ENDBRANCH  21  25
ENDBRANCH   1  24
TORSDOF 4
