REMARK  Name = ZINC43091491
REMARK  10 active torsions:
REMARK  status: ('A' for Active; 'I' for Inactive)
REMARK    1  A    between atoms: C_1  and  C_2
REMARK    2  A    between atoms: C_2  and  C_3
REMARK    3  A    between atoms: C_3  and  C_5
REMARK    4  A    between atoms: C_3  and  N_21
REMARK    5  A    between atoms: C_5  and  C_7
REMARK    6  A    between atoms: C_5  and  N_14
REMARK    7  A    between atoms: N_14  and  C_15
REMARK    8  A    between atoms: N_14  and  C_16
REMARK    9  A    between atoms: C_16  and  C_17
REMARK   10  A    between atoms: N_19  and  C_20
REMARK                            x       y       z     vdW  Elec       q    Type
REMARK                         _______ _______ _______ _____ _____    ______ ____
ROOT
ATOM      1  C   UNL     1       0.720  -2.332  -1.525  0.00  0.00    +0.074 C 
ENDROOT
BRANCH   1   2
ATOM      2  C   UNL     1       1.270  -2.906  -2.805  0.00  0.00    -0.018 A 
ATOM      3  C   UNL     1       0.465  -2.997  -3.925  0.00  0.00    +0.006 A 
ATOM      4  C   UNL     1       0.970  -3.522  -5.099  0.00  0.00    +0.000 A 
ATOM      5  C   UNL     1       2.281  -3.959  -5.154  0.00  0.00    +0.001 A 
ATOM      6  C   UNL     1       3.087  -3.869  -4.035  0.00  0.00    +0.015 A 
ATOM      7  C   UNL     1       2.583  -3.338  -2.861  0.00  0.00    +0.022 A 
ATOM      8 BR   UNL     1       3.687  -3.208  -1.332  0.00  0.00    -0.050 Br
ENDBRANCH   1   2
BRANCH   1   9
ATOM      9  N   UNL     1      -0.730  -2.563  -1.469  0.00  0.00    -0.292 NA
ATOM     10  C   UNL     1      -1.463  -1.474  -2.128  0.00  0.00    +0.106 C 
BRANCH   9  11
ATOM     11  C   UNL     1      -1.182  -2.737  -0.082  0.00  0.00    +0.180 C 
BRANCH  11  12
ATOM     12  C   UNL     1      -2.544  -3.381  -0.074  0.00  0.00    +0.227 C 
ATOM     13  O   UNL     1      -3.085  -3.667  -1.121  0.00  0.00    -0.274 OA
ATOM     14  N   UNL     1      -3.161  -3.640   1.096  0.00  0.00    -0.317 N 
ATOM     15  C   UNL     1      -4.485  -4.266   1.103  0.00  0.00    +0.128 C 
ATOM     16  H   UNL     1      -2.728  -3.411   1.933  0.00  0.00    +0.148 HD
ENDBRANCH  11  12
ENDBRANCH   9  11
ENDBRANCH   1   9
BRANCH   1  17
ATOM     17  C   UNL     1       0.999  -0.829  -1.479  0.00  0.00    -0.053 C 
BRANCH  17  18
ATOM     18  N   UNL     1       2.434  -0.591  -1.681  0.00  0.00    +0.381 N 
ATOM     19  H   UNL     1       2.958  -1.052  -0.952  0.00  0.00    -0.090 HD
ATOM     20  H   UNL     1       2.713  -0.957  -2.579  0.00  0.00    -0.090 HD
ATOM     21  H   UNL     1       2.618   0.401  -1.651  0.00  0.00    -0.090 HD
ENDBRANCH  17  18
BRANCH  17  23
ATOM     22  C   UNL     1       0.858   1.230  -0.070  0.00  0.00    +0.002 C 
ATOM     23  C   UNL     1       0.576  -0.273  -0.118  0.00  0.00    -0.018 C 
ENDBRANCH  17  23
ENDBRANCH   1  17
TORSDOF 7
