REMARK  Name = ZINC52812639
REMARK  7 active torsions:
REMARK  status: ('A' for Active; 'I' for Inactive)
REMARK    1  A    between atoms: C_1  and  C_2
REMARK    2  A    between atoms: C_4  and  N_15
REMARK    3  A    between atoms: C_7  and  N_8
REMARK    4  A    between atoms: N_8  and  C_9
REMARK    5  A    between atoms: C_9  and  C_10
REMARK    6  A    between atoms: N_12  and  C_13
REMARK    7  A    between atoms: N_12  and  C_14
REMARK                            x       y       z     vdW  Elec       q    Type
REMARK                         _______ _______ _______ _____ _____    ______ ____
ROOT
ATOM      1  C   UNL     1      -0.018   1.503   0.010  0.00  0.00    +0.047 C 
ATOM      2  C   UNL     1       0.002  -0.004   0.002  0.00  0.00    -0.011 A 
ATOM      3  C   UNL     1       0.006  -0.698  -1.195  0.00  0.00    +0.030 A 
ATOM      4  C   UNL     1       0.025  -2.091  -1.155  0.00  0.00    +0.041 A 
ATOM      5  C   UNL     1       0.039  -2.732   0.075  0.00  0.00    +0.106 A 
ATOM      6  N   UNL     1       0.035  -2.038   1.198  0.00  0.00    -0.348 N 
ATOM      7  C   UNL     1       0.023  -0.714   1.197  0.00  0.00    +0.100 A 
ATOM      8  H   UNL     1       0.044  -2.510   2.045  0.00  0.00    +0.167 HD
ENDROOT
BRANCH   4   9
ATOM      9  N   UNL     1       0.029  -2.834  -2.341  0.00  0.00    -0.357 N 
ATOM     10  H   UNL     1       0.019  -2.380  -3.198  0.00  0.00    +0.142 HD
ATOM     11  H   UNL     1       0.042  -3.803  -2.306  0.00  0.00    +0.142 HD
ENDBRANCH   4   9
BRANCH   7  12
ATOM     12  N   UNL     1       0.025  -0.025   2.408  0.00  0.00    -0.322 N 
ATOM     13  H   UNL     1       0.012   0.945   2.414  0.00  0.00    +0.148 HD
BRANCH  12  14
ATOM     14  C   UNL     1       0.047  -0.765   3.672  0.00  0.00    +0.199 C 
BRANCH  14  15
ATOM     15  C   UNL     1       0.045   0.207   4.824  0.00  0.00    +0.232 C 
ATOM     16  O   UNL     1       0.027   1.401   4.609  0.00  0.00    -0.274 OA
ATOM     17  N   UNL     1       0.063  -0.250   6.091  0.00  0.00    -0.306 N 
ATOM     18  C   UNL     1       0.061   0.695   7.211  0.00  0.00    +0.131 C 
ATOM     19  C   UNL     1       0.085  -1.692   6.350  0.00  0.00    +0.131 C 
ENDBRANCH  14  15
ENDBRANCH  12  14
ENDBRANCH   7  12
TORSDOF 4
