REMARK  Name = ZINC15946710
REMARK  15 active torsions:
REMARK  status: ('A' for Active; 'I' for Inactive)
REMARK    1  A    between atoms: C_1  and  C_2
REMARK    2  A    between atoms: C_2  and  C_3
REMARK    3  A    between atoms: C_9  and  C_10
REMARK    4  A    between atoms: C_9  and  N_81
REMARK    5  A    between atoms: N_12  and  C_13
REMARK    6  A    between atoms: C_14  and  C_27
REMARK    7  A    between atoms: C_19  and  C_23
REMARK    8  A    between atoms: C_23  and  C_24
REMARK    9  A    between atoms: C_23  and  C_25
REMARK   10  A    between atoms: C_23  and  C_26
REMARK   11  A    between atoms: N_29  and  C_30
REMARK   12  A    between atoms: C_33  and  O_38
REMARK   13  A    between atoms: C_35  and  O_36
REMARK   14  A    between atoms: O_36  and  C_37
REMARK   15  A    between atoms: O_38  and  C_39
REMARK                            x       y       z     vdW  Elec       q    Type
REMARK                         _______ _______ _______ _____ _____    ______ ____
ROOT
ATOM      1  C   UNL     1      -5.407   2.739  -3.615  0.00  0.00    +0.084 A 
ATOM      2  C   UNL     1      -6.383   2.996  -4.566  0.00  0.00    +0.069 A 
ATOM      3  C   UNL     1      -7.718   2.479  -4.316  0.00  0.00    -0.023 A 
ATOM      4  C   UNL     1      -7.864   1.800  -3.157  0.00  0.00    -0.004 A 
ATOM      5  S   UNL     1      -6.260   1.836  -2.407  0.00  0.00    -0.077 S 
ATOM      6  C   UNL     1      -9.114   1.162  -2.635  0.00  0.00    +0.046 C 
ATOM      7  C   UNL     1     -10.125   1.067  -3.787  0.00  0.00    -0.000 C 
ATOM      8  C   UNL     1     -10.193   2.422  -4.497  0.00  0.00    +0.009 C 
ATOM      9  C   UNL     1      -8.894   2.674  -5.265  0.00  0.00    +0.037 C 
ENDROOT
BRANCH   1  12
ATOM     10  C   UNL     1      -3.268   2.777  -2.599  0.00  0.00    +0.201 C 
ATOM     11  O   UNL     1      -3.710   2.140  -1.667  0.00  0.00    -0.278 OA
ATOM     12  N   UNL     1      -4.073   3.117  -3.625  0.00  0.00    -0.281 N 
ATOM     13  H   UNL     1      -3.719   3.627  -4.371  0.00  0.00    +0.155 HD
BRANCH  10  14
ATOM     14  C   UNL     1      -1.818   3.189  -2.610  0.00  0.00    +0.019 C 
BRANCH  14  20
ATOM     15  C   UNL     1      -1.793   3.264  -0.190  0.00  0.00    -0.068 C 
ATOM     16  C   UNL     1      -0.996   2.852   1.049  0.00  0.00    -0.015 C 
ATOM     17  C   UNL     1      -0.956   1.324   1.141  0.00  0.00    -0.003 C 
ATOM     18  C   UNL     1      -0.339   0.759  -0.142  0.00  0.00    -0.019 C 
ATOM     19  C   UNL     1      -1.155   1.233  -1.347  0.00  0.00    -0.078 C 
ATOM     20  N   UNL     1      -1.133   2.710  -1.392  0.00  0.00    +0.387 N 
ATOM     21  H   UNL     1      -0.157   3.028  -1.411  0.00  0.00    -0.081 HD
BRANCH  15  23
ATOM     22  C   UNL     1      -2.581   5.372   0.895  0.00  0.00    +0.002 C 
ATOM     23  C   UNL     1      -1.818   4.790  -0.296  0.00  0.00    -0.019 C 
ENDBRANCH  15  23
ENDBRANCH  14  20
ENDBRANCH  10  14
ENDBRANCH   1  12
BRANCH   7  24
ATOM     24  C   UNL     1     -11.505   0.708  -3.233  0.00  0.00    -0.035 C 
ATOM     25  C   UNL     1     -12.512   0.631  -4.383  0.00  0.00    +0.011 C 
ATOM     26  C   UNL     1     -11.435  -0.646  -2.525  0.00  0.00    +0.011 C 
ATOM     27  C   UNL     1     -11.950   1.782  -2.238  0.00  0.00    +0.011 C 
ENDBRANCH   7  24
BRANCH   2  28
ATOM     28  C   UNL     1      -6.079   3.759  -5.781  0.00  0.00    +0.251 C 
ATOM     29  O   UNL     1      -5.703   3.180  -6.784  0.00  0.00    -0.270 OA
ATOM     30  N   UNL     1      -6.215   5.099  -5.787  0.00  0.00    -0.278 N 
ATOM     31  H   UNL     1      -6.574   5.554  -5.009  0.00  0.00    +0.155 HD
BRANCH  30  32
ATOM     32  C   UNL     1      -5.838   5.838  -6.919  0.00  0.00    +0.076 A 
ATOM     33  C   UNL     1      -5.980   5.288  -8.185  0.00  0.00    +0.030 A 
ATOM     34  C   UNL     1      -5.613   6.017  -9.300  0.00  0.00    +0.047 A 
ATOM     35  C   UNL     1      -5.093   7.295  -9.156  0.00  0.00    +0.124 A 
ATOM     36  C   UNL     1      -4.945   7.847  -7.893  0.00  0.00    +0.093 A 
ATOM     37  C   UNL     1      -5.316   7.121  -6.773  0.00  0.00    +0.145 A 
BRANCH  37  38
ATOM     38  O   UNL     1      -5.171   7.660  -5.533  0.00  0.00    -0.493 OA
ATOM     39  C   UNL     1      -4.629   8.980  -5.459  0.00  0.00    +0.277 C 
ENDBRANCH  37  38
BRANCH  35  40
ATOM     40  O   UNL     1      -4.729   8.008 -10.255  0.00  0.00    -0.495 OA
ATOM     41  C   UNL     1      -4.909   7.378 -11.526  0.00  0.00    +0.277 C 
ENDBRANCH  35  40
ENDBRANCH  30  32
ENDBRANCH   2  28
TORSDOF 9
