REMARK  Name = ZINC34659847
REMARK  9 active torsions:
REMARK  status: ('A' for Active; 'I' for Inactive)
REMARK    1  A    between atoms: C_1  and  C_2
REMARK    2  A    between atoms: C_2  and  C_4
REMARK    3  A    between atoms: C_2  and  O_10
REMARK    4  A    between atoms: O_10  and  C_11
REMARK    5  A    between atoms: C_16  and  C_17
REMARK    6  A    between atoms: C_17  and  N_18
REMARK    7  A    between atoms: N_18  and  C_19
REMARK    8  A    between atoms: C_19  and  C_20
REMARK    9  A    between atoms: C_19  and  C_21
REMARK                            x       y       z     vdW  Elec       q    Type
REMARK                         _______ _______ _______ _____ _____    ______ ____
ROOT
ATOM      1  C   UNL     1      -0.107  -0.775  -2.244  0.00  0.00    +0.123 A 
ATOM      2  C   UNL     1      -1.473  -0.535  -2.203  0.00  0.00    +0.047 A 
ATOM      3  C   UNL     1      -2.262  -0.851  -3.292  0.00  0.00    +0.019 A 
ATOM      4  C   UNL     1      -1.691  -1.405  -4.424  0.00  0.00    +0.018 A 
ATOM      5  C   UNL     1      -0.329  -1.645  -4.467  0.00  0.00    +0.020 A 
ATOM      6  C   UNL     1       0.464  -1.326  -3.382  0.00  0.00    -0.022 A 
ATOM      7 BR   UNL     1      -2.773  -1.836  -5.913  0.00  0.00    -0.050 Br
ENDROOT
BRANCH   1   8
ATOM      8  O   UNL     1       0.671  -0.465  -1.174  0.00  0.00    -0.480 OA
BRANCH   8  10
ATOM      9  C   UNL     1      -0.246   1.499  -0.105  0.00  0.00    +0.062 C 
ATOM     10  C   UNL     1       0.002  -0.007   0.003  0.00  0.00    +0.256 C 
BRANCH  10  11
ATOM     11  C   UNL     1       0.860  -0.289   1.210  0.00  0.00    +0.261 C 
ATOM     12  O   UNL     1       1.974  -0.746   1.069  0.00  0.00    -0.271 OA
ATOM     13  N   UNL     1       0.388  -0.034   2.446  0.00  0.00    -0.237 N 
ATOM     14  C   UNL     1       1.155  -0.287   3.526  0.00  0.00    +0.303 C 
ATOM     15  O   UNL     1       2.271  -0.744   3.384  0.00  0.00    -0.253 OA
ATOM     16  N   UNL     1       0.683  -0.032   4.762  0.00  0.00    -0.313 N 
ATOM     17  H   UNL     1      -0.504   0.331   2.560  0.00  0.00    +0.159 HD
ATOM     18  H   UNL     1      -0.209   0.334   4.875  0.00  0.00    +0.146 HD
ATOM     19  H   UNL     1       1.234  -0.213   5.539  0.00  0.00    +0.146 HD
ENDBRANCH  10  11
ENDBRANCH   8  10
ENDBRANCH   1   8
BRANCH   6  20
ATOM     20  C   UNL     1       1.949  -1.581  -3.432  0.00  0.00    -0.043 C 
BRANCH  20  21
ATOM     21  N   UNL     1       2.256  -2.828  -2.719  0.00  0.00    +0.383 N 
ATOM     22  H   UNL     1       1.961  -2.747  -1.757  0.00  0.00    -0.085 HD
ATOM     23  H   UNL     1       1.768  -3.595  -3.157  0.00  0.00    -0.085 HD
BRANCH  21  24
ATOM     24  C   UNL     1       3.703  -3.076  -2.768  0.00  0.00    -0.078 C 
ATOM     25  C   UNL     1       4.038  -4.306  -1.921  0.00  0.00    -0.014 C 
ATOM     26  C   UNL     1       4.129  -3.323  -4.216  0.00  0.00    -0.014 C 
ENDBRANCH  21  24
ENDBRANCH  20  21
ENDBRANCH   6  20
TORSDOF 6
