REMARK  Name = ZINC51146371
REMARK  7 active torsions:
REMARK  status: ('A' for Active; 'I' for Inactive)
REMARK    1  A    between atoms: C_1  and  C_2
REMARK    2  A    between atoms: C_2  and  C_3
REMARK    3  A    between atoms: N_8  and  C_9
REMARK    4  A    between atoms: C_9  and  C_10
REMARK    5  A    between atoms: C_14  and  C_20
REMARK    6  A    between atoms: C_15  and  C_19
REMARK    7  A    between atoms: N_21  and  N_22
REMARK                            x       y       z     vdW  Elec       q    Type
REMARK                         _______ _______ _______ _____ _____    ______ ____
ROOT
ATOM      1  C   UNL     1      -4.450   1.439  -1.781  0.00  0.00    +0.116 A 
ATOM      2  N   UNL     1      -4.127   2.635  -2.239  0.00  0.00    -0.218 NA
ATOM      3  C   UNL     1      -4.659   3.134  -3.343  0.00  0.00    +0.144 A 
ATOM      4  C   UNL     1      -5.612   2.362  -4.064  0.00  0.00    +0.052 A 
ATOM      5  C   UNL     1      -6.330   2.679  -5.286  0.00  0.00    -0.028 A 
ATOM      6  C   UNL     1      -7.192   1.783  -5.790  0.00  0.00    -0.008 A 
ATOM      7  S   UNL     1      -7.099   0.424  -4.639  0.00  0.00    -0.074 S 
ATOM      8  C   UNL     1      -5.906   1.096  -3.513  0.00  0.00    +0.114 A 
ATOM      9  N   UNL     1      -5.323   0.675  -2.408  0.00  0.00    -0.227 NA
ATOM     10  C   UNL     1      -8.037   1.897  -7.032  0.00  0.00    +0.052 C 
ATOM     11  C   UNL     1      -6.111   3.999  -5.979  0.00  0.00    +0.045 C 
ATOM     12  N   UNL     1      -4.294   4.391  -3.790  0.00  0.00    -0.267 N 
ATOM     13  H   UNL     1      -4.407   4.626  -4.724  0.00  0.00    +0.167 HD
ENDROOT
BRANCH  12  14
ATOM     14  N   UNL     1      -3.774   5.303  -2.915  0.00  0.00    -0.255 NA
ATOM     15  H   UNL     1      -3.556   6.169  -3.383  0.00  0.00    +0.140 HD
ATOM     16  H   UNL     1      -4.400   5.458  -2.139  0.00  0.00    +0.140 HD
ENDBRANCH  12  14
BRANCH   1  17
ATOM     17  C   UNL     1      -3.804   0.935  -0.516  0.00  0.00    -0.001 C 
BRANCH  17  22
ATOM     18  C   UNL     1      -1.871  -0.178   0.386  0.00  0.00    -0.068 C 
ATOM     19  C   UNL     1      -1.789  -1.719   0.401  0.00  0.00    -0.017 C 
ATOM     20  C   UNL     1      -2.942  -2.140  -0.548  0.00  0.00    -0.020 C 
ATOM     21  C   UNL     1      -2.896  -1.016  -1.613  0.00  0.00    -0.078 C 
ATOM     22  N   UNL     1      -2.569   0.213  -0.852  0.00  0.00    +0.386 N 
ATOM     23  H   UNL     1      -1.970   0.807  -1.406  0.00  0.00    -0.081 HD
BRANCH  18  25
ATOM     24  C   UNL     1      -0.554   1.944   0.467  0.00  0.00    +0.002 C 
ATOM     25  C   UNL     1      -0.462   0.418   0.400  0.00  0.00    -0.019 C 
ENDBRANCH  18  25
ENDBRANCH  17  22
ENDBRANCH   1  17
TORSDOF 4
