REMARK  Name = ZINC16570000
REMARK  10 active torsions:
REMARK  status: ('A' for Active; 'I' for Inactive)
REMARK    1  A    between atoms: C_1  and  C_2
REMARK    2  A    between atoms: C_2  and  C_3
REMARK    3  A    between atoms: C_3  and  C_4
REMARK    4  A    between atoms: C_4  and  N_5
REMARK    5  A    between atoms: N_5  and  C_6
REMARK    6  A    between atoms: C_6  and  C_7
REMARK    7  A    between atoms: C_21  and  C_23
REMARK    8  A    between atoms: C_27  and  C_29
REMARK    9  A    between atoms: N_32  and  C_33
REMARK   10  A    between atoms: C_36  and  C_39
REMARK                            x       y       z     vdW  Elec       q    Type
REMARK                         _______ _______ _______ _____ _____    ______ ____
ROOT
ATOM      1  C   UNL     1       2.780   0.928  -1.702  0.00  0.00    +0.238 C 
ATOM      2  O   UNL     1       2.138   1.443  -2.593  0.00  0.00    -0.273 OA
ATOM      3  N   UNL     1       3.815   0.117  -2.000  0.00  0.00    -0.255 N 
ATOM      4  C   UNL     1       4.216  -0.044  -3.333  0.00  0.00    +0.061 A 
ATOM      5  C   UNL     1       4.031   0.981  -4.250  0.00  0.00    +0.025 A 
ATOM      6  C   UNL     1       4.426   0.810  -5.564  0.00  0.00    +0.002 A 
ATOM      7  C   UNL     1       5.008  -0.377  -5.971  0.00  0.00    +0.002 A 
ATOM      8  C   UNL     1       5.204  -1.402  -5.062  0.00  0.00    +0.028 A 
ATOM      9  C   UNL     1       4.816  -1.236  -3.747  0.00  0.00    +0.068 A 
ATOM     10  N   UNL     1       5.002  -2.241  -2.787  0.00  0.00    -0.316 N 
ATOM     11  C   UNL     1       5.317  -3.549  -2.942  0.00  0.00    +0.092 A 
ATOM     12  C   UNL     1       5.376  -4.116  -1.716  0.00  0.00    +0.020 A 
ATOM     13  C   UNL     1       5.085  -3.111  -0.767  0.00  0.00    +0.025 A 
ATOM     14  C   UNL     1       4.863  -1.978  -1.442  0.00  0.00    +0.049 A 
ATOM     15  C   UNL     1       4.517  -0.602  -0.924  0.00  0.00    +0.159 C 
ENDROOT
BRANCH  15  16
ATOM     16  C   UNL     1       5.778   0.137  -0.555  0.00  0.00    -0.021 A 
ATOM     17  C   UNL     1       6.558   0.710  -1.542  0.00  0.00    +0.006 A 
ATOM     18  C   UNL     1       7.714   1.387  -1.203  0.00  0.00    +0.001 A 
ATOM     19  C   UNL     1       8.090   1.492   0.123  0.00  0.00    +0.003 A 
ATOM     20  C   UNL     1       7.310   0.919   1.110  0.00  0.00    -0.050 A 
ATOM     21  C   UNL     1       6.151   0.246   0.771  0.00  0.00    +0.009 A 
ATOM     22  C   UNL     1       7.720   1.034   2.556  0.00  0.00    +0.044 C 
ENDBRANCH  15  16
BRANCH   1  23
ATOM     23  C   UNL     1       2.421   1.195  -0.263  0.00  0.00    +0.205 C 
BRANCH  23  24
ATOM     24  N   UNL     1       1.201   2.003  -0.205  0.00  0.00    -0.277 N 
ATOM     25  C   UNL     1      -0.004   1.401  -0.159  0.00  0.00    +0.307 C 
ATOM     26  O   UNL     1      -0.078   0.188  -0.165  0.00  0.00    -0.252 OA
ATOM     27  N   UNL     1      -1.127   2.145  -0.112  0.00  0.00    -0.269 N 
ATOM     28  H   UNL     1      -1.067   3.109  -0.029  0.00  0.00    +0.156 HD
BRANCH  27  29
ATOM     29  C   UNL     1      -2.380   1.525  -0.182  0.00  0.00    +0.035 A 
ATOM     30  C   UNL     1      -2.555   0.398  -0.974  0.00  0.00    +0.023 A 
ATOM     31  C   UNL     1      -3.792  -0.214  -1.038  0.00  0.00    +0.005 A 
ATOM     32  C   UNL     1      -4.857   0.301  -0.323  0.00  0.00    -0.050 A 
ATOM     33  C   UNL     1      -4.688   1.426   0.463  0.00  0.00    +0.005 A 
ATOM     34  C   UNL     1      -3.452   2.040   0.535  0.00  0.00    +0.023 A 
ATOM     35  C   UNL     1      -6.207  -0.365  -0.400  0.00  0.00    +0.044 C 
ENDBRANCH  27  29
BRANCH  24  36
ATOM     36  C   UNL     1       1.290   3.465  -0.198  0.00  0.00    +0.110 C 
BRANCH  36  37
ATOM     37  C   UNL     1       1.382   3.963   1.245  0.00  0.00    +0.019 C 
BRANCH  37  39
ATOM     38  C   UNL     1       1.568   5.989   2.696  0.00  0.00    +0.004 C 
ATOM     39  C   UNL     1       1.476   5.490   1.253  0.00  0.00    -0.002 C 
ENDBRANCH  37  39
ENDBRANCH  36  37
ENDBRANCH  24  36
ENDBRANCH  23  24
ENDBRANCH   1  23
TORSDOF 7
