REMARK  Name = ZINC55091804
REMARK  6 active torsions:
REMARK  status: ('A' for Active; 'I' for Inactive)
REMARK    1  A    between atoms: C_1  and  C_2
REMARK    2  A    between atoms: C_2  and  C_3
REMARK    3  A    between atoms: C_3  and  N_4
REMARK    4  A    between atoms: C_5  and  C_7
REMARK    5  A    between atoms: C_12  and  C_17
REMARK    6  A    between atoms: C_14  and  N_16
REMARK                            x       y       z     vdW  Elec       q    Type
REMARK                         _______ _______ _______ _____ _____    ______ ____
ROOT
ATOM      1  C   UNL     1      -2.551  -4.195   0.004  0.00  0.00    +0.061 C 
ATOM      2  C   UNL     1      -1.835  -4.688  -1.255  0.00  0.00    +0.011 C 
ATOM      3  C   UNL     1      -2.575  -4.182  -2.494  0.00  0.00    +0.001 C 
ATOM      4  C   UNL     1      -4.010  -4.711  -2.484  0.00  0.00    +0.002 C 
ATOM      5  C   UNL     1      -4.726  -4.218  -1.225  0.00  0.00    -0.028 C 
ATOM      6  C   UNL     1      -3.986  -4.725   0.015  0.00  0.00    -0.060 C 
ATOM      7  C   UNL     1      -6.162  -4.747  -1.214  0.00  0.00    +0.006 C 
ENDROOT
BRANCH   1   9
ATOM      8  N   UNL     1      -1.413  -1.998   0.005  0.00  0.00    -0.315 N 
ATOM      9  C   UNL     1      -2.571  -2.688   0.012  0.00  0.00    +0.215 C 
ATOM     10  O   UNL     1      -3.630  -2.096   0.025  0.00  0.00    -0.276 OA
ATOM     11  H   UNL     1      -0.567  -2.472  -0.006  0.00  0.00    +0.149 HD
BRANCH   8  12
ATOM     12  C   UNL     1      -1.433  -0.534   0.013  0.00  0.00    +0.104 C 
BRANCH  12  14
ATOM     13  C   UNL     1      -0.019   1.526   0.010  0.00  0.00    +0.005 C 
ATOM     14  C   UNL     1       0.002  -0.004   0.002  0.00  0.00    +0.015 C 
ENDBRANCH  12  14
ENDBRANCH   8  12
ENDBRANCH   1   9
BRANCH   6  15
ATOM     15  N   UNL     1      -4.674  -4.251   1.223  0.00  0.00    +0.381 N 
ATOM     16  H   UNL     1      -4.688  -3.242   1.229  0.00  0.00    -0.090 HD
ATOM     17  H   UNL     1      -5.620  -4.600   1.230  0.00  0.00    -0.090 HD
ATOM     18  H   UNL     1      -4.186  -4.585   2.041  0.00  0.00    -0.090 HD
ENDBRANCH   6  15
TORSDOF 4
