REMARK  Name = ZINC06177095
REMARK  11 active torsions:
REMARK  status: ('A' for Active; 'I' for Inactive)
REMARK    1  A    between atoms: C_1  and  O_2
REMARK    2  A    between atoms: O_2  and  C_3
REMARK    3  A    between atoms: C_8  and  N_9
REMARK    4  A    between atoms: C_10  and  C_29
REMARK    5  A    between atoms: C_13  and  S_14
REMARK    6  A    between atoms: S_14  and  C_15
REMARK    7  A    between atoms: C_15  and  C_16
REMARK    8  A    between atoms: N_18  and  N_19
REMARK    9  A    between atoms: C_20  and  C_22
REMARK   10  A    between atoms: C_27  and  O_28
REMARK   11  A    between atoms: C_34  and  O_35
REMARK                            x       y       z     vdW  Elec       q    Type
REMARK                         _______ _______ _______ _____ _____    ______ ____
ROOT
ATOM      1  N   UNL     1      -2.322  -3.359   0.006  0.00  0.00    -0.267 N 
ATOM      2  C   UNL     1      -1.611  -4.539  -0.007  0.00  0.00    +0.173 A 
ATOM      3  N   UNL     1      -0.337  -4.221  -0.017  0.00  0.00    -0.128 NA
ATOM      4  N   UNL     1      -0.203  -2.943  -0.018  0.00  0.00    -0.122 NA
ATOM      5  C   UNL     1      -1.383  -2.364   0.003  0.00  0.00    +0.197 A 
ENDROOT
BRANCH   1  11
ATOM      6  C   UNL     1      -4.400  -3.147   1.232  0.00  0.00    +0.144 A 
ATOM      7  C   UNL     1      -5.777  -2.993   1.240  0.00  0.00    +0.048 A 
ATOM      8  C   UNL     1      -6.471  -2.913   0.047  0.00  0.00    +0.004 A 
ATOM      9  C   UNL     1      -5.794  -2.979  -1.157  0.00  0.00    +0.002 A 
ATOM     10  C   UNL     1      -4.420  -3.128  -1.173  0.00  0.00    +0.030 A 
ATOM     11  C   UNL     1      -3.717  -3.209   0.020  0.00  0.00    +0.092 A 
BRANCH   6  13
ATOM     12  C   UNL     1      -4.484  -3.161   3.609  0.00  0.00    +0.277 C 
ATOM     13  O   UNL     1      -3.717  -3.232   2.405  0.00  0.00    -0.493 OA
ENDBRANCH   6  13
ENDBRANCH   1  11
BRANCH   2  14
ATOM     14  C   UNL     1      -2.176  -5.905  -0.009  0.00  0.00    +0.061 A 
ATOM     15  C   UNL     1      -3.559  -6.092   0.002  0.00  0.00    +0.015 A 
ATOM     16  C   UNL     1      -4.080  -7.369   0.000  0.00  0.00    +0.001 A 
ATOM     17  C   UNL     1      -3.237  -8.467  -0.014  0.00  0.00    +0.004 A 
ATOM     18  C   UNL     1      -1.865  -8.294  -0.025  0.00  0.00    +0.046 A 
ATOM     19  C   UNL     1      -1.326  -7.018  -0.029  0.00  0.00    +0.128 A 
BRANCH  19  20
ATOM     20  O   UNL     1       0.021  -6.847  -0.047  0.00  0.00    -0.506 OA
ATOM     21  H   UNL     1       0.424  -6.803   0.831  0.00  0.00    +0.292 HD
ENDBRANCH  19  20
ENDBRANCH   2  14
BRANCH   5  22
ATOM     22  S   UNL     1      -1.696  -0.631   0.015  0.00  0.00    -0.076 S 
BRANCH  22  23
ATOM     23  C   UNL     1       0.002  -0.004   0.002  0.00  0.00    +0.174 C 
BRANCH  23  24
ATOM     24  C   UNL     1      -0.018   1.503   0.010  0.00  0.00    +0.239 C 
ATOM     25  O   UNL     1      -1.077   2.095   0.018  0.00  0.00    -0.273 OA
ATOM     26  N   UNL     1       1.139   2.192   0.003  0.00  0.00    -0.233 N 
ATOM     27  H   UNL     1       1.986   1.719  -0.008  0.00  0.00    +0.173 HD
BRANCH  26  28
ATOM     28  N   UNL     1       1.121   3.593   0.011  0.00  0.00    -0.230 N 
ATOM     29  C   UNL     1       2.278   4.283   0.003  0.00  0.00    +0.264 C 
ATOM     30  O   UNL     1       3.340   3.689  -0.010  0.00  0.00    -0.269 OA
ATOM     31  H   UNL     1       0.274   4.067   0.021  0.00  0.00    +0.173 HD
BRANCH  29  32
ATOM     32  C   UNL     1       2.258   5.758   0.011  0.00  0.00    +0.079 A 
ATOM     33  C   UNL     1       1.042   6.444   0.021  0.00  0.00    +0.017 A 
ATOM     34  C   UNL     1       1.030   7.822   0.033  0.00  0.00    +0.001 A 
ATOM     35  C   UNL     1       2.220   8.531   0.026  0.00  0.00    +0.004 A 
ATOM     36  C   UNL     1       3.429   7.866   0.012  0.00  0.00    +0.046 A 
ATOM     37  C   UNL     1       3.460   6.479   0.004  0.00  0.00    +0.129 A 
BRANCH  37  38
ATOM     38  O   UNL     1       4.648   5.824  -0.011  0.00  0.00    -0.506 OA
ATOM     39  H   UNL     1       4.984   5.639  -0.899  0.00  0.00    +0.292 HD
ENDBRANCH  37  38
ENDBRANCH  29  32
ENDBRANCH  26  28
ENDBRANCH  23  24
ENDBRANCH  22  23
ENDBRANCH   5  22
TORSDOF 10
