REMARK  Name = ZINC31891012
REMARK  8 active torsions:
REMARK  status: ('A' for Active; 'I' for Inactive)
REMARK    1  A    between atoms: C_1  and  C_2
REMARK    2  A    between atoms: C_2  and  C_3
REMARK    3  A    between atoms: C_3  and  C_4
REMARK    4  A    between atoms: C_4  and  N_5
REMARK    5  A    between atoms: C_6  and  N_22
REMARK    6  A    between atoms: C_7  and  C_14
REMARK    7  A    between atoms: C_14  and  N_15
REMARK    8  A    between atoms: N_18  and  C_21
REMARK                            x       y       z     vdW  Elec       q    Type
REMARK                         _______ _______ _______ _____ _____    ______ ____
ROOT
ATOM      1  N   UNL     1      -1.413  -1.998   0.005  0.00  0.00    -0.282 N 
ATOM      2  C   UNL     1      -1.421  -2.675  -1.191  0.00  0.00    +0.110 A 
ATOM      3  C   UNL     1      -1.397  -4.042  -1.189  0.00  0.00    +0.069 A 
ATOM      4  C   UNL     1      -1.376  -4.722   0.039  0.00  0.00    +0.260 A 
ATOM      5  O   UNL     1      -1.359  -5.941   0.065  0.00  0.00    -0.267 OA
ATOM      6  N   UNL     1      -1.374  -4.019   1.189  0.00  0.00    -0.275 N 
ATOM      7  H   UNL     1      -1.357  -4.545   2.155  0.00  0.00    +0.173 HD
ATOM      8  C   UNL     1      -1.393  -2.674   1.169  0.00  0.00    +0.331 A 
ATOM      9  O   UNL     1      -1.392  -2.059   2.218  0.00  0.00    -0.246 OA
ENDROOT
BRANCH   2  10
ATOM     10  N   UNL     1      -1.448  -1.985  -2.376  0.00  0.00    -0.344 N 
ATOM     11  H   UNL     1      -1.454  -2.532  -3.330  0.00  0.00    +0.144 HD
ATOM     12  H   UNL     1      -1.463  -0.885  -2.372  0.00  0.00    +0.144 HD
ENDBRANCH   2  10
BRANCH   1  13
ATOM     13  C   UNL     1      -1.433  -0.534   0.013  0.00  0.00    +0.128 C 
BRANCH  13  14
ATOM     14  C   UNL     1       0.002  -0.004   0.002  0.00  0.00    +0.021 C 
BRANCH  14  16
ATOM     15  C   UNL     1       1.417   2.055  -0.000  0.00  0.00    +0.004 C 
ATOM     16  C   UNL     1      -0.019   1.526   0.010  0.00  0.00    -0.002 C 
ENDBRANCH  14  16
ENDBRANCH  13  14
ENDBRANCH   1  13
BRANCH   3  17
ATOM     17  C   UNL     1      -1.400  -4.808  -2.486  0.00  0.00    +0.128 C 
BRANCH  17  18
ATOM     18  N   UNL     1      -0.019  -5.142  -2.860  0.00  0.00    -0.301 NA
ATOM     19  C   UNL     1       0.750  -3.930  -3.175  0.00  0.00    +0.066 C 
ATOM     20  C   UNL     1       2.199  -4.313  -3.481  0.00  0.00    -0.064 C 
ATOM     21  N   UNL     1       2.226  -5.258  -4.607  0.00  0.00    +0.379 N 
ATOM     22  C   UNL     1       1.458  -6.470  -4.292  0.00  0.00    -0.064 C 
ATOM     23  C   UNL     1       0.008  -6.087  -3.986  0.00  0.00    +0.066 C 
ATOM     24  C   UNL     1       3.607  -5.592  -4.981  0.00  0.00    -0.096 C 
ATOM     25  H   UNL     1       1.752  -4.770  -5.471  0.00  0.00    -0.082 HD
ENDBRANCH  17  18
ENDBRANCH   3  17
TORSDOF 6
