REMARK  Name = ZINC02126774
REMARK  8 active torsions:
REMARK  status: ('A' for Active; 'I' for Inactive)
REMARK    1  A    between atoms: C_1  and  C_2
REMARK    2  A    between atoms: C_2  and  C_3
REMARK    3  A    between atoms: C_17  and  C_19
REMARK    4  A    between atoms: C_19  and  C_20
REMARK    5  A    between atoms: N_25  and  C_28
REMARK    6  A    between atoms: C_28  and  C_29
REMARK    7  A    between atoms: C_34  and  O_35
REMARK    8  A    between atoms: O_35  and  C_36
REMARK                            x       y       z     vdW  Elec       q    Type
REMARK                         _______ _______ _______ _____ _____    ______ ____
ROOT
ATOM      1  C   UNL     1      -0.048   3.844   0.023  0.00  0.00    -0.026 A 
ATOM      2  C   UNL     1       1.154   3.166   0.008  0.00  0.00    +0.005 A 
ATOM      3  C   UNL     1       1.177   1.784   0.000  0.00  0.00    +0.001 A 
ATOM      4  C   UNL     1      -0.013   1.076   0.008  0.00  0.00    +0.004 A 
ATOM      5  C   UNL     1      -1.214   1.747   0.017  0.00  0.00    -0.027 A 
ATOM      6  C   UNL     1      -1.249   3.139   0.030  0.00  0.00    +0.039 A 
ATOM      7  N   UNL     1      -2.571   3.589   0.046  0.00  0.00    -0.286 N 
ATOM      8  C   UNL     1      -3.454   2.572   0.032  0.00  0.00    +0.211 C 
ATOM      9  O   UNL     1      -4.663   2.662   0.039  0.00  0.00    -0.277 OA
ATOM     10  C   UNL     1      -2.649   1.301   0.022  0.00  0.00    +0.050 C 
ATOM     11  C   UNL     1      -2.974   0.440  -1.205  0.00  0.00    +0.088 C 
ATOM     12  C   UNL     1      -2.880  -1.023  -0.691  0.00  0.00    +0.073 C 
ATOM     13  C   UNL     1      -2.495  -0.897   0.798  0.00  0.00    -0.049 C 
ATOM     14  C   UNL     1      -4.302  -1.524  -0.799  0.00  0.00    +0.224 C 
ATOM     15  O   UNL     1      -4.679  -2.634  -0.489  0.00  0.00    -0.275 OA
ATOM     16  N   UNL     1      -5.079  -0.553  -1.290  0.00  0.00    -0.237 N 
ATOM     17  C   UNL     1      -4.438   0.591  -1.556  0.00  0.00    +0.225 C 
ATOM     18  O   UNL     1      -4.950   1.593  -2.007  0.00  0.00    -0.275 OA
ATOM     19  H   UNL     1      -2.824   4.525   0.053  0.00  0.00    +0.155 HD
ATOM     20  N   UNL     1      -2.935   0.452   1.165  0.00  0.00    +0.394 N 
ATOM     21  H   UNL     1      -3.942   0.454   1.366  0.00  0.00    -0.083 HD
ATOM     22  H   UNL     1      -2.420   0.781   1.990  0.00  0.00    -0.083 HD
ENDROOT
BRANCH   1  24
ATOM     23  C   UNL     1      -0.177   5.851   1.472  0.00  0.00    +0.009 C 
ATOM     24  C   UNL     1      -0.060   5.350   0.031  0.00  0.00    +0.033 C 
ENDBRANCH   1  24
BRANCH  13  25
ATOM     25  C   UNL     1      -3.216  -1.963   1.627  0.00  0.00    +0.080 C 
BRANCH  25  26
ATOM     26  C   UNL     1      -2.791  -1.851   3.068  0.00  0.00    +0.209 C 
ATOM     27  O   UNL     1      -1.990  -1.003   3.400  0.00  0.00    -0.276 OA
ATOM     28  N   UNL     1      -3.300  -2.695   3.988  0.00  0.00    -0.329 N 
ATOM     29  H   UNL     1      -3.940  -3.373   3.722  0.00  0.00    +0.145 HD
ATOM     30  H   UNL     1      -3.026  -2.623   4.916  0.00  0.00    +0.145 HD
ENDBRANCH  25  26
ENDBRANCH  13  25
BRANCH  16  31
ATOM     31  C   UNL     1      -6.516  -0.727  -1.520  0.00  0.00    +0.155 C 
BRANCH  31  32
ATOM     32  C   UNL     1      -7.274  -0.332  -0.279  0.00  0.00    +0.012 A 
ATOM     33  C   UNL     1      -7.735  -1.303   0.589  0.00  0.00    +0.009 A 
ATOM     34  C   UNL     1      -8.426  -0.941   1.730  0.00  0.00    +0.001 A 
ATOM     35  C   UNL     1      -8.668   0.394   2.000  0.00  0.00    +0.004 A 
ATOM     36  C   UNL     1      -8.214   1.369   1.133  0.00  0.00    +0.046 A 
ATOM     37  C   UNL     1      -7.515   1.008  -0.010  0.00  0.00    +0.125 A 
BRANCH  37  38
ATOM     38  O   UNL     1      -7.067   1.965  -0.864  0.00  0.00    -0.495 OA
ATOM     39  C   UNL     1      -7.351   3.323  -0.523  0.00  0.00    +0.277 C 
ENDBRANCH  37  38
ENDBRANCH  31  32
ENDBRANCH  16  31
TORSDOF 6
