REMARK  Name = ZINC54380860
REMARK  3 active torsions:
REMARK  status: ('A' for Active; 'I' for Inactive)
REMARK    1  A    between atoms: C_9  and  O_12
REMARK    2  A    between atoms: O_12  and  C_13
REMARK    3  A    between atoms: C_14  and  C_19
REMARK                            x       y       z     vdW  Elec       q    Type
REMARK                         _______ _______ _______ _____ _____    ______ ____
ROOT
ATOM      1  C   UNL     1       5.578  -2.708   1.108  0.00  0.00    +0.250 A 
ATOM      2  C   UNL     1       6.822  -3.354   1.137  0.00  0.00    +0.163 A 
ATOM      3  N   UNL     1       7.435  -3.553   2.299  0.00  0.00    -0.245 NA
ATOM      4  C   UNL     1       6.873  -3.143   3.419  0.00  0.00    +0.131 A 
ATOM      5  C   UNL     1       5.643  -2.504   3.391  0.00  0.00    +0.134 A 
ATOM      6  N   UNL     1       5.026  -2.296   2.241  0.00  0.00    -0.218 NA
ENDROOT
BRANCH   2   7
ATOM      7  C   UNL     1       7.449  -3.814  -0.122  0.00  0.00    +0.118 C 
ATOM      8  N   UNL     1       8.776  -3.884  -0.218  0.00  0.00    -0.385 N 
ATOM      9  N   UNL     1       6.688  -4.157  -1.159  0.00  0.00    -0.343 N 
ATOM     10  H   UNL     1       9.332  -3.564   0.509  0.00  0.00    +0.157 HD
ATOM     11  H   UNL     1       5.722  -4.106  -1.089  0.00  0.00    +0.144 HD
ATOM     12  H   UNL     1       7.099  -4.458  -1.984  0.00  0.00    +0.144 HD
ATOM     13  H   UNL     1       9.185  -4.255  -1.015  0.00  0.00    +0.157 HD
ENDBRANCH   2   7
BRANCH   1  14
ATOM     14  O   UNL     1       4.946  -2.501  -0.071  0.00  0.00    -0.435 OA
BRANCH  14  23
ATOM     15  C   UNL     1       0.256   1.738  -0.039  0.00  0.00    +0.001 A 
ATOM     16  C   UNL     1       1.475   2.413  -0.073  0.00  0.00    +0.001 A 
ATOM     17  C   UNL     1       2.653   1.732  -0.087  0.00  0.00    +0.010 A 
ATOM     18  C   UNL     1       2.644   0.326  -0.067  0.00  0.00    -0.000 A 
ATOM     19  C   UNL     1       1.404  -0.361  -0.032  0.00  0.00    -0.017 A 
ATOM     20  C   UNL     1       0.208   0.378  -0.018  0.00  0.00    +0.008 A 
ATOM     21  C   UNL     1       1.391  -1.766  -0.011  0.00  0.00    +0.012 A 
ATOM     22  C   UNL     1       2.564  -2.455  -0.025  0.00  0.00    +0.048 A 
ATOM     23  C   UNL     1       3.791  -1.786  -0.059  0.00  0.00    +0.145 A 
ATOM     24  C   UNL     1       3.841  -0.410  -0.081  0.00  0.00    +0.068 A 
ATOM     25 BR   UNL     1       5.507   0.482  -0.127  0.00  0.00    -0.046 Br
ENDBRANCH  14  23
ENDBRANCH   1  14
TORSDOF 3
