REMARK  Name = ZINC61881769
REMARK  7 active torsions:
REMARK  status: ('A' for Active; 'I' for Inactive)
REMARK    1  A    between atoms: C_1  and  C_2
REMARK    2  A    between atoms: C_2  and  C_4
REMARK    3  A    between atoms: C_2  and  N_6
REMARK    4  A    between atoms: C_4  and  O_5
REMARK    5  A    between atoms: N_6  and  S_7
REMARK    6  A    between atoms: S_7  and  C_10
REMARK    7  A    between atoms: C_14  and  N_17
REMARK                            x       y       z     vdW  Elec       q    Type
REMARK                         _______ _______ _______ _____ _____    ______ ____
ROOT
ATOM      1  C   UNL     1       3.260   0.464   0.785  0.00  0.00    +0.122 A 
ATOM      2  C   UNL     1       3.854   0.664  -0.448  0.00  0.00    +0.049 A 
ATOM      3  C   UNL     1       4.618   1.795  -0.676  0.00  0.00    +0.045 A 
ATOM      4  C   UNL     1       4.789   2.729   0.329  0.00  0.00    +0.044 A 
ATOM      5  C   UNL     1       4.194   2.530   1.568  0.00  0.00    +0.042 A 
ATOM      6  C   UNL     1       3.424   1.395   1.792  0.00  0.00    +0.065 A 
ATOM      7 BR   UNL     1       2.605   1.124   3.474  0.00  0.00    -0.046 Br
ATOM      8 CL   UNL     1       5.362   2.042  -2.225  0.00  0.00    -0.083 Cl
ENDROOT
BRANCH   1   9
ATOM      9  S   UNL     1       2.288  -0.978   1.069  0.00  0.00    +0.060 S 
ATOM     10  O   UNL     1       2.755  -1.549   2.284  0.00  0.00    -0.153 OA
ATOM     11  O   UNL     1       2.267  -1.702  -0.154  0.00  0.00    -0.153 OA
BRANCH   9  12
ATOM     12  N   UNL     1       0.736  -0.475   1.348  0.00  0.00    -0.185 NA
ATOM     13  H   UNL     1       0.324  -0.629   2.212  0.00  0.00    +0.148 HD
BRANCH  12  15
ATOM     14  C   UNL     1      -0.427   1.597   0.767  0.00  0.00    +0.028 C 
ATOM     15  C   UNL     1      -0.016   0.203   0.289  0.00  0.00    +0.099 C 
BRANCH  15  16
ATOM     16  C   UNL     1      -1.268  -0.609  -0.049  0.00  0.00    +0.175 C 
BRANCH  16  17
ATOM     17  O   UNL     1      -2.142  -0.629   1.082  0.00  0.00    -0.393 OA
ATOM     18  H   UNL     1      -2.958  -1.128   0.939  0.00  0.00    +0.209 HD
ENDBRANCH  16  17
ENDBRANCH  15  16
ENDBRANCH  12  15
ENDBRANCH   9  12
ENDBRANCH   1   9
BRANCH   5  19
ATOM     19  N   UNL     1       4.366   3.472   2.586  0.00  0.00    -0.357 N 
ATOM     20  H   UNL     1       4.902   4.265   2.428  0.00  0.00    +0.142 HD
ATOM     21  H   UNL     1       3.950   3.332   3.451  0.00  0.00    +0.142 HD
ENDBRANCH   5  19
TORSDOF 6
