REMARK  Name = ZINC33650602
REMARK  15 active torsions:
REMARK  status: ('A' for Active; 'I' for Inactive)
REMARK    1  A    between atoms: C_4  and  C_7
REMARK    2  A    between atoms: C_7  and  C_8
REMARK    3  A    between atoms: C_8  and  O_9
REMARK    4  A    between atoms: O_9  and  C_10
REMARK    5  A    between atoms: C_12  and  O_41
REMARK    6  A    between atoms: C_14  and  O_40
REMARK    7  A    between atoms: C_16  and  O_23
REMARK    8  A    between atoms: C_18  and  C_21
REMARK    9  A    between atoms: C_21  and  O_22
REMARK   10  A    between atoms: O_23  and  C_24
REMARK   11  A    between atoms: C_26  and  O_39
REMARK   12  A    between atoms: C_28  and  O_38
REMARK   13  A    between atoms: C_30  and  O_37
REMARK   14  A    between atoms: C_32  and  C_35
REMARK   15  A    between atoms: C_35  and  O_36
REMARK                            x       y       z     vdW  Elec       q    Type
REMARK                         _______ _______ _______ _____ _____    ______ ____
ROOT
ATOM      1  C   UNL     1       5.402  -2.034  -4.010  0.00  0.00    +0.282 C 
ATOM      2  C   UNL     1       4.917  -2.374  -2.598  0.00  0.00    +0.201 C 
ATOM      3  C   UNL     1       5.080  -1.143  -1.701  0.00  0.00    +0.179 C 
ATOM      4  C   UNL     1       4.307   0.029  -2.315  0.00  0.00    +0.183 C 
ATOM      5  C   UNL     1       4.815   0.275  -3.738  0.00  0.00    +0.178 C 
ATOM      6  O   UNL     1       4.663  -0.917  -4.510  0.00  0.00    -0.341 OA
ENDROOT
BRANCH   3   7
ATOM      7  O   UNL     1       4.562  -1.428  -0.400  0.00  0.00    -0.386 OA
ATOM      8  H   UNL     1       4.592  -0.658   0.385  0.00  0.00    +0.210 HD
ENDBRANCH   3   7
BRANCH   2   9
ATOM      9  O   UNL     1       3.540  -2.753  -2.644  0.00  0.00    -0.384 OA
ATOM     10  H   UNL     1       3.016  -3.033  -1.719  0.00  0.00    +0.210 HD
ENDBRANCH   2   9
BRANCH   1  11
ATOM     11  O   UNL     1       5.202  -3.160  -4.867  0.00  0.00    -0.349 OA
BRANCH  11  12
ATOM     12  C   UNL     1       5.821  -3.033  -6.148  0.00  0.00    +0.163 C 
BRANCH  12  13
ATOM     13  C   UNL     1       5.543  -4.289  -6.976  0.00  0.00    +0.031 C 
BRANCH  13  17
ATOM     14  C   UNL     1       6.042  -4.175 -11.273  0.00  0.00    +0.000 C 
ATOM     15  C   UNL     1       6.697  -5.322 -10.501  0.00  0.00    +0.000 C 
ATOM     16  C   UNL     1       6.034  -5.458  -9.129  0.00  0.00    +0.003 C 
ATOM     17  C   UNL     1       6.206  -4.154  -8.348  0.00  0.00    -0.009 C 
ATOM     18  C   UNL     1       5.551  -3.006  -9.120  0.00  0.00    +0.003 C 
ATOM     19  C   UNL     1       6.215  -2.870 -10.492  0.00  0.00    +0.000 C 
ENDBRANCH  13  17
ENDBRANCH  12  13
ENDBRANCH  11  12
ENDBRANCH   1  11
BRANCH   5  20
ATOM     20  C   UNL     1       4.007   1.405  -4.380  0.00  0.00    +0.190 C 
BRANCH  20  21
ATOM     21  O   UNL     1       4.556   1.714  -5.662  0.00  0.00    -0.392 OA
ATOM     22  H   UNL     1       4.104   2.506  -6.277  0.00  0.00    +0.210 HD
ENDBRANCH  20  21
ENDBRANCH   5  20
BRANCH   4  23
ATOM     23  O   UNL     1       2.913  -0.287  -2.354  0.00  0.00    -0.340 OA
BRANCH  23  24
ATOM     24  C   UNL     1       2.194   0.114  -1.186  0.00  0.00    +0.282 C 
ATOM     25  C   UNL     1       0.786  -0.486  -1.222  0.00  0.00    +0.201 C 
ATOM     26  C   UNL     1       0.002  -0.004   0.002  0.00  0.00    +0.179 C 
ATOM     27  C   UNL     1      -0.019   1.528   0.010  0.00  0.00    +0.177 C 
ATOM     28  C   UNL     1       1.420   2.050  -0.001  0.00  0.00    +0.178 C 
ATOM     29  O   UNL     1       2.102   1.539  -1.148  0.00  0.00    -0.341 OA
BRANCH  27  30
ATOM     30  O   UNL     1      -0.708   2.002  -1.148  0.00  0.00    -0.386 OA
ATOM     31  H   UNL     1      -0.824   3.083  -1.314  0.00  0.00    +0.210 HD
ENDBRANCH  27  30
BRANCH  26  32
ATOM     32  O   UNL     1      -1.337  -0.500  -0.062  0.00  0.00    -0.386 OA
ATOM     33  H   UNL     1      -2.053  -0.255   0.737  0.00  0.00    +0.210 HD
ENDBRANCH  26  32
BRANCH  25  34
ATOM     34  O   UNL     1       0.118  -0.065  -2.413  0.00  0.00    -0.384 OA
ATOM     35  H   UNL     1      -0.910  -0.399  -2.615  0.00  0.00    +0.210 HD
ENDBRANCH  25  34
BRANCH  28  36
ATOM     36  C   UNL     1       1.408   3.579  -0.053  0.00  0.00    +0.190 C 
BRANCH  36  37
ATOM     37  O   UNL     1       2.746   4.070   0.054  0.00  0.00    -0.392 OA
ATOM     38  H   UNL     1       2.937   5.153   0.036  0.00  0.00    +0.210 HD
ENDBRANCH  36  37
ENDBRANCH  28  36
ENDBRANCH  23  24
ENDBRANCH   4  23
TORSDOF 15
