REMARK  Name = ZINC08734789
REMARK  12 active torsions:
REMARK  status: ('A' for Active; 'I' for Inactive)
REMARK    1  A    between atoms: C_1  and  C_2
REMARK    2  A    between atoms: C_2  and  O_3
REMARK    3  A    between atoms: O_3  and  C_4
REMARK    4  A    between atoms: C_9  and  C_10
REMARK    5  A    between atoms: C_10  and  N_66
REMARK    6  A    between atoms: C_11  and  C_13
REMARK    7  A    between atoms: C_11  and  C_14
REMARK    8  A    between atoms: C_11  and  N_66
REMARK    9  A    between atoms: N_16  and  C_17
REMARK   10  A    between atoms: C_20  and  S_23
REMARK   11  A    between atoms: S_23  and  N_26
REMARK   12  A    between atoms: C_32  and  C_35
REMARK                            x       y       z     vdW  Elec       q    Type
REMARK                         _______ _______ _______ _____ _____    ______ ____
ROOT
ATOM      1  C   UNL     1      -3.120  -1.555  -1.375  0.00  0.00    +0.014 C 
ATOM      2  C   UNL     1      -2.829  -3.048  -1.536  0.00  0.00    -0.004 C 
ENDROOT
BRANCH   1   3
ATOM      3  C   UNL     1      -3.956  -1.077  -2.534  0.00  0.00    +0.203 C 
ATOM      4  O   UNL     1      -3.539  -0.203  -3.263  0.00  0.00    -0.277 OA
ATOM      5  N   UNL     1      -5.168  -1.622  -2.759  0.00  0.00    -0.287 N 
ATOM      6  H   UNL     1      -5.474  -2.367  -2.218  0.00  0.00    +0.155 HD
BRANCH   5   7
ATOM      7  C   UNL     1      -5.986  -1.114  -3.775  0.00  0.00    +0.033 A 
ATOM      8  C   UNL     1      -7.364  -1.089  -3.612  0.00  0.00    +0.025 A 
ATOM      9  C   UNL     1      -8.168  -0.582  -4.614  0.00  0.00    +0.030 A 
ATOM     10  C   UNL     1      -7.602  -0.109  -5.783  0.00  0.00    +0.106 A 
ATOM     11  C   UNL     1      -6.230  -0.138  -5.951  0.00  0.00    +0.030 A 
ATOM     12  C   UNL     1      -5.420  -0.639  -4.951  0.00  0.00    +0.025 A 
BRANCH  10  13
ATOM     13  S   UNL     1      -8.631   0.532  -7.062  0.00  0.00    +0.061 S 
ATOM     14  O   UNL     1      -9.838   0.952  -6.440  0.00  0.00    -0.153 OA
ATOM     15  O   UNL     1      -7.824   1.413  -7.830  0.00  0.00    -0.153 OA
BRANCH  13  16
ATOM     16  N   UNL     1      -9.026  -0.735  -8.053  0.00  0.00    -0.177 NA
ATOM     17  C   UNL     1      -8.267  -1.165  -9.237  0.00  0.00    +0.109 C 
ATOM     18  C   UNL     1      -9.021  -2.361  -9.855  0.00  0.00    +0.018 C 
ATOM     19  C   UNL     1     -10.465  -2.173  -9.319  0.00  0.00    +0.018 C 
ATOM     20  C   UNL     1     -10.199  -1.614  -7.899  0.00  0.00    +0.109 C 
ENDBRANCH  13  16
ENDBRANCH  10  13
ENDBRANCH   5   7
ENDBRANCH   1   3
BRANCH   1  21
ATOM     21  N   UNL     1      -1.849  -0.805  -1.354  0.00  0.00    +0.389 N 
ATOM     22  H   UNL     1      -1.179  -1.257  -1.987  0.00  0.00    -0.084 HD
ATOM     23  H   UNL     1      -2.019   0.158  -1.666  0.00  0.00    -0.084 HD
BRANCH  21  24
ATOM     24  C   UNL     1      -1.290  -0.783   0.011  0.00  0.00    -0.042 C 
BRANCH  24  30
ATOM     25  C   UNL     1      -0.017   1.375   0.019  0.00  0.00    +0.122 A 
ATOM     26  C   UNL     1       1.178   2.080   0.014  0.00  0.00    +0.053 A 
ATOM     27  C   UNL     1       2.376   1.402  -0.008  0.00  0.00    +0.001 A 
ATOM     28  C   UNL     1       2.408   0.014  -0.030  0.00  0.00    +0.125 A 
ATOM     29  C   UNL     1       1.206  -0.689  -0.023  0.00  0.00    +0.051 A 
ATOM     30  C   UNL     1       0.004  -0.012   0.002  0.00  0.00    -0.019 A 
ATOM     31  O   UNL     1       3.689  -0.449  -0.065  0.00  0.00    -0.488 OA
ATOM     32  C   UNL     1       4.581   0.591   0.371  0.00  0.00    +0.175 C 
ATOM     33  C   UNL     1       3.816   1.881  -0.009  0.00  0.00    +0.083 C 
ATOM     34  C   UNL     1       5.913   0.511  -0.376  0.00  0.00    +0.052 C 
BRANCH  25  35
ATOM     35  O   UNL     1      -1.204   2.039   0.036  0.00  0.00    -0.492 OA
BRANCH  35  37
ATOM     36  C   UNL     1      -2.568   4.034   0.070  0.00  0.00    +0.048 C 
ATOM     37  C   UNL     1      -1.147   3.467   0.053  0.00  0.00    +0.225 C 
ENDBRANCH  35  37
ENDBRANCH  25  35
ENDBRANCH  24  30
ENDBRANCH  21  24
ENDBRANCH   1  21
TORSDOF 9
