REMARK  Name = ZINC31169014
REMARK  15 active torsions:
REMARK  status: ('A' for Active; 'I' for Inactive)
REMARK    1  A    between atoms: C_1  and  C_2
REMARK    2  A    between atoms: C_8  and  C_42
REMARK    3  A    between atoms: C_8  and  C_43
REMARK    4  A    between atoms: C_9  and  O_25
REMARK    5  A    between atoms: C_13  and  C_24
REMARK    6  A    between atoms: C_14  and  C_15
REMARK    7  A    between atoms: C_14  and  O_23
REMARK    8  A    between atoms: C_15  and  C_16
REMARK    9  A    between atoms: C_16  and  C_17
REMARK   10  A    between atoms: O_25  and  C_26
REMARK   11  A    between atoms: C_28  and  O_41
REMARK   12  A    between atoms: C_30  and  O_40
REMARK   13  A    between atoms: C_32  and  O_39
REMARK   14  A    between atoms: C_34  and  C_37
REMARK   15  A    between atoms: C_37  and  O_38
REMARK                            x       y       z     vdW  Elec       q    Type
REMARK                         _______ _______ _______ _____ _____    ______ ____
ROOT
ATOM      1  C   UNL     1       3.939   5.680  -2.050  0.00  0.00    +0.010 C 
ATOM      2  C   UNL     1       5.431   5.548  -2.333  0.00  0.00    +0.018 C 
ATOM      3  C   UNL     1       6.185   5.033  -1.117  0.00  0.00    +0.006 C 
ATOM      4  C   UNL     1       5.908   3.543  -0.906  0.00  0.00    +0.005 C 
ATOM      5  C   UNL     1       6.390   2.740  -2.120  0.00  0.00    +0.006 C 
ATOM      6  C   UNL     1       6.281   1.251  -1.831  0.00  0.00    -0.005 C 
ATOM      7  C   UNL     1       4.846   0.739  -1.885  0.00  0.00    +0.127 C 
ATOM      8  C   UNL     1       4.114   1.196  -3.138  0.00  0.00    +0.033 C 
ATOM      9  C   UNL     1       4.162   2.723  -3.250  0.00  0.00    +0.012 C 
ATOM     10  C   UNL     1       5.608   3.192  -3.352  0.00  0.00    +0.000 C 
ATOM     11  C   UNL     1       5.713   4.703  -3.559  0.00  0.00    +0.075 C 
ATOM     12  C   UNL     1       6.223   2.590  -4.635  0.00  0.00    +0.014 C 
ATOM     13  C   UNL     1       6.814   0.953  -0.410  0.00  0.00    +0.014 C 
ATOM     14  C   UNL     1       7.162   0.416  -2.770  0.00  0.00    +0.014 C 
ENDROOT
BRANCH  11  15
ATOM     15  O   UNL     1       7.066   4.981  -3.986  0.00  0.00    -0.388 OA
ATOM     16  H   UNL     1       7.481   4.470  -4.867  0.00  0.00    +0.210 HD
ENDBRANCH  11  15
BRANCH  11  17
ATOM     17  C   UNL     1       4.788   5.142  -4.703  0.00  0.00    +0.040 C 
BRANCH  17  18
ATOM     18  C   UNL     1       4.902   6.655  -4.899  0.00  0.00    +0.045 C 
BRANCH  18  19
ATOM     19  C   UNL     1       3.994   7.086  -6.022  0.00  0.00    +0.036 C 
ATOM     20  C   UNL     1       2.755   7.548  -5.873  0.00  0.00    +0.024 C 
ATOM     21  C   UNL     1       2.230   7.852  -7.257  0.00  0.00    +0.260 C 
ATOM     22  O   UNL     1       3.304   7.511  -8.178  0.00  0.00    -0.457 OA
ATOM     23  C   UNL     1       4.342   7.067  -7.445  0.00  0.00    +0.335 C 
ATOM     24  O   UNL     1       5.409   6.700  -7.897  0.00  0.00    -0.245 OA
ENDBRANCH  18  19
ENDBRANCH  17  18
ENDBRANCH  11  17
BRANCH   7  25
ATOM     25  O   UNL     1       4.132   1.165  -0.721  0.00  0.00    -0.345 OA
BRANCH  25  26
ATOM     26  C   UNL     1       3.131   0.244  -0.284  0.00  0.00    +0.282 C 
ATOM     27  C   UNL     1       2.521   0.739   1.030  0.00  0.00    +0.201 C 
ATOM     28  C   UNL     1       1.408  -0.221   1.461  0.00  0.00    +0.179 C 
ATOM     29  C   UNL     1       0.370  -0.318   0.339  0.00  0.00    +0.177 C 
ATOM     30  C   UNL     1       1.063  -0.772  -0.949  0.00  0.00    +0.178 C 
ATOM     31  O   UNL     1       2.107   0.147  -1.276  0.00  0.00    -0.341 OA
BRANCH  29  32
ATOM     32  O   UNL     1      -0.637  -1.266   0.699  0.00  0.00    -0.386 OA
ATOM     33  H   UNL     1      -1.471  -1.471   0.012  0.00  0.00    +0.210 HD
ENDBRANCH  29  32
BRANCH  28  34
ATOM     34  O   UNL     1       0.785   0.271   2.649  0.00  0.00    -0.386 OA
ATOM     35  H   UNL     1      -0.042  -0.289   3.110  0.00  0.00    +0.210 HD
ENDBRANCH  28  34
BRANCH  27  36
ATOM     36  O   UNL     1       3.532   0.781   2.040  0.00  0.00    -0.384 OA
ATOM     37  H   UNL     1       3.279   1.114   3.057  0.00  0.00    +0.210 HD
ENDBRANCH  27  36
BRANCH  30  38
ATOM     38  C   UNL     1       0.044  -0.813  -2.089  0.00  0.00    +0.190 C 
BRANCH  38  39
ATOM     39  O   UNL     1       0.663  -1.346  -3.262  0.00  0.00    -0.392 OA
ATOM     40  H   UNL     1       0.082  -1.453  -4.190  0.00  0.00    +0.210 HD
ENDBRANCH  38  39
ENDBRANCH  30  38
ENDBRANCH  25  26
ENDBRANCH   7  25
TORSDOF 11
