REMARK  Name = ZINC08138177
REMARK  11 active torsions:
REMARK  status: ('A' for Active; 'I' for Inactive)
REMARK    1  A    between atoms: C_1  and  C_2
REMARK    2  A    between atoms: C_2  and  C_3
REMARK    3  A    between atoms: C_3  and  C_5
REMARK    4  A    between atoms: C_3  and  C_6
REMARK    5  A    between atoms: C_6  and  C_8
REMARK    6  A    between atoms: C_6  and  N_27
REMARK    7  A    between atoms: N_10  and  N_11
REMARK    8  A    between atoms: C_12  and  C_14
REMARK    9  A    between atoms: C_16  and  C_26
REMARK   10  A    between atoms: N_17  and  C_20
REMARK   11  A    between atoms: C_18  and  C_19
REMARK                            x       y       z     vdW  Elec       q    Type
REMARK                         _______ _______ _______ _____ _____    ______ ____
ROOT
ATOM      1  N   UNL     1      -2.439   1.786   0.024  0.00  0.00    -0.230 N 
ATOM      2  C   UNL     1      -1.207   2.331   0.021  0.00  0.00    +0.262 C 
ATOM      3  O   UNL     1      -1.077   3.541   0.026  0.00  0.00    -0.269 OA
ATOM      4  H   UNL     1      -2.543   0.822   0.020  0.00  0.00    +0.173 HD
ENDROOT
BRANCH   2   5
ATOM      5  C   UNL     1      -0.018   1.463   0.010  0.00  0.00    +0.059 A 
ATOM      6  C   UNL     1       0.002  -0.004   0.002  0.00  0.00    +0.036 A 
ATOM      7  C   UNL     1       1.297  -0.366  -0.012  0.00  0.00    +0.022 A 
ATOM      8  N   UNL     1       2.070   0.761  -0.014  0.00  0.00    -0.317 N 
ATOM      9  C   UNL     1       1.291   1.862  -0.000  0.00  0.00    +0.033 A 
ATOM     10  C   UNL     1       1.778   3.288   0.002  0.00  0.00    +0.064 C 
ATOM     11  C   UNL     1       1.812  -1.782  -0.025  0.00  0.00    +0.064 C 
BRANCH   8  12
ATOM     12  C   UNL     1       3.472   0.772  -0.026  0.00  0.00    +0.047 A 
ATOM     13  C   UNL     1       4.174   1.285   1.056  0.00  0.00    +0.026 A 
ATOM     14  C   UNL     1       5.555   1.288   1.043  0.00  0.00    +0.002 A 
ATOM     15  C   UNL     1       6.239   0.793  -0.052  0.00  0.00    +0.000 A 
ATOM     16  C   UNL     1       5.542   0.286  -1.134  0.00  0.00    +0.002 A 
ATOM     17  C   UNL     1       4.161   0.274  -1.124  0.00  0.00    +0.026 A 
ENDBRANCH   8  12
ENDBRANCH   2   5
BRANCH   1  20
ATOM     18  C   UNL     1      -4.803   2.067   0.038  0.00  0.00    +0.250 C 
ATOM     19  O   UNL     1      -4.933   0.861   0.033  0.00  0.00    -0.272 OA
ATOM     20  N   UNL     1      -3.571   2.612   0.035  0.00  0.00    -0.233 N 
ATOM     21  H   UNL     1      -3.467   3.577   0.039  0.00  0.00    +0.173 HD
BRANCH  18  22
ATOM     22  C   UNL     1      -6.020   2.956   0.049  0.00  0.00    +0.165 C 
BRANCH  22  23
ATOM     23  N   UNL     1      -7.183   2.198  -0.421  0.00  0.00    -0.288 N 
ATOM     24  C   UNL     1      -7.580   1.094   0.241  0.00  0.00    +0.298 C 
ATOM     25  O   UNL     1      -6.974   0.726   1.229  0.00  0.00    -0.253 OA
ATOM     26  N   UNL     1      -8.649   0.397  -0.191  0.00  0.00    -0.313 N 
ATOM     27  H   UNL     1      -7.666   2.491  -1.209  0.00  0.00    +0.151 HD
ATOM     28  H   UNL     1      -9.133   0.690  -0.979  0.00  0.00    +0.146 HD
ATOM     29  H   UNL     1      -8.935  -0.398   0.286  0.00  0.00    +0.146 HD
ENDBRANCH  22  23
BRANCH  22  30
ATOM     30  C   UNL     1      -6.277   3.452   1.474  0.00  0.00    +0.015 C 
ATOM     31  C   UNL     1      -5.063   4.243   1.965  0.00  0.00    +0.010 C 
BRANCH  30  33
ATOM     32  C   UNL     1      -7.843   4.749   2.925  0.00  0.00    +0.004 C 
ATOM     33  C   UNL     1      -7.513   4.354   1.485  0.00  0.00    +0.002 C 
ENDBRANCH  30  33
ENDBRANCH  22  30
ENDBRANCH  18  22
ENDBRANCH   1  20
TORSDOF 7
