REMARK  Name = ZINC20192799
REMARK  4 active torsions:
REMARK  status: ('A' for Active; 'I' for Inactive)
REMARK    1  A    between atoms: C_5  and  C_7
REMARK    2  A    between atoms: C_7  and  C_9
REMARK    3  A    between atoms: C_7  and  N_21
REMARK    4  A    between atoms: C_18  and  O_19
REMARK                            x       y       z     vdW  Elec       q    Type
REMARK                         _______ _______ _______ _____ _____    ______ ____
ROOT
ATOM      1  C   UNL     1       1.211  -2.196  -0.037  0.00  0.00    +0.140 C 
ENDROOT
BRANCH   1   2
ATOM      2  N   UNL     1       2.367  -2.870   0.571  0.00  0.00    -0.287 NA
ATOM      3  C   UNL     1       2.601  -2.384   1.937  0.00  0.00    +0.104 C 
ATOM      4  C   UNL     1       3.913  -2.973   2.467  0.00  0.00    +0.122 C 
ATOM      5  N   UNL     1       3.858  -4.436   2.328  0.00  0.00    -0.314 N 
ATOM      6  C   UNL     1       3.493  -4.997   1.018  0.00  0.00    +0.122 C 
ATOM      7  C   UNL     1       2.198  -4.329   0.545  0.00  0.00    +0.104 C 
ATOM      8  C   UNL     1       4.142  -5.266   3.406  0.00  0.00    +0.099 A 
ATOM      9  C   UNL     1       3.968  -6.641   3.282  0.00  0.00    +0.042 A 
ATOM     10  C   UNL     1       4.255  -7.456   4.362  0.00  0.00    +0.005 A 
ATOM     11  C   UNL     1       4.708  -6.866   5.535  0.00  0.00    +0.018 A 
ATOM     12  C   UNL     1       4.858  -5.495   5.588  0.00  0.00    +0.084 A 
ATOM     13  N   UNL     1       4.582  -4.743   4.539  0.00  0.00    -0.350 N 
ATOM     14  H   UNL     1       4.699  -3.782   4.602  0.00  0.00    +0.166 HD
ENDBRANCH   1   2
BRANCH   1  15
ATOM     15  C   UNL     1       1.063  -2.645  -1.468  0.00  0.00    +0.021 A 
ATOM     16  C   UNL     1       2.188  -3.054  -2.178  0.00  0.00    +0.030 A 
ATOM     17  C   UNL     1       2.087  -3.466  -3.473  0.00  0.00    +0.051 A 
ATOM     18  C   UNL     1       0.831  -3.480  -4.104  0.00  0.00    +0.022 A 
ATOM     19  C   UNL     1       0.687  -3.899  -5.439  0.00  0.00    +0.013 A 
ATOM     20  C   UNL     1      -0.564  -3.886  -5.987  0.00  0.00    +0.020 A 
ATOM     21  C   UNL     1      -1.652  -3.466  -5.225  0.00  0.00    +0.111 A 
ATOM     22  N   UNL     1      -1.513  -3.076  -3.981  0.00  0.00    -0.251 NA
ATOM     23  C   UNL     1      -0.317  -3.064  -3.386  0.00  0.00    +0.114 A 
ATOM     24  C   UNL     1      -0.174  -2.649  -2.046  0.00  0.00    +0.148 A 
ATOM     25 CL   UNL     1       3.504  -3.972  -4.340  0.00  0.00    -0.083 Cl
BRANCH  24  26
ATOM     26  O   UNL     1      -1.262  -2.251  -1.335  0.00  0.00    -0.504 OA
ATOM     27  H   UNL     1      -1.452  -1.305  -1.403  0.00  0.00    +0.292 HD
ENDBRANCH  24  26
ENDBRANCH   1  15
BRANCH   1  32
ATOM     28  C   UNL     1       0.533   1.511   0.054  0.00  0.00    +0.003 A 
ATOM     29  C   UNL     1       1.837   1.983   0.072  0.00  0.00    +0.020 A 
ATOM     30  C   UNL     1       2.881   1.078   0.054  0.00  0.00    +0.111 A 
ATOM     31  N   UNL     1       2.648  -0.220   0.020  0.00  0.00    -0.258 NA
ATOM     32  C   UNL     1       1.422  -0.704   0.002  0.00  0.00    +0.063 A 
ATOM     33  C   UNL     1       0.328   0.140   0.019  0.00  0.00    +0.025 A 
ENDBRANCH   1  32
TORSDOF 4
