REMARK  Name = ZINC40777780
REMARK  9 active torsions:
REMARK  status: ('A' for Active; 'I' for Inactive)
REMARK    1  A    between atoms: C_1  and  C_2
REMARK    2  A    between atoms: C_2  and  O_3
REMARK    3  A    between atoms: O_3  and  C_4
REMARK    4  A    between atoms: C_7  and  N_10
REMARK    5  A    between atoms: C_12  and  N_31
REMARK    6  A    between atoms: C_13  and  N_17
REMARK    7  A    between atoms: N_17  and  N_18
REMARK    8  A    between atoms: N_18  and  C_19
REMARK    9  A    between atoms: N_18  and  C_25
REMARK                            x       y       z     vdW  Elec       q    Type
REMARK                         _______ _______ _______ _____ _____    ______ ____
ROOT
ATOM      1  N   UNL     1       1.666  -4.359  -4.344  0.00  0.00    -0.299 N 
ATOM      2  C   UNL     1       2.188  -5.420  -5.075  0.00  0.00    +0.126 A 
ATOM      3  C   UNL     1       1.947  -6.738  -4.683  0.00  0.00    +0.105 A 
ATOM      4  C   UNL     1       2.494  -7.766  -5.452  0.00  0.00    +0.161 A 
ATOM      5  N   UNL     1       3.220  -7.453  -6.523  0.00  0.00    -0.219 NA
ATOM      6  C   UNL     1       3.425  -6.195  -6.859  0.00  0.00    +0.200 A 
ATOM      7  N   UNL     1       2.922  -5.196  -6.162  0.00  0.00    -0.333 N 
ATOM      8  H   UNL     1       1.216  -4.526  -3.501  0.00  0.00    +0.154 HD
ATOM      9  H   UNL     1       3.092  -4.283  -6.445  0.00  0.00    +0.168 HD
ENDROOT
BRANCH   1  13
ATOM     10  C   UNL     1       2.035  -0.461  -5.774  0.00  0.00    +0.121 A 
ATOM     11  C   UNL     1       1.773  -1.500  -6.654  0.00  0.00    +0.047 A 
ATOM     12  C   UNL     1       1.650  -2.792  -6.181  0.00  0.00    +0.027 A 
ATOM     13  C   UNL     1       1.791  -3.050  -4.824  0.00  0.00    +0.033 A 
ATOM     14  C   UNL     1       2.054  -2.009  -3.943  0.00  0.00    +0.027 A 
ATOM     15  C   UNL     1       2.181  -0.719  -4.419  0.00  0.00    +0.047 A 
BRANCH  10  16
ATOM     16  O   UNL     1       2.156   0.811  -6.240  0.00  0.00    -0.492 OA
BRANCH  16  18
ATOM     17  C   UNL     1       2.163   2.488  -7.981  0.00  0.00    +0.048 C 
ATOM     18  C   UNL     1       1.994   1.004  -7.647  0.00  0.00    +0.225 C 
ENDBRANCH  16  18
ENDBRANCH  10  16
ENDBRANCH   1  13
BRANCH   3  19
ATOM     19  N   UNL     1       1.175  -7.022  -3.545  0.00  0.00    -0.353 N 
ATOM     20  H   UNL     1       0.801  -6.298  -3.019  0.00  0.00    +0.143 HD
ATOM     21  H   UNL     1       1.015  -7.943  -3.284  0.00  0.00    +0.143 HD
ENDBRANCH   3  19
BRANCH   4  22
ATOM     22  N   UNL     1       2.285  -9.096  -5.106  0.00  0.00    -0.242 N 
ATOM     23  H   UNL     1       1.754  -9.315  -4.324  0.00  0.00    +0.172 HD
BRANCH  22  24
ATOM     24  N   UNL     1       2.839 -10.118  -5.887  0.00  0.00    -0.221 N 
BRANCH  24  25
ATOM     25  C   UNL     1       4.207 -10.395  -5.807  0.00  0.00    +0.053 A 
ATOM     26  C   UNL     1       4.803 -10.605  -4.570  0.00  0.00    +0.025 A 
ATOM     27  C   UNL     1       6.155 -10.878  -4.495  0.00  0.00    +0.002 A 
ATOM     28  C   UNL     1       6.914 -10.942  -5.649  0.00  0.00    +0.000 A 
ATOM     29  C   UNL     1       6.324 -10.732  -6.882  0.00  0.00    +0.002 A 
ATOM     30  C   UNL     1       4.971 -10.465  -6.965  0.00  0.00    +0.025 A 
ENDBRANCH  24  25
BRANCH  24  31
ATOM     31  C   UNL     1       2.025 -10.862  -6.745  0.00  0.00    +0.053 A 
ATOM     32  C   UNL     1       2.535 -11.980  -7.392  0.00  0.00    +0.025 A 
ATOM     33  C   UNL     1       1.727 -12.713  -8.240  0.00  0.00    +0.002 A 
ATOM     34  C   UNL     1       0.413 -12.335  -8.444  0.00  0.00    +0.000 A 
ATOM     35  C   UNL     1      -0.098 -11.222  -7.801  0.00  0.00    +0.002 A 
ATOM     36  C   UNL     1       0.703 -10.488  -6.947  0.00  0.00    +0.025 A 
ENDBRANCH  24  31
ENDBRANCH  22  24
ENDBRANCH   4  22
TORSDOF 8
