REMARK  Name = ZINC40115760
REMARK  6 active torsions:
REMARK  status: ('A' for Active; 'I' for Inactive)
REMARK    1  A    between atoms: C_3  and  C_6
REMARK    2  A    between atoms: C_6  and  C_8
REMARK    3  A    between atoms: C_13  and  C_15
REMARK    4  A    between atoms: C_18  and  O_21
REMARK    5  A    between atoms: O_21  and  C_22
REMARK    6  A    between atoms: C_22  and  C_23
REMARK                            x       y       z     vdW  Elec       q    Type
REMARK                         _______ _______ _______ _____ _____    ______ ____
ROOT
ATOM      1  C   UNL     1       4.962   0.721  -0.039  0.00  0.00    +0.077 C 
ATOM      2  C   UNL     1       6.292   0.949   0.055  0.00  0.00    +0.249 C 
ATOM      3  C   UNL     1       7.002  -0.343   0.140  0.00  0.00    +0.285 C 
ATOM      4  O   UNL     1       8.207  -0.472   0.234  0.00  0.00    -0.267 OA
ATOM      5  N   UNL     1       6.118  -1.357   0.097  0.00  0.00    -0.298 N 
ATOM      6  C   UNL     1       4.774  -0.778  -0.012  0.00  0.00    +0.142 C 
ATOM      7  O   UNL     1       6.879   2.169   0.070  0.00  0.00    -0.282 OA
ATOM      8  H   UNL     1       6.332  -2.302   0.136  0.00  0.00    +0.150 HD
ENDROOT
BRANCH   6   9
ATOM      9  C   UNL     1       4.115  -1.241  -1.286  0.00  0.00    -0.022 A 
ATOM     10  C   UNL     1       4.870  -1.407  -2.433  0.00  0.00    +0.009 A 
ATOM     11  C   UNL     1       4.269  -1.830  -3.602  0.00  0.00    +0.046 A 
ATOM     12  C   UNL     1       2.906  -2.090  -3.625  0.00  0.00    +0.121 A 
ATOM     13  C   UNL     1       2.151  -1.923  -2.473  0.00  0.00    +0.046 A 
ATOM     14  C   UNL     1       2.758  -1.504  -1.305  0.00  0.00    +0.009 A 
BRANCH  12  15
ATOM     15  O   UNL     1       2.312  -2.506  -4.774  0.00  0.00    -0.483 OA
BRANCH  15  16
ATOM     16  C   UNL     1       0.906  -2.755  -4.724  0.00  0.00    +0.324 C 
BRANCH  16  17
ATOM     17  C   UNL     1       0.427  -3.205  -6.080  0.00  0.00    +0.248 C 
ATOM     18  O   UNL     1       1.213  -3.304  -6.999  0.00  0.00    -0.272 OA
ATOM     19  N   UNL     1      -0.874  -3.498  -6.272  0.00  0.00    -0.327 N 
ATOM     20  H   UNL     1      -1.503  -3.419  -5.538  0.00  0.00    +0.145 HD
ATOM     21  H   UNL     1      -1.183  -3.788  -7.145  0.00  0.00    +0.145 HD
ENDBRANCH  16  17
ENDBRANCH  15  16
ENDBRANCH  12  15
ENDBRANCH   6   9
BRANCH   1  22
ATOM     22  C   UNL     1       3.905   1.734  -0.142  0.00  0.00    +0.202 C 
ATOM     23  O   UNL     1       3.829   2.436  -1.135  0.00  0.00    -0.286 OA
BRANCH  22  26
ATOM     24  C   UNL     1       1.183   2.752   2.236  0.00  0.00    +0.008 A 
ATOM     25  C   UNL     1       1.934   2.848   1.091  0.00  0.00    +0.019 A 
ATOM     26  C   UNL     1       2.942   1.902   0.949  0.00  0.00    +0.059 A 
ATOM     27  S   UNL     1       2.757   0.945   2.442  0.00  0.00    -0.093 S 
ATOM     28  C   UNL     1       1.465   1.768   3.129  0.00  0.00    +0.046 A 
ENDBRANCH  22  26
ENDBRANCH   1  22
TORSDOF 6
