REMARK  Name = ZINC43425014
REMARK  5 active torsions:
REMARK  status: ('A' for Active; 'I' for Inactive)
REMARK    1  A    between atoms: N_9  and  C_13
REMARK    2  A    between atoms: C_13  and  C_14
REMARK    3  A    between atoms: C_14  and  C_16
REMARK    4  A    between atoms: C_14  and  O_18
REMARK    5  A    between atoms: C_16  and  N_17
REMARK                            x       y       z     vdW  Elec       q    Type
REMARK                         _______ _______ _______ _____ _____    ______ ____
ROOT
ATOM      1  C   UNL     1      -0.540   1.490  -0.209  0.00  0.00    +0.002 C 
ATOM      2  C   UNL     1       0.818   2.192  -0.263  0.00  0.00    +0.003 C 
ATOM      3  C   UNL     1       1.615   1.853   0.998  0.00  0.00    +0.033 C 
ATOM      4  C   UNL     1       1.824   0.342   1.083  0.00  0.00    +0.135 C 
ATOM      5  C   UNL     1       0.469  -0.370   1.113  0.00  0.00    +0.086 C 
ATOM      6  C   UNL     1      -0.328  -0.023  -0.137  0.00  0.00    +0.021 C 
ATOM      7  N   UNL     1       0.696  -1.824   1.152  0.00  0.00    -0.292 NA
ATOM      8  C   UNL     1       1.464  -2.258  -0.024  0.00  0.00    +0.113 C 
ATOM      9  C   UNL     1       2.804  -1.520  -0.057  0.00  0.00    +0.175 C 
ATOM     10  O   UNL     1       2.561  -0.111  -0.055  0.00  0.00    -0.374 OA
ENDROOT
BRANCH   7  11
ATOM     11  C   UNL     1      -0.576  -2.553   1.249  0.00  0.00    +0.114 C 
BRANCH  11  12
ATOM     12  C   UNL     1      -1.121  -2.440   2.674  0.00  0.00    +0.111 C 
BRANCH  12  13
ATOM     13  O   UNL     1      -0.208  -3.058   3.584  0.00  0.00    -0.392 OA
ATOM     14  H   UNL     1      -0.056  -3.997   3.410  0.00  0.00    +0.210 HD
ENDBRANCH  12  13
BRANCH  12  15
ATOM     15  C   UNL     1      -2.478  -3.141   2.758  0.00  0.00    -0.053 C 
BRANCH  15  16
ATOM     16  N   UNL     1      -3.056  -2.930   4.092  0.00  0.00    +0.380 N 
ATOM     17  H   UNL     1      -2.437  -3.312   4.791  0.00  0.00    -0.090 HD
ATOM     18  H   UNL     1      -3.178  -1.942   4.254  0.00  0.00    -0.090 HD
ATOM     19  H   UNL     1      -3.951  -3.393   4.148  0.00  0.00    -0.090 HD
ENDBRANCH  15  16
ENDBRANCH  12  15
ENDBRANCH  11  12
ENDBRANCH   7  11
TORSDOF 5
