REMARK  Name = ZINC01107116
REMARK  8 active torsions:
REMARK  status: ('A' for Active; 'I' for Inactive)
REMARK    1  A    between atoms: C_1  and  O_2
REMARK    2  A    between atoms: O_2  and  C_3
REMARK    3  A    between atoms: C_5  and  C_10
REMARK    4  A    between atoms: C_8  and  O_9
REMARK    5  A    between atoms: C_23  and  C_25
REMARK    6  A    between atoms: C_28  and  O_33
REMARK    7  A    between atoms: C_29  and  O_31
REMARK    8  A    between atoms: O_31  and  C_32
REMARK                            x       y       z     vdW  Elec       q    Type
REMARK                         _______ _______ _______ _____ _____    ______ ____
ROOT
ATOM      1  C   UNL     1       0.002  -0.004   0.002  0.00  0.00    +0.013 C 
ATOM      2  C   UNL     1      -0.026   1.330  -0.150  0.00  0.00    -0.023 C 
ATOM      3  C   UNL     1      -1.331   2.062  -0.381  0.00  0.00    +0.037 C 
ATOM      4  C   UNL     1      -1.082   3.115  -1.464  0.00  0.00    +0.009 C 
ATOM      5  C   UNL     1      -0.042   4.114  -0.962  0.00  0.00    +0.035 C 
ATOM      6  C   UNL     1       1.201   3.420  -0.490  0.00  0.00    -0.020 C 
ATOM      7  C   UNL     1       1.220   2.130  -0.102  0.00  0.00    +0.046 C 
ATOM      8  N   UNL     1       2.365   1.537   0.338  0.00  0.00    -0.326 N 
ATOM      9  C   UNL     1       3.528   2.133   0.421  0.00  0.00    +0.215 C 
ATOM     10  N   UNL     1       4.742   1.698   0.828  0.00  0.00    -0.206 NA
ATOM     11  C   UNL     1       5.622   2.656   0.737  0.00  0.00    +0.203 C 
ATOM     12  N   UNL     1       5.021   3.781   0.259  0.00  0.00    -0.251 N 
ATOM     13  N   UNL     1       3.678   3.456   0.054  0.00  0.00    -0.210 N 
ATOM     14  C   UNL     1       2.508   4.192  -0.433  0.00  0.00    +0.155 C 
ATOM     15  H   UNL     1       5.382   4.795   0.032  0.00  0.00    +0.171 HD
ATOM     16  H   UNL     1       2.265   0.483   0.635  0.00  0.00    +0.169 HD
ENDROOT
BRANCH   1  19
ATOM     17  C   UNL     1      -2.532  -2.760  -0.274  0.00  0.00    +0.162 A 
ATOM     18  C   UNL     1      -1.348  -2.057  -0.389  0.00  0.00    +0.057 A 
ATOM     19  C   UNL     1      -1.258  -0.758   0.121  0.00  0.00    -0.021 A 
ATOM     20  C   UNL     1      -2.364  -0.180   0.750  0.00  0.00    +0.012 A 
ATOM     21  C   UNL     1      -3.544  -0.886   0.856  0.00  0.00    +0.050 A 
ATOM     22  C   UNL     1      -3.633  -2.175   0.348  0.00  0.00    +0.158 A 
BRANCH  17  24
ATOM     23  C   UNL     1      -1.457  -4.560  -1.396  0.00  0.00    +0.277 C 
ATOM     24  O   UNL     1      -2.624  -4.023  -0.770  0.00  0.00    -0.491 OA
ENDBRANCH  17  24
BRANCH  22  25
ATOM     25  O   UNL     1      -4.797  -2.868   0.460  0.00  0.00    -0.503 OA
ATOM     26  H   UNL     1      -5.666  -2.407   0.951  0.00  0.00    +0.292 HD
ENDBRANCH  22  25
ENDBRANCH   1  19
BRANCH  14  27
ATOM     27  C   UNL     1       2.815   4.694  -1.820  0.00  0.00    -0.018 A 
ATOM     28  C   UNL     1       3.384   3.844  -2.751  0.00  0.00    +0.009 A 
ATOM     29  C   UNL     1       3.662   4.298  -4.027  0.00  0.00    +0.049 A 
ATOM     30  C   UNL     1       3.383   5.611  -4.371  0.00  0.00    +0.158 A 
ATOM     31  C   UNL     1       2.816   6.468  -3.433  0.00  0.00    +0.162 A 
ATOM     32  C   UNL     1       2.534   6.005  -2.158  0.00  0.00    +0.055 A 
BRANCH  31  33
ATOM     33  O   UNL     1       2.541   7.757  -3.766  0.00  0.00    -0.491 OA
ATOM     34  C   UNL     1       1.960   8.580  -2.752  0.00  0.00    +0.277 C 
ENDBRANCH  31  33
BRANCH  30  35
ATOM     35  O   UNL     1       3.662   6.061  -5.624  0.00  0.00    -0.503 OA
ATOM     36  H   UNL     1       3.440   7.103  -5.896  0.00  0.00    +0.292 HD
ENDBRANCH  30  35
ENDBRANCH  14  27
TORSDOF 6
