REMARK  Name = ZINC50456369
REMARK  4 active torsions:
REMARK  status: ('A' for Active; 'I' for Inactive)
REMARK    1  A    between atoms: C_1  and  C_2
REMARK    2  A    between atoms: C_5  and  N_8
REMARK    3  A    between atoms: C_9  and  C_11
REMARK    4  A    between atoms: C_14  and  N_16
REMARK                            x       y       z     vdW  Elec       q    Type
REMARK                         _______ _______ _______ _____ _____    ______ ____
ROOT
ATOM      1  N   UNL     1      -1.358  -2.098   2.449  0.00  0.00    -0.312 N 
ATOM      2  C   UNL     1      -1.235  -2.779   3.606  0.00  0.00    +0.215 C 
ATOM      3  O   UNL     1      -0.557  -3.784   3.648  0.00  0.00    -0.276 OA
ATOM      4  H   UNL     1      -1.901  -1.294   2.415  0.00  0.00    +0.149 HD
ENDROOT
BRANCH   1   9
ATOM      5  C   UNL     1      -0.019   1.526   0.010  0.00  0.00    +0.007 C 
ATOM      6  C   UNL     1       0.002  -0.004   0.002  0.00  0.00    -0.014 C 
ATOM      7  C   UNL     1      -1.433  -0.534   0.013  0.00  0.00    +0.005 C 
ATOM      8  C   UNL     1      -1.413  -2.063   0.004  0.00  0.00    +0.022 C 
ATOM      9  C   UNL     1      -0.673  -2.570   1.244  0.00  0.00    +0.073 C 
ATOM     10  C   UNL     1       0.763  -2.041   1.233  0.00  0.00    +0.022 C 
ATOM     11  C   UNL     1       0.742  -0.511   1.242  0.00  0.00    +0.005 C 
ENDBRANCH   1   9
BRANCH   2  12
ATOM     12  C   UNL     1      -1.941  -2.293   4.845  0.00  0.00    +0.059 C 
ATOM     13  C   UNL     1      -1.075  -1.748   5.983  0.00  0.00    -0.005 C 
ATOM     14  C   UNL     1      -1.760  -3.110   6.127  0.00  0.00    -0.063 C 
BRANCH  14  15
ATOM     15  N   UNL     1      -0.912  -4.307   6.054  0.00  0.00    +0.380 N 
ATOM     16  H   UNL     1       0.020  -4.043   5.773  0.00  0.00    -0.090 HD
ATOM     17  H   UNL     1      -0.877  -4.750   6.960  0.00  0.00    -0.090 HD
ATOM     18  H   UNL     1      -1.297  -4.951   5.380  0.00  0.00    -0.090 HD
ENDBRANCH  14  15
ENDBRANCH   2  12
TORSDOF 3
