REMARK  Name = ZINC36611770
REMARK  8 active torsions:
REMARK  status: ('A' for Active; 'I' for Inactive)
REMARK    1  A    between atoms: C_1  and  O_2
REMARK    2  A    between atoms: O_2  and  C_3
REMARK    3  A    between atoms: C_5  and  C_15
REMARK    4  A    between atoms: C_8  and  O_9
REMARK    5  A    between atoms: O_9  and  C_10
REMARK    6  A    between atoms: C_10  and  C_11
REMARK    7  A    between atoms: C_15  and  N_16
REMARK    8  A    between atoms: N_16  and  C_17
REMARK                            x       y       z     vdW  Elec       q    Type
REMARK                         _______ _______ _______ _____ _____    ______ ____
ROOT
ATOM      1  C   UNL     1       0.606  -0.608  -1.057  0.00  0.00    +0.162 A 
ATOM      2  C   UNL     1       1.173   0.159  -2.062  0.00  0.00    +0.052 A 
ATOM      3  C   UNL     1       1.787  -0.456  -3.138  0.00  0.00    -0.047 A 
ATOM      4  C   UNL     1       1.837  -1.836  -3.213  0.00  0.00    +0.023 A 
ATOM      5  C   UNL     1       1.273  -2.607  -2.212  0.00  0.00    +0.065 A 
ATOM      6  C   UNL     1       0.662  -1.996  -1.129  0.00  0.00    +0.164 A 
ATOM      7 BR   UNL     1       2.678  -2.671  -4.686  0.00  0.00    -0.050 Br
ENDROOT
BRANCH   1   9
ATOM      8  C   UNL     1      -0.017   1.425   0.010  0.00  0.00    +0.277 C 
ATOM      9  O   UNL     1       0.002  -0.004   0.002  0.00  0.00    -0.491 OA
ENDBRANCH   1   9
BRANCH   6  10
ATOM     10  O   UNL     1       0.112  -2.752  -0.141  0.00  0.00    -0.479 OA
BRANCH  10  11
ATOM     11  C   UNL     1       0.207  -4.171  -0.282  0.00  0.00    +0.324 C 
BRANCH  11  12
ATOM     12  C   UNL     1      -0.452  -4.838   0.898  0.00  0.00    +0.248 C 
ATOM     13  O   UNL     1      -0.953  -4.164   1.774  0.00  0.00    -0.272 OA
ATOM     14  N   UNL     1      -0.485  -6.183   0.981  0.00  0.00    -0.327 N 
ATOM     15  H   UNL     1      -0.084  -6.722   0.281  0.00  0.00    +0.145 HD
ATOM     16  H   UNL     1      -0.909  -6.612   1.740  0.00  0.00    +0.145 HD
ENDBRANCH  11  12
ENDBRANCH  10  11
ENDBRANCH   6  10
BRANCH   3  17
ATOM     17  C   UNL     1       2.402   0.380  -4.231  0.00  0.00    -0.045 C 
BRANCH  17  18
ATOM     18  N   UNL     1       3.865   0.360  -4.098  0.00  0.00    +0.385 N 
ATOM     19  H   UNL     1       4.126   0.737  -3.199  0.00  0.00    -0.085 HD
ATOM     20  H   UNL     1       4.196  -0.590  -4.173  0.00  0.00    -0.085 HD
BRANCH  18  21
ATOM     21  C   UNL     1       4.464   1.175  -5.163  0.00  0.00    -0.067 C 
ATOM     22  C   UNL     1       3.961   2.615  -5.048  0.00  0.00    -0.009 C 
ATOM     23  C   UNL     1       4.586   3.463  -6.158  0.00  0.00    -0.012 C 
ATOM     24  C   UNL     1       6.109   3.442  -6.019  0.00  0.00    +0.007 C 
ATOM     25  C   UNL     1       6.612   2.002  -6.134  0.00  0.00    -0.012 C 
ATOM     26  C   UNL     1       5.988   1.154  -5.025  0.00  0.00    -0.009 C 
ATOM     27  C   UNL     1       6.216   1.431  -7.497  0.00  0.00    +0.007 C 
ATOM     28  C   UNL     1       4.693   1.451  -7.636  0.00  0.00    -0.012 C 
ATOM     29  C   UNL     1       4.190   2.892  -7.521  0.00  0.00    +0.007 C 
ATOM     30  C   UNL     1       4.068   0.603  -6.526  0.00  0.00    -0.009 C 
ENDBRANCH  18  21
ENDBRANCH  17  18
ENDBRANCH   3  17
TORSDOF 7
