REMARK  Name = ZINC33416005
REMARK  15 active torsions:
REMARK  status: ('A' for Active; 'I' for Inactive)
REMARK    1  A    between atoms: C_2  and  C_3
REMARK    2  A    between atoms: C_3  and  O_4
REMARK    3  A    between atoms: O_4  and  C_5
REMARK    4  A    between atoms: N_7  and  C_8
REMARK    5  A    between atoms: C_10  and  O_39
REMARK    6  A    between atoms: C_12  and  O_22
REMARK    7  A    between atoms: C_14  and  C_20
REMARK    8  A    between atoms: C_17  and  O_19
REMARK    9  A    between atoms: C_20  and  O_21
REMARK   10  A    between atoms: O_22  and  C_23
REMARK   11  A    between atoms: C_25  and  O_38
REMARK   12  A    between atoms: C_27  and  O_37
REMARK   13  A    between atoms: C_29  and  O_36
REMARK   14  A    between atoms: C_31  and  C_34
REMARK   15  A    between atoms: C_34  and  O_35
REMARK                            x       y       z     vdW  Elec       q    Type
REMARK                         _______ _______ _______ _____ _____    ______ ____
ROOT
ATOM      1  C   UNL     1       3.129  -4.216  -3.489  0.00  0.00    +0.163 C 
ATOM      2  C   UNL     1       2.817  -2.722  -3.611  0.00  0.00    +0.171 C 
ATOM      3  C   UNL     1       2.768  -2.106  -2.209  0.00  0.00    +0.183 C 
ATOM      4  C   UNL     1       4.098  -2.366  -1.498  0.00  0.00    +0.178 C 
ATOM      5  O   UNL     1       4.343  -3.773  -1.447  0.00  0.00    -0.341 OA
ATOM      6  C   UNL     1       4.446  -4.395  -2.730  0.00  0.00    +0.271 C 
ENDROOT
BRANCH   1   9
ATOM      7  C   UNL     1       1.821  -6.199  -2.946  0.00  0.00    +0.401 C 
ATOM      8  O   UNL     1       2.512  -6.831  -3.721  0.00  0.00    -0.226 OA
ATOM      9  N   UNL     1       2.049  -4.884  -2.759  0.00  0.00    -0.271 N 
ATOM     10  H   UNL     1       1.423  -4.312  -2.058  0.00  0.00    +0.153 HD
BRANCH   7  11
ATOM     11  O   UNL     1       0.828  -6.813  -2.275  0.00  0.00    -0.446 OA
BRANCH  11  12
ATOM     12  C   UNL     1       0.641  -8.231  -2.527  0.00  0.00    +0.261 C 
BRANCH  12  14
ATOM     13  C   UNL     1      -1.408  -9.525  -2.231  0.00  0.00    +0.007 C 
ATOM     14  C   UNL     1      -0.507  -8.741  -1.694  0.00  0.00    +0.006 C 
ENDBRANCH  12  14
ENDBRANCH  11  12
ENDBRANCH   7  11
ENDBRANCH   1   9
BRANCH   6  15
ATOM     15  O   UNL     1       4.716  -5.788  -2.563  0.00  0.00    -0.365 OA
ATOM     16  H   UNL     1       5.625  -6.114  -2.037  0.00  0.00    +0.213 HD
ENDBRANCH   6  15
BRANCH   2  17
ATOM     17  O   UNL     1       3.837  -2.080  -4.379  0.00  0.00    -0.387 OA
ATOM     18  H   UNL     1       3.781  -0.999  -4.573  0.00  0.00    +0.210 HD
ENDBRANCH   2  17
BRANCH   4  19
ATOM     19  C   UNL     1       4.034  -1.806  -0.075  0.00  0.00    +0.190 C 
BRANCH  19  20
ATOM     20  O   UNL     1       5.312  -1.942   0.549  0.00  0.00    -0.392 OA
ATOM     21  H   UNL     1       5.461  -1.593   1.581  0.00  0.00    +0.210 HD
ENDBRANCH  19  20
ENDBRANCH   4  19
BRANCH   3  22
ATOM     22  O   UNL     1       2.550  -0.698  -2.313  0.00  0.00    -0.340 OA
BRANCH  22  23
ATOM     23  C   UNL     1       1.178  -0.312  -2.203  0.00  0.00    +0.282 C 
ATOM     24  C   UNL     1       1.085   1.208  -2.053  0.00  0.00    +0.201 C 
ATOM     25  C   UNL     1      -0.390   1.619  -1.996  0.00  0.00    +0.179 C 
ATOM     26  C   UNL     1      -1.098   1.114  -3.257  0.00  0.00    +0.177 C 
ATOM     27  C   UNL     1      -0.921  -0.403  -3.360  0.00  0.00    +0.178 C 
ATOM     28  O   UNL     1       0.473  -0.718  -3.378  0.00  0.00    -0.341 OA
BRANCH  26  29
ATOM     29  O   UNL     1      -0.528   1.741  -4.408  0.00  0.00    -0.386 OA
ATOM     30  H   UNL     1      -0.911   1.501  -5.411  0.00  0.00    +0.210 HD
ENDBRANCH  26  29
BRANCH  25  31
ATOM     31  O   UNL     1      -0.488   3.043  -1.930  0.00  0.00    -0.386 OA
ATOM     32  H   UNL     1      -1.475   3.524  -1.882  0.00  0.00    +0.210 HD
ENDBRANCH  25  31
BRANCH  24  33
ATOM     33  O   UNL     1       1.714   1.838  -3.171  0.00  0.00    -0.384 OA
ATOM     34  H   UNL     1       1.746   2.935  -3.239  0.00  0.00    +0.210 HD
ENDBRANCH  24  33
BRANCH  27  35
ATOM     35  C   UNL     1      -1.574  -0.906  -4.649  0.00  0.00    +0.190 C 
BRANCH  35  36
ATOM     36  O   UNL     1      -1.511  -2.333  -4.689  0.00  0.00    -0.392 OA
ATOM     37  H   UNL     1      -1.933  -2.879  -5.546  0.00  0.00    +0.210 HD
ENDBRANCH  35  36
ENDBRANCH  27  35
ENDBRANCH  22  23
ENDBRANCH   3  22
TORSDOF 15
