REMARK  Name = ZINC47549492
REMARK  5 active torsions:
REMARK  status: ('A' for Active; 'I' for Inactive)
REMARK    1  A    between atoms: C_4  and  N_7
REMARK    2  A    between atoms: N_7  and  C_8
REMARK    3  A    between atoms: N_7  and  C_15
REMARK    4  A    between atoms: C_8  and  C_9
REMARK    5  A    between atoms: C_15  and  C_16
REMARK                            x       y       z     vdW  Elec       q    Type
REMARK                         _______ _______ _______ _____ _____    ______ ____
ROOT
ATOM      1  N   UNL     1       2.842  -0.329  -2.373  0.00  0.00    +0.393 N 
ATOM      2  H   UNL     1       2.109   0.038  -2.961  0.00  0.00    -0.080 HD
ENDROOT
BRANCH   1   6
ATOM      3  C   UNL     1       1.956  -0.871   1.768  0.00  0.00    -0.000 C 
ATOM      4  C   UNL     1       0.877  -0.259   0.872  0.00  0.00    -0.002 C 
ATOM      5  C   UNL     1       1.183  -0.589  -0.591  0.00  0.00    -0.015 C 
ATOM      6  C   UNL     1       2.548  -0.012  -0.969  0.00  0.00    -0.067 C 
ATOM      7  C   UNL     1       3.627  -0.623  -0.072  0.00  0.00    -0.015 C 
ATOM      8  C   UNL     1       3.321  -0.293   1.390  0.00  0.00    -0.002 C 
ENDBRANCH   1   6
BRANCH   1   9
ATOM      9  C   UNL     1       4.125   0.277  -2.754  0.00  0.00    +0.020 C 
BRANCH   9  10
ATOM     10  C   UNL     1       3.996   1.778  -2.737  0.00  0.00    +0.204 C 
ATOM     11  O   UNL     1       2.915   2.292  -2.544  0.00  0.00    -0.277 OA
ATOM     12  N   UNL     1       5.083   2.550  -2.936  0.00  0.00    -0.242 N 
ATOM     13  C   UNL     1       4.968   3.893  -2.921  0.00  0.00    +0.303 C 
ATOM     14  O   UNL     1       3.884   4.408  -2.728  0.00  0.00    -0.253 OA
ATOM     15  N   UNL     1       6.054   4.665  -3.120  0.00  0.00    -0.313 N 
ATOM     16  H   UNL     1       5.948   2.140  -3.091  0.00  0.00    +0.159 HD
ATOM     17  H   UNL     1       6.919   4.254  -3.275  0.00  0.00    +0.146 HD
ATOM     18  H   UNL     1       5.971   5.631  -3.109  0.00  0.00    +0.146 HD
ENDBRANCH   9  10
ENDBRANCH   1   9
BRANCH   1  19
ATOM     19  C   UNL     1       2.920  -1.786  -2.541  0.00  0.00    +0.020 C 
BRANCH  19  20
ATOM     20  C   UNL     1       1.529  -2.352  -2.667  0.00  0.00    +0.204 C 
ATOM     21  O   UNL     1       0.577  -1.607  -2.758  0.00  0.00    -0.277 OA
ATOM     22  N   UNL     1       1.343  -3.687  -2.678  0.00  0.00    -0.242 N 
ATOM     23  C   UNL     1       0.099  -4.194  -2.791  0.00  0.00    +0.303 C 
ATOM     24  O   UNL     1      -0.855  -3.447  -2.882  0.00  0.00    -0.253 OA
ATOM     25  N   UNL     1      -0.086  -5.529  -2.802  0.00  0.00    -0.313 N 
ATOM     26  H   UNL     1       2.105  -4.284  -2.604  0.00  0.00    +0.159 HD
ATOM     27  H   UNL     1       0.675  -6.125  -2.728  0.00  0.00    +0.146 HD
ATOM     28  H   UNL     1      -0.982  -5.893  -2.883  0.00  0.00    +0.146 HD
ENDBRANCH  19  20
ENDBRANCH   1  19
TORSDOF 5
