REMARK  Name = ZINC20153647
REMARK  7 active torsions:
REMARK  status: ('A' for Active; 'I' for Inactive)
REMARK    1  A    between atoms: C_1  and  C_2
REMARK    2  A    between atoms: C_2  and  N_3
REMARK    3  A    between atoms: C_11  and  C_34
REMARK    4  A    between atoms: C_14  and  N_19
REMARK    5  A    between atoms: N_19  and  C_20
REMARK    6  A    between atoms: C_20  and  N_22
REMARK    7  A    between atoms: N_22  and  C_23
REMARK                            x       y       z     vdW  Elec       q    Type
REMARK                         _______ _______ _______ _____ _____    ______ ____
ROOT
ATOM      1  N   UNL     1     -11.104   6.155  -0.558  0.00  0.00    +0.382 N 
ATOM      2  C   UNL     1     -10.165   6.486   0.522  0.00  0.00    -0.060 C 
ATOM      3  C   UNL     1      -8.900   5.636   0.372  0.00  0.00    +0.088 C 
ATOM      4  N   UNL     1      -9.263   4.212   0.411  0.00  0.00    -0.319 N 
ATOM      5  C   UNL     1     -10.203   3.882  -0.670  0.00  0.00    +0.088 C 
ATOM      6  C   UNL     1     -11.467   4.732  -0.520  0.00  0.00    -0.060 C 
ATOM      7  C   UNL     1      -8.133   3.409   0.349  0.00  0.00    +0.122 A 
ATOM      8  C   UNL     1      -8.281   2.015   0.374  0.00  0.00    +0.047 A 
ATOM      9  C   UNL     1      -7.181   1.215   0.315  0.00  0.00    -0.038 A 
ATOM     10  C   UNL     1      -5.913   1.827   0.230  0.00  0.00    +0.005 A 
ATOM     11  C   UNL     1      -4.739   1.060   0.166  0.00  0.00    +0.033 A 
ATOM     12  C   UNL     1      -3.519   1.694   0.083  0.00  0.00    +0.033 A 
ATOM     13  C   UNL     1      -3.442   3.091   0.069  0.00  0.00    +0.025 A 
ATOM     14  C   UNL     1      -4.567   3.853   0.125  0.00  0.00    +0.030 A 
ATOM     15  C   UNL     1      -5.829   3.240   0.209  0.00  0.00    +0.073 A 
ATOM     16  N   UNL     1      -6.946   3.975   0.270  0.00  0.00    -0.232 NA
ATOM     17  C   UNL     1      -7.314  -0.286   0.339  0.00  0.00    +0.044 C 
ATOM     18  H   UNL     1     -10.603   6.353  -1.517  0.00  0.00    -0.082 HD
ENDROOT
BRANCH   1  20
ATOM     19  C   UNL     1     -13.134   6.811  -1.762  0.00  0.00    -0.017 C 
ATOM     20  C   UNL     1     -12.301   7.005  -0.493  0.00  0.00    -0.082 C 
ENDBRANCH   1  20
BRANCH  12  21
ATOM     21  N   UNL     1      -2.345   0.934   0.018  0.00  0.00    -0.297 N 
ATOM     22  H   UNL     1      -2.228   0.048   0.659  0.00  0.00    +0.154 HD
BRANCH  21  23
ATOM     23  C   UNL     1      -1.359   1.288  -0.829  0.00  0.00    +0.135 C 
ATOM     24  S   UNL     1      -1.596   2.581  -1.927  0.00  0.00    -0.019 S 
BRANCH  23  25
ATOM     25  N   UNL     1      -0.186   0.625  -0.813  0.00  0.00    -0.319 N 
ATOM     26  H   UNL     1      -0.032  -0.203  -0.104  0.00  0.00    +0.148 HD
BRANCH  25  27
ATOM     27  C   UNL     1       0.884   1.006  -1.738  0.00  0.00    +0.102 C 
ATOM     28  C   UNL     1       2.232   0.610  -1.139  0.00  0.00    +0.027 C 
ATOM     29  C   UNL     1       3.315   0.815  -2.206  0.00  0.00    +0.007 C 
ATOM     30  C   UNL     1       3.124  -0.239  -3.294  0.00  0.00    +0.035 C 
ATOM     31  C   UNL     1       1.697  -0.250  -3.777  0.00  0.00    -0.042 A 
ATOM     32  C   UNL     1       0.668   0.316  -3.059  0.00  0.00    -0.024 A 
ATOM     33  C   UNL     1      -0.628   0.259  -3.555  0.00  0.00    +0.006 A 
ATOM     34  C   UNL     1      -0.891  -0.355  -4.762  0.00  0.00    +0.000 A 
ATOM     35  C   UNL     1       0.143  -0.918  -5.485  0.00  0.00    +0.000 A 
ATOM     36  C   UNL     1       1.431  -0.865  -4.994  0.00  0.00    +0.004 A 
ENDBRANCH  25  27
ENDBRANCH  23  25
ENDBRANCH  21  23
ENDBRANCH  12  21
TORSDOF 5
