REMARK  Name = ZINC51145072
REMARK  6 active torsions:
REMARK  status: ('A' for Active; 'I' for Inactive)
REMARK    1  A    between atoms: C_1  and  C_2
REMARK    2  A    between atoms: C_7  and  N_10
REMARK    3  A    between atoms: N_10  and  C_11
REMARK    4  A    between atoms: N_10  and  C_12
REMARK    5  A    between atoms: C_12  and  C_13
REMARK    6  A    between atoms: N_22  and  N_23
REMARK                            x       y       z     vdW  Elec       q    Type
REMARK                         _______ _______ _______ _____ _____    ______ ____
ROOT
ATOM      1  C   UNL     1       2.879  -0.593   4.833  0.00  0.00    +0.116 A 
ATOM      2  N   UNL     1       2.882   0.031   5.998  0.00  0.00    -0.218 NA
ATOM      3  C   UNL     1       3.533  -0.442   7.048  0.00  0.00    +0.144 A 
ATOM      4  C   UNL     1       4.256  -1.660   6.926  0.00  0.00    +0.049 A 
ATOM      5  C   UNL     1       5.040  -2.379   7.915  0.00  0.00    +0.021 A 
ATOM      6  C   UNL     1       5.642  -3.526   7.566  0.00  0.00    +0.048 A 
ATOM      7  S   UNL     1       5.190  -3.729   5.853  0.00  0.00    -0.077 S 
ATOM      8  C   UNL     1       4.206  -2.268   5.652  0.00  0.00    +0.113 A 
ATOM      9  N   UNL     1       3.526  -1.728   4.659  0.00  0.00    -0.227 NA
ATOM     10  N   UNL     1       3.512   0.242   8.251  0.00  0.00    -0.267 N 
ATOM     11  H   UNL     1       3.992  -0.110   9.017  0.00  0.00    +0.167 HD
ENDROOT
BRANCH  10  12
ATOM     12  N   UNL     1       2.815   1.412   8.360  0.00  0.00    -0.255 NA
ATOM     13  H   UNL     1       2.892   1.793   9.291  0.00  0.00    +0.140 HD
ATOM     14  H   UNL     1       3.122   2.080   7.669  0.00  0.00    +0.140 HD
ENDBRANCH  10  12
BRANCH   1  15
ATOM     15  C   UNL     1       2.115   0.004   3.680  0.00  0.00    -0.001 C 
BRANCH  15  16
ATOM     16  N   UNL     1       0.736  -0.504   3.691  0.00  0.00    +0.384 N 
ATOM     17  C   UNL     1       0.049  -0.030   4.899  0.00  0.00    -0.095 C 
ATOM     18  H   UNL     1       0.750  -1.513   3.685  0.00  0.00    -0.081 HD
BRANCH  16  24
ATOM     19  C   UNL     1      -0.019   1.526   0.010  0.00  0.00    +0.007 C 
ATOM     20  C   UNL     1       0.002  -0.004   0.002  0.00  0.00    -0.016 C 
ATOM     21  C   UNL     1      -1.433  -0.534   0.013  0.00  0.00    +0.003 C 
ATOM     22  C   UNL     1      -2.149  -0.040   1.272  0.00  0.00    -0.001 C 
ATOM     23  C   UNL     1      -1.409  -0.547   2.511  0.00  0.00    -0.015 C 
ATOM     24  C   UNL     1       0.026  -0.018   2.500  0.00  0.00    -0.068 C 
ATOM     25  C   UNL     1       0.742  -0.511   1.242  0.00  0.00    -0.012 C 
ENDBRANCH  16  24
ENDBRANCH  15  16
ENDBRANCH   1  15
TORSDOF 4
