REMARK  Name = ZINC37007986
REMARK  6 active torsions:
REMARK  status: ('A' for Active; 'I' for Inactive)
REMARK    1  A    between atoms: C_1  and  C_2
REMARK    2  A    between atoms: C_2  and  C_3
REMARK    3  A    between atoms: C_2  and  C_4
REMARK    4  A    between atoms: C_4  and  C_6
REMARK    5  A    between atoms: C_4  and  N_20
REMARK    6  A    between atoms: N_8  and  C_9
REMARK                            x       y       z     vdW  Elec       q    Type
REMARK                         _______ _______ _______ _____ _____    ______ ____
ROOT
ATOM      1  C   UNL     1      -1.419  -2.041   0.004  0.00  0.00    +0.203 C 
ATOM      2  O   UNL     1      -1.579  -2.656   1.037  0.00  0.00    -0.277 OA
ATOM      3  N   UNL     1      -1.212  -2.705  -1.150  0.00  0.00    -0.286 N 
ATOM      4  H   UNL     1      -1.149  -2.217  -1.986  0.00  0.00    +0.155 HD
ENDROOT
BRANCH   3   5
ATOM      5  C   UNL     1      -1.088  -4.101  -1.143  0.00  0.00    +0.056 A 
ATOM      6  C   UNL     1      -1.828  -4.859  -0.246  0.00  0.00    +0.074 A 
ATOM      7  C   UNL     1      -1.706  -6.240  -0.238  0.00  0.00    +0.164 A 
ATOM      8  C   UNL     1      -0.844  -6.864  -1.132  0.00  0.00    +0.164 A 
ATOM      9  C   UNL     1      -0.105  -6.104  -2.027  0.00  0.00    +0.071 A 
ATOM     10  C   UNL     1      -0.230  -4.728  -2.037  0.00  0.00    +0.066 A 
ATOM     11 CL   UNL     1       0.691  -3.781  -3.164  0.00  0.00    -0.082 Cl
ATOM     12  O   UNL     1      -0.716  -8.220  -1.145  0.00  0.00    -0.485 OA
ATOM     13  C   UNL     1      -1.188  -8.922   0.010  0.00  0.00    +0.270 C 
ATOM     14  C   UNL     1      -2.571  -8.368   0.378  0.00  0.00    +0.270 C 
ATOM     15  O   UNL     1      -2.435  -6.969   0.651  0.00  0.00    -0.485 OA
ENDBRANCH   3   5
BRANCH   1  16
ATOM     16  C   UNL     1      -1.451  -0.534   0.011  0.00  0.00    +0.016 C 
BRANCH  16  17
ATOM     17  N   UNL     1      -2.143  -0.065   1.218  0.00  0.00    +0.386 N 
ATOM     18  H   UNL     1      -2.165   0.944   1.223  0.00  0.00    -0.089 HD
ATOM     19  H   UNL     1      -3.087  -0.421   1.225  0.00  0.00    -0.089 HD
ATOM     20  H   UNL     1      -1.653  -0.395   2.037  0.00  0.00    -0.089 HD
ENDBRANCH  16  17
BRANCH  16  22
ATOM     21  C   UNL     1      -0.052   1.536   0.008  0.00  0.00    +0.006 C 
ATOM     22  C   UNL     1      -0.020   0.006   0.001  0.00  0.00    -0.023 C 
ATOM     23  C   UNL     1       0.723  -0.494   1.241  0.00  0.00    +0.006 C 
ENDBRANCH  16  22
ENDBRANCH   1  16
TORSDOF 4
