REMARK  Name = ZINC18406257
REMARK  7 active torsions:
REMARK  status: ('A' for Active; 'I' for Inactive)
REMARK    1  A    between atoms: C_1  and  C_2
REMARK    2  A    between atoms: C_2  and  C_4
REMARK    3  A    between atoms: C_2  and  O_15
REMARK    4  A    between atoms: N_9  and  C_10
REMARK    5  A    between atoms: O_15  and  C_16
REMARK    6  A    between atoms: C_16  and  C_18
REMARK    7  A    between atoms: C_23  and  N_24
REMARK                            x       y       z     vdW  Elec       q    Type
REMARK                         _______ _______ _______ _____ _____    ______ ____
ROOT
ATOM      1  C   UNL     1       8.302   2.892  -0.487  0.00  0.00    +0.062 C 
ATOM      2  C   UNL     1       8.209   2.078   0.805  0.00  0.00    +0.259 C 
ENDROOT
BRANCH   2   3
ATOM      3  C   UNL     1       6.776   2.034   1.269  0.00  0.00    +0.261 C 
ATOM      4  O   UNL     1       6.461   2.562   2.314  0.00  0.00    -0.271 OA
ATOM      5  N   UNL     1       5.845   1.408   0.523  0.00  0.00    -0.237 N 
ATOM      6  C   UNL     1       4.563   1.369   0.938  0.00  0.00    +0.306 C 
ATOM      7  O   UNL     1       4.247   1.899   1.985  0.00  0.00    -0.252 OA
ATOM      8  N   UNL     1       3.632   0.743   0.192  0.00  0.00    -0.296 N 
ATOM      9  H   UNL     1       6.097   0.985  -0.313  0.00  0.00    +0.159 HD
ATOM     10  H   UNL     1       3.884   0.320  -0.644  0.00  0.00    +0.151 HD
BRANCH   8  11
ATOM     11  C   UNL     1       2.239   0.700   0.643  0.00  0.00    +0.074 C 
ATOM     12  C   UNL     1       1.440   1.899   0.072  0.00  0.00    +0.022 C 
ATOM     13  C   UNL     1      -0.026   1.420   0.092  0.00  0.00    +0.002 C 
ATOM     14  C   UNL     1       0.014  -0.118   0.070  0.00  0.00    +0.002 C 
ATOM     15  C   UNL     1       1.503  -0.520   0.038  0.00  0.00    +0.022 C 
ENDBRANCH   8  11
ENDBRANCH   2   3
BRANCH   2  16
ATOM     16  O   UNL     1       9.031   2.699   1.828  0.00  0.00    -0.449 OA
BRANCH  16  17
ATOM     17  C   UNL     1      10.315   2.297   1.909  0.00  0.00    +0.342 C 
ATOM     18  O   UNL     1      10.736   1.451   1.145  0.00  0.00    -0.245 OA
BRANCH  17  19
ATOM     19  C   UNL     1      11.207   2.884   2.923  0.00  0.00    +0.081 A 
ATOM     20  C   UNL     1      10.765   3.943   3.722  0.00  0.00    +0.017 A 
ATOM     21  C   UNL     1      11.604   4.487   4.669  0.00  0.00    +0.002 A 
ATOM     22  C   UNL     1      12.887   3.990   4.836  0.00  0.00    +0.022 A 
ATOM     23  C   UNL     1      13.340   2.946   4.056  0.00  0.00    +0.062 A 
ATOM     24  C   UNL     1      12.506   2.380   3.098  0.00  0.00    +0.057 A 
ATOM     25 CL   UNL     1      14.949   2.333   4.276  0.00  0.00    -0.082 Cl
BRANCH  24  26
ATOM     26  N   UNL     1      12.956   1.325   2.315  0.00  0.00    -0.356 N 
ATOM     27  H   UNL     1      13.907   1.206   2.162  0.00  0.00    +0.142 HD
ATOM     28  H   UNL     1      12.321   0.707   1.921  0.00  0.00    +0.142 HD
ENDBRANCH  24  26
ENDBRANCH  17  19
ENDBRANCH  16  17
ENDBRANCH   2  16
TORSDOF 6
