REMARK  Name = ZINC39532120
REMARK  8 active torsions:
REMARK  status: ('A' for Active; 'I' for Inactive)
REMARK    1  A    between atoms: C_1  and  C_2
REMARK    2  A    between atoms: C_2  and  C_3
REMARK    3  A    between atoms: C_6  and  C_9
REMARK    4  A    between atoms: C_9  and  C_11
REMARK    5  A    between atoms: C_9  and  N_14
REMARK    6  A    between atoms: C_11  and  N_12
REMARK    7  A    between atoms: C_18  and  C_21
REMARK    8  A    between atoms: C_26  and  O_27
REMARK                            x       y       z     vdW  Elec       q    Type
REMARK                         _______ _______ _______ _____ _____    ______ ____
ROOT
ATOM      1  N   UNL     1       4.047  -1.279  -4.873  0.00  0.00    -0.297 NA
ATOM      2  C   UNL     1       3.978   0.189  -4.893  0.00  0.00    +0.066 C 
ATOM      3  C   UNL     1       5.395   0.762  -4.959  0.00  0.00    -0.066 C 
ATOM      4  N   UNL     1       6.067   0.270  -6.169  0.00  0.00    +0.385 N 
ATOM      5  C   UNL     1       6.150  -1.196  -6.122  0.00  0.00    -0.023 C 
ATOM      6  C   UNL     1       4.740  -1.786  -6.066  0.00  0.00    +0.074 C 
ATOM      7  H   UNL     1       5.541   0.551  -6.983  0.00  0.00    -0.085 HD
ATOM      8  H   UNL     1       6.997   0.659  -6.218  0.00  0.00    -0.085 HD
ENDROOT
BRANCH   5   9
ATOM      9  C   UNL     1       6.856  -1.697  -7.356  0.00  0.00    -0.019 A 
ATOM     10  C   UNL     1       6.944  -0.895  -8.477  0.00  0.00    +0.005 A 
ATOM     11  C   UNL     1       7.590  -1.355  -9.609  0.00  0.00    +0.000 A 
ATOM     12  C   UNL     1       8.151  -2.619  -9.622  0.00  0.00    +0.004 A 
ATOM     13  C   UNL     1       8.067  -3.425  -8.504  0.00  0.00    +0.045 A 
ATOM     14  C   UNL     1       7.423  -2.963  -7.365  0.00  0.00    +0.118 A 
BRANCH  14  15
ATOM     15  O   UNL     1       7.343  -3.752  -6.261  0.00  0.00    -0.507 OA
ATOM     16  H   UNL     1       6.560  -4.319  -6.238  0.00  0.00    +0.292 HD
ENDBRANCH  14  15
ENDBRANCH   5   9
BRANCH   1  17
ATOM     17  C   UNL     1       2.707  -1.868  -4.752  0.00  0.00    +0.101 C 
BRANCH  17  21
ATOM     18  C   UNL     1       2.920  -5.430  -2.404  0.00  0.00    -0.048 A 
ATOM     19  C   UNL     1       1.911  -4.513  -2.178  0.00  0.00    +0.004 A 
ATOM     20  C   UNL     1       1.842  -3.360  -2.938  0.00  0.00    +0.005 A 
ATOM     21  C   UNL     1       2.783  -3.124  -3.923  0.00  0.00    -0.029 A 
ATOM     22  C   UNL     1       3.792  -4.042  -4.149  0.00  0.00    +0.005 A 
ATOM     23  C   UNL     1       3.864  -5.192  -3.386  0.00  0.00    +0.004 A 
BRANCH  18  25
ATOM     24  C   UNL     1       3.850  -6.429  -0.334  0.00  0.00    +0.009 C 
ATOM     25  C   UNL     1       2.996  -6.687  -1.576  0.00  0.00    +0.032 C 
ENDBRANCH  18  25
ENDBRANCH  17  21
BRANCH  17  26
ATOM     26  C   UNL     1       2.172  -2.208  -6.145  0.00  0.00    +0.117 C 
BRANCH  26  27
ATOM     27  N   UNL     1       2.156  -0.994  -6.972  0.00  0.00    -0.254 NA
ATOM     28 BR   UNL     1       1.514  -1.357  -8.669  0.00  0.00    +0.010 Br
ATOM     29  H   UNL     1       1.618  -0.263  -6.531  0.00  0.00    +0.135 HD
ENDBRANCH  26  27
ENDBRANCH  17  26
ENDBRANCH   1  17
TORSDOF 7
