REMARK  Name = ZINC38057754
REMARK  3 active torsions:
REMARK  status: ('A' for Active; 'I' for Inactive)
REMARK    1  A    between atoms: C_6  and  C_7
REMARK    2  A    between atoms: C_7  and  C_9
REMARK    3  A    between atoms: C_7  and  N_16
REMARK                            x       y       z     vdW  Elec       q    Type
REMARK                         _______ _______ _______ _____ _____    ______ ____
ROOT
ATOM      1  C   UNL     1      -1.293  -0.775   0.008  0.00  0.00    -0.012 C 
ENDROOT
BRANCH   1   7
ATOM      2  C   UNL     1      -0.017   1.378   0.010  0.00  0.00    +0.006 A 
ATOM      3  C   UNL     1       1.170   2.084   0.002  0.00  0.00    +0.046 A 
ATOM      4  C   UNL     1       2.385   1.408  -0.012  0.00  0.00    +0.124 A 
ATOM      5  C   UNL     1       2.401   0.024  -0.016  0.00  0.00    -0.005 A 
ATOM      6  C   UNL     1       1.208  -0.678  -0.011  0.00  0.00    +0.009 A 
ATOM      7  C   UNL     1       0.002  -0.004   0.002  0.00  0.00    -0.057 A 
ATOM      8  C   UNL     1       3.697  -0.747  -0.020  0.00  0.00    +0.042 C 
ATOM      9  C   UNL     1       4.841   0.170  -0.461  0.00  0.00    +0.046 C 
ATOM     10  C   UNL     1       4.746   1.477   0.336  0.00  0.00    +0.229 C 
ATOM     11  O   UNL     1       3.532   2.137  -0.024  0.00  0.00    -0.492 OA
ENDBRANCH   1   7
BRANCH   1  12
ATOM     12  C   UNL     1      -1.839  -0.828   1.411  0.00  0.00    -0.038 A 
ATOM     13  C   UNL     1      -1.657  -1.958   2.194  0.00  0.00    +0.020 A 
ATOM     14  C   UNL     1      -2.178  -1.962   3.479  0.00  0.00    +0.036 A 
ATOM     15  C   UNL     1      -2.857  -0.846   3.934  0.00  0.00    +0.126 A 
ATOM     16  N   UNL     1      -3.011   0.211   3.161  0.00  0.00    -0.262 NA
ATOM     17  C   UNL     1      -2.524   0.251   1.936  0.00  0.00    +0.113 A 
ATOM     18 BR   UNL     1      -1.962  -3.473   4.596  0.00  0.00    -0.049 Br
ENDBRANCH   1  12
BRANCH   1  19
ATOM     19  N   UNL     1      -2.263  -0.110  -0.871  0.00  0.00    +0.385 N 
ATOM     20  H   UNL     1      -2.429   0.829  -0.539  0.00  0.00    -0.089 HD
ATOM     21  H   UNL     1      -1.897  -0.074  -1.811  0.00  0.00    -0.089 HD
ATOM     22  H   UNL     1      -3.130  -0.626  -0.867  0.00  0.00    -0.089 HD
ENDBRANCH   1  19
TORSDOF 3
