REMARK  Name = ZINC36813006
REMARK  5 active torsions:
REMARK  status: ('A' for Active; 'I' for Inactive)
REMARK    1  A    between atoms: C_3  and  C_6
REMARK    2  A    between atoms: C_6  and  C_7
REMARK    3  A    between atoms: C_7  and  N_8
REMARK    4  A    between atoms: N_8  and  C_9
REMARK    5  A    between atoms: C_18  and  N_19
REMARK                            x       y       z     vdW  Elec       q    Type
REMARK                         _______ _______ _______ _____ _____    ______ ____
ROOT
ATOM      1  C   UNL     1       6.253   2.849   2.601  0.00  0.00    +0.059 A 
ATOM      2  C   UNL     1       7.379   3.702   2.621  0.00  0.00    +0.022 A 
ATOM      3  C   UNL     1       7.889   4.264   1.442  0.00  0.00    +0.027 A 
ATOM      4  C   UNL     1       8.977   5.083   1.500  0.00  0.00    +0.019 A 
ATOM      5  C   UNL     1       9.589   5.370   2.720  0.00  0.00    +0.017 A 
ATOM      6  C   UNL     1       9.120   4.841   3.882  0.00  0.00    +0.027 A 
ATOM      7  C   UNL     1       7.999   3.992   3.861  0.00  0.00    +0.048 A 
ATOM      8  N   UNL     1       7.518   3.461   4.991  0.00  0.00    -0.359 N 
ATOM      9  C   UNL     1       6.473   2.666   4.990  0.00  0.00    +0.107 A 
ATOM     10  C   UNL     1       5.804   2.336   3.813  0.00  0.00    +0.062 A 
ATOM     11 BR   UNL     1       9.664   5.839  -0.091  0.00  0.00    -0.050 Br
ATOM     12  H   UNL     1       7.953   3.668   5.833  0.00  0.00    +0.165 HD
ENDROOT
BRANCH  10  13
ATOM     13  N   UNL     1       4.687   1.489   3.851  0.00  0.00    -0.355 N 
ATOM     14  H   UNL     1       4.277   1.190   3.024  0.00  0.00    +0.142 HD
ATOM     15  H   UNL     1       4.324   1.202   4.703  0.00  0.00    +0.142 HD
ENDBRANCH  10  13
BRANCH   1  16
ATOM     16  N   UNL     1       5.611   2.535   1.407  0.00  0.00    -0.342 N 
ATOM     17  H   UNL     1       5.816   1.705   0.950  0.00  0.00    +0.146 HD
BRANCH  16  18
ATOM     18  C   UNL     1       4.626   3.460   0.841  0.00  0.00    +0.107 C 
BRANCH  18  19
ATOM     19  C   UNL     1       5.045   3.843  -0.580  0.00  0.00    +0.061 C 
BRANCH  19  22
ATOM     20  C   UNL     1       2.964   6.821  -1.726  0.00  0.00    +0.008 A 
ATOM     21  C   UNL     1       4.003   6.149  -1.112  0.00  0.00    +0.011 A 
ATOM     22  C   UNL     1       4.031   4.794  -1.163  0.00  0.00    -0.009 A 
ATOM     23  S   UNL     1       2.556   4.430  -2.100  0.00  0.00    -0.102 S 
ATOM     24  C   UNL     1       2.002   6.107  -2.360  0.00  0.00    +0.045 A 
ENDBRANCH  19  22
ENDBRANCH  18  19
ENDBRANCH  16  18
ENDBRANCH   1  16
TORSDOF 5
