REMARK  Name = ZINC28728316
REMARK  9 active torsions:
REMARK  status: ('A' for Active; 'I' for Inactive)
REMARK    1  A    between atoms: C_1  and  N_2
REMARK    2  A    between atoms: N_2  and  C_3
REMARK    3  A    between atoms: N_2  and  C_21
REMARK    4  A    between atoms: C_3  and  C_4
REMARK    5  A    between atoms: N_6  and  C_15
REMARK    6  A    between atoms: C_8  and  C_9
REMARK    7  A    between atoms: C_21  and  C_22
REMARK    8  A    between atoms: N_24  and  C_25
REMARK    9  A    between atoms: C_26  and  C_32
REMARK                            x       y       z     vdW  Elec       q    Type
REMARK                         _______ _______ _______ _____ _____    ______ ____
ROOT
ATOM      1  C   UNL     1       8.031   5.513   2.301  0.00  0.00    -0.095 C 
ATOM      2  N   UNL     1       6.735   5.142   1.717  0.00  0.00    +0.386 N 
ATOM      3  H   UNL     1       6.741   5.446   0.659  0.00  0.00    -0.081 HD
ENDROOT
BRANCH   2   4
ATOM      4  C   UNL     1       5.634   5.850   2.384  0.00  0.00    -0.039 C 
BRANCH   4   5
ATOM      5  C   UNL     1       5.745   7.327   2.103  0.00  0.00    -0.018 A 
ATOM      6  C   UNL     1       6.257   8.258   2.937  0.00  0.00    +0.116 A 
ATOM      7  N   UNL     1       6.174   9.464   2.315  0.00  0.00    -0.239 N 
ATOM      8  N   UNL     1       5.597   9.263   1.055  0.00  0.00    -0.166 NA
ATOM      9  C   UNL     1       5.331   7.980   0.925  0.00  0.00    +0.094 A 
BRANCH   9  10
ATOM     10  C   UNL     1       4.711   7.334  -0.258  0.00  0.00    +0.002 A 
ATOM     11  C   UNL     1       3.733   8.006  -0.989  0.00  0.00    +0.010 A 
ATOM     12  C   UNL     1       3.160   7.400  -2.089  0.00  0.00    +0.001 A 
ATOM     13  C   UNL     1       3.554   6.129  -2.466  0.00  0.00    +0.000 A 
ATOM     14  C   UNL     1       4.524   5.457  -1.743  0.00  0.00    +0.001 A 
ATOM     15  C   UNL     1       5.104   6.053  -0.641  0.00  0.00    +0.010 A 
ENDBRANCH   9  10
BRANCH   7  16
ATOM     16  C   UNL     1       6.598  10.691   2.841  0.00  0.00    +0.065 A 
ATOM     17  C   UNL     1       7.158  10.749   4.110  0.00  0.00    +0.028 A 
ATOM     18  C   UNL     1       7.580  11.960   4.623  0.00  0.00    +0.002 A 
ATOM     19  C   UNL     1       7.435  13.116   3.878  0.00  0.00    +0.000 A 
ATOM     20  C   UNL     1       6.873  13.063   2.616  0.00  0.00    +0.002 A 
ATOM     21  C   UNL     1       6.455  11.854   2.095  0.00  0.00    +0.028 A 
ENDBRANCH   7  16
ENDBRANCH   4   5
ENDBRANCH   2   4
BRANCH   2  22
ATOM     22  C   UNL     1       6.532   3.688   1.767  0.00  0.00    +0.019 C 
BRANCH  22  23
ATOM     23  C   UNL     1       7.536   3.009   0.871  0.00  0.00    +0.201 C 
ATOM     24  O   UNL     1       8.342   3.671   0.252  0.00  0.00    -0.278 OA
ATOM     25  N   UNL     1       7.539   1.666   0.758  0.00  0.00    -0.285 N 
ATOM     26  H   UNL     1       6.864   1.060   1.381  0.00  0.00    +0.155 HD
BRANCH  25  27
ATOM     27  C   UNL     1       8.400   1.042  -0.151  0.00  0.00    +0.064 A 
ATOM     28  C   UNL     1       9.622   0.541   0.278  0.00  0.00    +0.077 A 
ATOM     29  C   UNL     1      10.467  -0.079  -0.621  0.00  0.00    +0.014 A 
ATOM     30  C   UNL     1      10.104  -0.191  -1.951  0.00  0.00    +0.002 A 
ATOM     31  C   UNL     1       8.890   0.311  -2.384  0.00  0.00    +0.022 A 
ATOM     32  C   UNL     1       8.037   0.927  -1.488  0.00  0.00    +0.063 A 
ATOM     33 CL   UNL     1       6.513   1.557  -2.032  0.00  0.00    -0.082 Cl
BRANCH  28  34
ATOM     34  C   UNL     1      10.023   0.669   1.725  0.00  0.00    +0.419 C 
ATOM     35  F   UNL     1      11.284   0.095   1.912  0.00  0.00    -0.166 F 
ATOM     36  F   UNL     1      10.069   2.022   2.079  0.00  0.00    -0.166 F 
ATOM     37  F   UNL     1       9.086   0.009   2.528  0.00  0.00    -0.166 F 
ENDBRANCH  28  34
ENDBRANCH  25  27
ENDBRANCH  22  23
ENDBRANCH   2  22
TORSDOF 8
