REMARK  Name = ZINC30826585
REMARK  6 active torsions:
REMARK  status: ('A' for Active; 'I' for Inactive)
REMARK    1  A    between atoms: C_1  and  N_2
REMARK    2  A    between atoms: N_5  and  C_8
REMARK    3  A    between atoms: C_9  and  N_15
REMARK    4  A    between atoms: C_16  and  C_18
REMARK    5  A    between atoms: C_27  and  O_28
REMARK    6  A    between atoms: O_28  and  C_29
REMARK                            x       y       z     vdW  Elec       q    Type
REMARK                         _______ _______ _______ _____ _____    ______ ____
ROOT
ATOM      1  N   UNL     1       3.621  -0.665  -0.035  0.00  0.00    -0.280 N 
ATOM      2  C   UNL     1       3.746  -1.832   0.627  0.00  0.00    +0.252 C 
ATOM      3  O   UNL     1       2.776  -2.335   1.161  0.00  0.00    -0.270 OA
ATOM      4  H   UNL     1       4.481  -0.247  -0.580  0.00  0.00    +0.155 HD
ENDROOT
BRANCH   2   5
ATOM      5  C   UNL     1       5.060  -2.500   0.704  0.00  0.00    +0.080 A 
ATOM      6  C   UNL     1       6.162  -1.923   0.094  0.00  0.00    +0.025 A 
ATOM      7  C   UNL     1       7.407  -2.562   0.170  0.00  0.00    -0.016 A 
ATOM      8  C   UNL     1       8.548  -2.004  -0.437  0.00  0.00    +0.008 A 
ATOM      9  C   UNL     1       9.743  -2.648  -0.345  0.00  0.00    +0.001 A 
ATOM     10  C   UNL     1       9.857  -3.855   0.343  0.00  0.00    +0.001 A 
ATOM     11  C   UNL     1       8.776  -4.425   0.943  0.00  0.00    +0.010 A 
ATOM     12  C   UNL     1       7.524  -3.791   0.871  0.00  0.00    -0.000 A 
ATOM     13  C   UNL     1       6.391  -4.355   1.481  0.00  0.00    +0.068 A 
ATOM     14  C   UNL     1       5.186  -3.719   1.403  0.00  0.00    +0.147 A 
ATOM     15 BR   UNL     1       6.537  -5.992   2.417  0.00  0.00    -0.046 Br
BRANCH  14  16
ATOM     16  O   UNL     1       4.097  -4.267   2.000  0.00  0.00    -0.493 OA
ATOM     17  C   UNL     1       3.313  -5.170   1.216  0.00  0.00    +0.277 C 
ENDBRANCH  14  16
ENDBRANCH   2   5
BRANCH   1  19
ATOM     18  C   UNL     1       2.373   1.411  -0.028  0.00  0.00    +0.070 A 
ATOM     19  C   UNL     1       2.397   0.016  -0.029  0.00  0.00    +0.056 A 
ATOM     20  C   UNL     1       1.206  -0.694  -0.025  0.00  0.00    +0.025 A 
ATOM     21  C   UNL     1      -0.001  -0.021  -0.019  0.00  0.00    +0.003 A 
ATOM     22  C   UNL     1      -0.026   1.362  -0.018  0.00  0.00    +0.022 A 
ATOM     23  C   UNL     1       1.157   2.079  -0.023  0.00  0.00    +0.064 A 
ATOM     24 CL   UNL     1       1.120   3.815  -0.022  0.00  0.00    -0.082 Cl
BRANCH  18  29
ATOM     25  C   UNL     1       6.420   5.254  -0.002  0.00  0.00    -0.096 C 
ATOM     26  N   UNL     1       5.162   4.495   0.003  0.00  0.00    +0.380 N 
ATOM     27  C   UNL     1       5.019   3.705  -1.228  0.00  0.00    -0.060 C 
ATOM     28  C   UNL     1       3.664   2.994  -1.221  0.00  0.00    +0.086 C 
ATOM     29  N   UNL     1       3.572   2.134  -0.033  0.00  0.00    -0.331 N 
ATOM     30  C   UNL     1       3.714   2.924   1.198  0.00  0.00    +0.086 C 
ATOM     31  C   UNL     1       5.069   3.635   1.191  0.00  0.00    -0.060 C 
ATOM     32  H   UNL     1       4.333   5.217   0.041  0.00  0.00    -0.082 HD
ENDBRANCH  18  29
ENDBRANCH   1  19
TORSDOF 4
