REMARK  Name = ZINC64312709
REMARK  10 active torsions:
REMARK  status: ('A' for Active; 'I' for Inactive)
REMARK    1  A    between atoms: C_1  and  C_2
REMARK    2  A    between atoms: C_2  and  C_3
REMARK    3  A    between atoms: C_3  and  C_4
REMARK    4  A    between atoms: C_4  and  C_5
REMARK    5  A    between atoms: C_4  and  N_23
REMARK    6  A    between atoms: N_7  and  C_8
REMARK    7  A    between atoms: C_8  and  C_9
REMARK    8  A    between atoms: C_8  and  C_10
REMARK    9  A    between atoms: C_13  and  N_16
REMARK   10  A    between atoms: N_19  and  C_22
REMARK                            x       y       z     vdW  Elec       q    Type
REMARK                         _______ _______ _______ _____ _____    ______ ____
ROOT
ATOM      1  C   UNL     1       1.426  -2.717   4.942  0.00  0.00    +0.100 C 
ATOM      2  C   UNL     1       0.929  -4.132   5.246  0.00  0.00    +0.033 C 
ENDROOT
BRANCH   1   3
ATOM      3  C   UNL     1       1.050  -1.799   6.076  0.00  0.00    -0.027 A 
ATOM      4  C   UNL     1      -0.237  -1.298   6.160  0.00  0.00    +0.007 A 
ATOM      5  C   UNL     1      -0.585  -0.456   7.198  0.00  0.00    +0.023 A 
ATOM      6  C   UNL     1       0.359  -0.112   8.158  0.00  0.00    +0.030 A 
ATOM      7  C   UNL     1       1.650  -0.617   8.070  0.00  0.00    +0.023 A 
ATOM      8  C   UNL     1       1.990  -1.463   7.033  0.00  0.00    +0.007 A 
BRANCH   6   9
ATOM      9  N   UNL     1       0.010   0.740   9.209  0.00  0.00    -0.333 N 
ATOM     10  C   UNL     1       0.957   1.023  10.298  0.00  0.00    +0.086 C 
ATOM     11  C   UNL     1       1.044   2.542  10.483  0.00  0.00    -0.060 C 
ATOM     12  N   UNL     1      -0.304   3.086  10.694  0.00  0.00    +0.380 N 
ATOM     13  C   UNL     1      -1.120   2.881   9.491  0.00  0.00    -0.060 C 
ATOM     14  C   UNL     1      -1.312   1.384   9.253  0.00  0.00    +0.086 C 
ATOM     15  C   UNL     1      -0.210   4.524  10.980  0.00  0.00    -0.096 C 
ATOM     16  H   UNL     1      -0.736   2.618  11.476  0.00  0.00    -0.082 HD
ENDBRANCH   6   9
ENDBRANCH   1   3
BRANCH   1  19
ATOM     17  C   UNL     1       1.363  -2.549   2.512  0.00  0.00    +0.234 C 
ATOM     18  O   UNL     1       2.370  -3.224   2.469  0.00  0.00    -0.274 OA
ATOM     19  N   UNL     1       0.811  -2.239   3.702  0.00  0.00    -0.307 N 
ATOM     20  H   UNL     1       0.005  -1.700   3.736  0.00  0.00    +0.149 HD
BRANCH  17  21
ATOM     21  C   UNL     1       0.730  -2.058   1.236  0.00  0.00    +0.160 C 
BRANCH  21  22
ATOM     22  N   UNL     1       1.514  -2.526   0.090  0.00  0.00    -0.288 N 
ATOM     23  C   UNL     1       0.928  -2.664  -1.116  0.00  0.00    +0.298 C 
ATOM     24  O   UNL     1      -0.251  -2.401  -1.252  0.00  0.00    -0.253 OA
ATOM     25  N   UNL     1       1.649  -3.095  -2.170  0.00  0.00    -0.313 N 
ATOM     26  H   UNL     1       2.455  -2.736   0.199  0.00  0.00    +0.151 HD
ATOM     27  H   UNL     1       2.590  -3.304  -2.061  0.00  0.00    +0.146 HD
ATOM     28  H   UNL     1       1.228  -3.194  -3.038  0.00  0.00    +0.146 HD
ENDBRANCH  21  22
BRANCH  21  29
ATOM     29  C   UNL     1       0.696  -0.528   1.240  0.00  0.00    +0.031 C 
BRANCH  29  31
ATOM     30  C   UNL     1      -0.092   1.498   0.009  0.00  0.00    +0.004 C 
ATOM     31  C   UNL     1      -0.058  -0.032   0.004  0.00  0.00    -0.001 C 
ENDBRANCH  29  31
ENDBRANCH  21  29
ENDBRANCH  17  21
ENDBRANCH   1  19
TORSDOF 7
