REMARK  Name = ZINC67558896
REMARK  10 active torsions:
REMARK  status: ('A' for Active; 'I' for Inactive)
REMARK    1  A    between atoms: C_3  and  C_9
REMARK    2  A    between atoms: C_9  and  N_10
REMARK    3  A    between atoms: C_14  and  C_17
REMARK    4  A    between atoms: C_14  and  O_24
REMARK    5  A    between atoms: C_17  and  N_18
REMARK    6  A    between atoms: N_18  and  CA_19
REMARK    7  A    between atoms: CA_19  and  CB_20
REMARK    8  A    between atoms: CA_19  and  C_22
REMARK    9  A    between atoms: CB_20  and  OG_21
REMARK   10  A    between atoms: C_22  and  O_23
REMARK                            x       y       z     vdW  Elec       q    Type
REMARK                         _______ _______ _______ _____ _____    ______ ____
ROOT
ATOM      1  N   UNL     1       4.243   1.978   1.238  0.00  0.00    -0.295 N 
ATOM      2  C   UNL     1       3.902   3.090   2.117  0.00  0.00    +0.108 C 
ATOM      3  C   UNL     1       4.271   2.761   3.564  0.00  0.00    +0.022 C 
ATOM      4  C   UNL     1       5.724   2.274   3.602  0.00  0.00    +0.044 C 
ATOM      5  C   UNL     1       5.801   0.924   2.884  0.00  0.00    +0.127 C 
ATOM      6  C   UNL     1       5.102   1.009   1.558  0.00  0.00    +0.246 C 
ATOM      7  O   UNL     1       5.335   0.154   0.730  0.00  0.00    -0.273 OA
ENDROOT
BRANCH   5   8
ATOM      8  O   UNL     1       5.168  -0.076   3.685  0.00  0.00    -0.381 OA
ATOM      9  H   UNL     1       4.235   0.098   3.867  0.00  0.00    +0.211 HD
ENDBRANCH   5   8
BRANCH   1  10
ATOM     10  C   UNL     1       3.598   1.918  -0.075  0.00  0.00    +0.146 C 
BRANCH  10  13
ATOM     11  C   UNL     1      -0.081   1.086   0.113  0.00  0.00    +0.003 A 
ATOM     12  C   UNL     1       1.099   1.800   0.015  0.00  0.00    +0.008 A 
ATOM     13  C   UNL     1       2.312   1.138   0.032  0.00  0.00    +0.008 A 
ATOM     14  C   UNL     1       2.347  -0.241   0.146  0.00  0.00    +0.163 A 
ATOM     15  C   UNL     1       1.164  -0.957   0.244  0.00  0.00    +0.159 A 
ATOM     16  C   UNL     1      -0.049  -0.291   0.227  0.00  0.00    +0.041 A 
ATOM     17  F   UNL     1       1.196  -2.303   0.356  0.00  0.00    -0.202 F 
ATOM     18  F   UNL     1       3.533  -0.888   0.162  0.00  0.00    -0.202 F 
ENDBRANCH  10  13
ENDBRANCH   1  10
BRANCH   5  19
ATOM     19  C   ACE A   0       7.267   0.546   2.667  0.00  0.00    -0.037 C 
BRANCH  19  20
ATOM     20  N   UNL     1       7.945   0.446   3.966  0.00  0.00    +0.386 N 
ATOM     21  H1  UNL     1       7.818   1.306   4.479  0.00  0.00    -0.085 HD
ATOM     22  H2  UNL     1       7.551  -0.320   4.492  0.00  0.00    -0.085 HD
BRANCH  20  23
ATOM     23  CA  UNL     1       9.379   0.209   3.754  0.00  0.00    -0.020 C 
BRANCH  23  24
ATOM     24  CB  UNL     1      10.104   0.228   5.101  0.00  0.00    +0.142 C 
BRANCH  24  25
ATOM     25  O   UNL     1       9.654  -0.867   5.900  0.00  0.00    -0.397 OA
ATOM     26  H   UNL     1      10.072  -0.917   6.771  0.00  0.00    +0.209 HD
ENDBRANCH  24  25
ENDBRANCH  23  24
BRANCH  23  27
ATOM     27  C   UNL     1       9.577  -1.154   3.088  0.00  0.00    +0.142 C 
BRANCH  27  28
ATOM     28  O   UNL     1       9.151  -2.187   3.979  0.00  0.00    -0.397 OA
ATOM     29  H   UNL     1       9.248  -3.080   3.622  0.00  0.00    +0.209 HD
ENDBRANCH  27  28
ENDBRANCH  23  27
ENDBRANCH  20  23
ENDBRANCH  19  20
ENDBRANCH   5  19
TORSDOF 10
