REMARK  Name = ZINC52019493
REMARK  2 active torsions:
REMARK  status: ('A' for Active; 'I' for Inactive)
REMARK    1  A    between atoms: C_1  and  N_2
REMARK    2  A    between atoms: N_5  and  C_6
REMARK                            x       y       z     vdW  Elec       q    Type
REMARK                         _______ _______ _______ _____ _____    ______ ____
ROOT
ATOM      1  C   UNL     1      -0.018   1.461   0.010  0.00  0.00    +0.142 C 
ATOM      2  N   UNL     1       0.002  -0.004   0.002  0.00  0.00    -0.361 N 
ATOM      3  C   UNL     1       0.617  -0.689   1.024  0.00  0.00    +0.169 C 
ATOM      4  N   UNL     1       1.181  -0.035   1.999  0.00  0.00    -0.371 N 
ATOM      5  N   UNL     1       0.635  -2.063   1.016  0.00  0.00    -0.353 N 
ATOM      6  H   UNL     1      -0.418  -0.491  -0.724  0.00  0.00    +0.162 HD
ATOM      7  H   UNL     1       1.615  -0.518   2.720  0.00  0.00    +0.159 HD
ATOM      8  H   UNL     1       0.215  -2.550   0.290  0.00  0.00    +0.163 HD
ATOM      9  H   UNL     1       1.168   0.935   2.005  0.00  0.00    +0.159 HD
ENDROOT
BRANCH   5  10
ATOM     10  C   UNL     1       1.290  -2.793   2.105  0.00  0.00    +0.104 C 
ATOM     11  C   UNL     1       0.300  -2.970   3.268  0.00  0.00    +0.049 C 
ATOM     12  C   UNL     1       0.902  -4.002   4.264  0.00  0.00    +0.168 C 
ATOM     13  S   UNL     1       1.603  -5.235   3.088  0.00  0.00    -0.029 S 
ATOM     14  O   UNL     1       0.634  -6.246   2.846  0.00  0.00    -0.174 OA
ATOM     15  O   UNL     1       2.904  -5.604   3.525  0.00  0.00    -0.174 OA
ATOM     16  C   UNL     1       1.750  -4.178   1.591  0.00  0.00    +0.190 C 
ENDBRANCH   5  10
TORSDOF 1
