REMARK  Name = ZINC45626058
REMARK  7 active torsions:
REMARK  status: ('A' for Active; 'I' for Inactive)
REMARK    1  A    between atoms: C_1  and  C_2
REMARK    2  A    between atoms: C_2  and  C_4
REMARK    3  A    between atoms: C_2  and  C_16
REMARK    4  A    between atoms: C_4  and  O_5
REMARK    5  A    between atoms: O_5  and  C_6
REMARK    6  A    between atoms: C_6  and  C_8
REMARK    7  A    between atoms: C_10  and  N_15
REMARK                            x       y       z     vdW  Elec       q    Type
REMARK                         _______ _______ _______ _____ _____    ______ ____
ROOT
ATOM      1  C   UNL     1       0.461  -0.485  -3.610  0.00  0.00    +0.340 C 
ATOM      2  O   UNL     1       1.506  -1.101  -3.674  0.00  0.00    -0.245 OA
ENDROOT
BRANCH   1   3
ATOM      3  C   UNL     1      -0.264  -0.132  -4.847  0.00  0.00    +0.075 A 
ATOM      4  C   UNL     1      -1.462   0.581  -4.778  0.00  0.00    +0.038 A 
ATOM      5  C   UNL     1      -2.137   0.908  -5.943  0.00  0.00    +0.025 A 
ATOM      6  C   UNL     1      -1.621   0.526  -7.176  0.00  0.00    +0.024 A 
ATOM      7  C   UNL     1      -0.436  -0.180  -7.247  0.00  0.00    +0.018 A 
ATOM      8  C   UNL     1       0.249  -0.506  -6.092  0.00  0.00    +0.032 A 
ATOM      9 BR   UNL     1       1.875  -1.465  -6.195  0.00  0.00    -0.049 Br
BRANCH   5  10
ATOM     10  N   UNL     1      -3.337   1.621  -5.878  0.00  0.00    -0.358 N 
ATOM     11  H   UNL     1      -3.698   1.887  -5.018  0.00  0.00    +0.142 HD
ATOM     12  H   UNL     1      -3.810   1.850  -6.694  0.00  0.00    +0.142 HD
ENDBRANCH   5  10
ENDBRANCH   1   3
BRANCH   1  13
ATOM     13  O   UNL     1      -0.036  -0.123  -2.412  0.00  0.00    -0.460 OA
BRANCH  13  14
ATOM     14  C   UNL     1       0.718  -0.497  -1.257  0.00  0.00    +0.245 C 
BRANCH  14  16
ATOM     15  C   UNL     1      -0.019   1.526   0.010  0.00  0.00    +0.020 C 
ATOM     16  C   UNL     1       0.002  -0.004   0.002  0.00  0.00    +0.109 C 
BRANCH  16  17
ATOM     17  C   UNL     1       0.731  -0.503   1.223  0.00  0.00    +0.217 C 
ATOM     18  O   UNL     1       1.725  -1.187   1.099  0.00  0.00    -0.276 OA
ATOM     19  N   UNL     1       0.278  -0.191   2.453  0.00  0.00    -0.329 N 
ATOM     20  H   UNL     1      -0.517   0.356   2.553  0.00  0.00    +0.145 HD
ATOM     21  H   UNL     1       0.747  -0.512   3.239  0.00  0.00    +0.145 HD
ENDBRANCH  16  17
ENDBRANCH  14  16
ENDBRANCH  13  14
ENDBRANCH   1  13
TORSDOF 6
