REMARK  Name = ZINC12439984
REMARK  9 active torsions:
REMARK  status: ('A' for Active; 'I' for Inactive)
REMARK    1  A    between atoms: C_1  and  C_2
REMARK    2  A    between atoms: C_2  and  C_3
REMARK    3  A    between atoms: C_2  and  C_4
REMARK    4  A    between atoms: C_4  and  N_54
REMARK    5  A    between atoms: C_10  and  C_12
REMARK    6  A    between atoms: C_12  and  C_13
REMARK    7  A    between atoms: N_15  and  C_16
REMARK    8  A    between atoms: C_16  and  C_17
REMARK    9  A    between atoms: C_17  and  O_23
REMARK                            x       y       z     vdW  Elec       q    Type
REMARK                         _______ _______ _______ _____ _____    ______ ____
ROOT
ATOM      1  C   UNL     1      -1.988   3.716   0.232  0.00  0.00    +0.089 C 
ENDROOT
BRANCH   1   7
ATOM      2  C   UNL     1       1.291   3.057   1.937  0.00  0.00    -0.059 C 
ATOM      3  C   UNL     1       1.410   1.584   1.541  0.00  0.00    +0.085 C 
ATOM      4  N   UNL     1       0.082   0.984   1.442  0.00  0.00    -0.318 N 
ATOM      5  C   UNL     1      -1.036   1.708   1.322  0.00  0.00    +0.200 C 
ATOM      6  O   UNL     1      -2.095   1.128   1.215  0.00  0.00    -0.278 OA
ATOM      7  C   UNL     1      -1.034   3.211   1.316  0.00  0.00    +0.028 C 
ATOM      8  H   UNL     1       0.008   0.017   1.463  0.00  0.00    +0.149 HD
ATOM      9  N   UNL     1       0.326   3.700   1.023  0.00  0.00    +0.389 N 
ATOM     10  H   UNL     1       0.569   3.459   0.055  0.00  0.00    -0.081 HD
BRANCH   9  11
ATOM     11  C   UNL     1       0.380   5.172   1.181  0.00  0.00    -0.075 C 
BRANCH  11  13
ATOM     12  C   UNL     1       1.496   5.439  -1.038  0.00  0.00    +0.005 C 
ATOM     13  C   UNL     1       1.624   5.701   0.464  0.00  0.00    -0.034 C 
ATOM     14  C   UNL     1       1.754   7.205   0.711  0.00  0.00    +0.005 C 
ENDBRANCH  11  13
ENDBRANCH   9  11
ENDBRANCH   1   7
BRANCH   1  15
ATOM     15  C   UNL     1      -1.525   3.221  -1.114  0.00  0.00    +0.212 C 
ATOM     16  O   UNL     1      -0.478   2.618  -1.211  0.00  0.00    -0.276 OA
ATOM     17  N   UNL     1      -2.275   3.450  -2.211  0.00  0.00    -0.313 N 
ATOM     18  H   UNL     1      -3.113   3.933  -2.133  0.00  0.00    +0.149 HD
BRANCH  17  19
ATOM     19  C   UNL     1      -1.825   2.970  -3.519  0.00  0.00    +0.138 C 
BRANCH  19  20
ATOM     20  C   UNL     1      -2.851   3.358  -4.586  0.00  0.00    +0.081 C 
ATOM     21  C   UNL     1      -4.230   2.830  -4.183  0.00  0.00    +0.036 C 
ATOM     22  C   UNL     1      -5.256   3.219  -5.249  0.00  0.00    +0.003 C 
ATOM     23  C   UNL     1      -4.850   2.611  -6.593  0.00  0.00    +0.000 C 
ATOM     24  C   UNL     1      -3.471   3.139  -6.996  0.00  0.00    +0.003 C 
ATOM     25  C   UNL     1      -2.445   2.750  -5.930  0.00  0.00    +0.036 C 
BRANCH  20  26
ATOM     26  O   UNL     1      -2.902   4.781  -4.702  0.00  0.00    -0.387 OA
ATOM     27  H   UNL     1      -3.153   5.234  -3.886  0.00  0.00    +0.210 HD
ENDBRANCH  20  26
ENDBRANCH  19  20
ENDBRANCH  17  19
ENDBRANCH   1  15
TORSDOF 7
