REMARK  Name = ZINC01026735
REMARK  10 active torsions:
REMARK  status: ('A' for Active; 'I' for Inactive)
REMARK    1  A    between atoms: C_1  and  C_2
REMARK    2  A    between atoms: C_2  and  O_3
REMARK    3  A    between atoms: O_3  and  C_4
REMARK    4  A    between atoms: C_7  and  C_27
REMARK    5  A    between atoms: C_9  and  C_10
REMARK    6  A    between atoms: C_10  and  N_11
REMARK    7  A    between atoms: N_28  and  N_29
REMARK    8  A    between atoms: C_30  and  C_32
REMARK    9  A    between atoms: C_32  and  O_33
REMARK   10  A    between atoms: O_33  and  C_34
REMARK                            x       y       z     vdW  Elec       q    Type
REMARK                         _______ _______ _______ _____ _____    ______ ____
ROOT
ATOM      1  C   UNL     1      -1.498  -1.848   0.006  0.00  0.00    +0.122 A 
ATOM      2  C   UNL     1      -0.384  -2.677  -0.003  0.00  0.00    +0.046 A 
ATOM      3  C   UNL     1      -0.541  -4.046  -0.009  0.00  0.00    +0.013 A 
ATOM      4  C   UNL     1      -1.824  -4.600  -0.005  0.00  0.00    -0.005 A 
ATOM      5  C   UNL     1      -2.942  -3.762   0.005  0.00  0.00    +0.014 A 
ATOM      6  C   UNL     1      -2.775  -2.394   0.016  0.00  0.00    -0.022 A 
ENDROOT
BRANCH   4   7
ATOM      7  C   UNL     1      -1.997  -6.064  -0.011  0.00  0.00    +0.138 C 
ATOM      8  N   UNL     1      -0.957  -6.840  -0.021  0.00  0.00    -0.188 NA
BRANCH   8   9
ATOM      9  N   UNL     1      -1.122  -8.231  -0.027  0.00  0.00    -0.204 N 
ATOM     10  C   UNL     1      -0.042  -9.038  -0.037  0.00  0.00    +0.270 C 
ATOM     11  O   UNL     1       1.072  -8.559  -0.041  0.00  0.00    -0.270 OA
ATOM     12  H   UNL     1      -2.013  -8.614  -0.025  0.00  0.00    +0.177 HD
BRANCH  10  13
ATOM     13  C   UNL     1      -0.219 -10.534  -0.044  0.00  0.00    +0.326 C 
BRANCH  13  14
ATOM     14  O   UNL     1       1.062 -11.166  -0.054  0.00  0.00    -0.480 OA
BRANCH  14  15
ATOM     15  C   UNL     1       1.081 -12.526  -0.061  0.00  0.00    +0.156 A 
ATOM     16  C   UNL     1      -0.110 -13.236  -0.065  0.00  0.00    +0.051 A 
ATOM     17  C   UNL     1      -0.090 -14.617  -0.072  0.00  0.00    +0.042 A 
ATOM     18  C   UNL     1       1.118 -15.294  -0.075  0.00  0.00    +0.126 A 
ATOM     19  C   UNL     1       2.309 -14.588  -0.072  0.00  0.00    +0.080 A 
ATOM     20  C   UNL     1       2.293 -13.204  -0.071  0.00  0.00    +0.168 A 
ATOM     21  F   UNL     1       3.454 -12.514  -0.074  0.00  0.00    -0.202 F 
ATOM     22  F   UNL     1       1.135 -16.645  -0.082  0.00  0.00    -0.205 F 
ENDBRANCH  14  15
ENDBRANCH  13  14
ENDBRANCH  10  13
ENDBRANCH   8   9
ENDBRANCH   4   7
BRANCH   1  23
ATOM     23  O   UNL     1      -1.339  -0.499   0.012  0.00  0.00    -0.492 OA
BRANCH  23  25
ATOM     24  C   UNL     1      -0.019   1.526   0.010  0.00  0.00    +0.048 C 
ATOM     25  C   UNL     1       0.002  -0.004   0.002  0.00  0.00    +0.225 C 
ENDBRANCH  23  25
ENDBRANCH   1  23
BRANCH   6  26
ATOM     26  C   UNL     1      -3.980  -1.489   0.032  0.00  0.00    -0.039 C 
BRANCH  26  27
ATOM     27  N   UNL     1      -4.240  -0.996  -1.327  0.00  0.00    +0.383 N 
ATOM     28  C   UNL     1      -5.484  -0.221  -1.335  0.00  0.00    -0.073 C 
ATOM     29  C   UNL     1      -5.791   0.313  -2.726  0.00  0.00    -0.007 C 
ATOM     30  C   UNL     1      -4.623   1.150  -3.255  0.00  0.00    +0.011 C 
ATOM     31  C   UNL     1      -3.372   0.264  -3.222  0.00  0.00    +0.020 C 
ATOM     32  C   UNL     1      -3.121  -0.147  -1.762  0.00  0.00    -0.069 C 
ATOM     33  C   UNL     1      -3.634  -0.992  -4.022  0.00  0.00    +0.023 A 
ATOM     34  C   UNL     1      -2.569  -1.594  -4.613  0.00  0.00    +0.022 A 
ATOM     35  C   UNL     1      -2.730  -2.794  -5.314  0.00  0.00    +0.007 A 
ATOM     36  C   UNL     1      -3.969  -3.362  -5.373  0.00  0.00    +0.070 A 
ATOM     37  C   UNL     1      -5.045  -2.717  -4.749  0.00  0.00    +0.251 A 
ATOM     38  O   UNL     1      -6.145  -3.246  -4.742  0.00  0.00    -0.268 OA
ATOM     39  N   UNL     1      -4.877  -1.511  -4.153  0.00  0.00    -0.312 N 
ATOM     40  C   UNL     1      -6.079  -0.809  -3.710  0.00  0.00    +0.126 C 
ATOM     41  H   UNL     1      -4.331  -1.779  -1.957  0.00  0.00    -0.081 HD
ENDBRANCH  26  27
ENDBRANCH   6  26
TORSDOF 9
