REMARK  Name = ZINC40853058
REMARK  9 active torsions:
REMARK  status: ('A' for Active; 'I' for Inactive)
REMARK    1  A    between atoms: C_1  and  C_2
REMARK    2  A    between atoms: C_2  and  C_3
REMARK    3  A    between atoms: C_3  and  C_4
REMARK    4  A    between atoms: C_4  and  C_5
REMARK    5  A    between atoms: C_4  and  C_6
REMARK    6  A    between atoms: C_4  and  N_22
REMARK    7  A    between atoms: N_8  and  C_9
REMARK    8  A    between atoms: C_10  and  C_20
REMARK    9  A    between atoms: C_15  and  C_19
REMARK                            x       y       z     vdW  Elec       q    Type
REMARK                         _______ _______ _______ _____ _____    ______ ____
ROOT
ATOM      1  C   UNL     1       1.444  -2.513  -2.505  0.00  0.00    +0.206 C 
ATOM      2  O   UNL     1       2.259  -1.804  -3.057  0.00  0.00    -0.277 OA
ATOM      3  N   UNL     1       1.170  -3.736  -3.001  0.00  0.00    -0.280 N 
ATOM      4  H   UNL     1       0.519  -4.304  -2.559  0.00  0.00    +0.155 HD
ENDROOT
BRANCH   3   5
ATOM      5  C   UNL     1       1.820  -4.184  -4.143  0.00  0.00    +0.090 A 
ATOM      6  C   UNL     1       1.663  -5.398  -4.791  0.00  0.00    +0.084 A 
ATOM      7  C   UNL     1       2.467  -5.626  -5.978  0.00  0.00    -0.018 A 
ATOM      8  C   UNL     1       3.283  -4.598  -6.299  0.00  0.00    -0.004 A 
ATOM      9  S   UNL     1       2.972  -3.375  -5.059  0.00  0.00    -0.077 S 
ATOM     10  C   UNL     1       4.230  -4.528  -7.457  0.00  0.00    +0.046 C 
ATOM     11  C   UNL     1       4.416  -5.948  -8.013  0.00  0.00    -0.009 C 
ATOM     12  C   UNL     1       3.040  -6.596  -8.187  0.00  0.00    +0.008 C 
ATOM     13  C   UNL     1       2.427  -6.895  -6.817  0.00  0.00    +0.037 C 
ATOM     14  C   UNL     1       5.127  -5.879  -9.366  0.00  0.00    +0.008 C 
BRANCH   6  15
ATOM     15  C   UNL     1       0.745  -6.387  -4.311  0.00  0.00    +0.102 C 
ATOM     16  N   UNL     1       0.018  -7.171  -3.929  0.00  0.00    -0.191 NA
ENDBRANCH   6  15
ENDBRANCH   3   5
BRANCH   1  17
ATOM     17  C   UNL     1       0.739  -2.027  -1.265  0.00  0.00    +0.005 C 
ATOM     18  C   UNL     1       1.479  -2.534  -0.026  0.00  0.00    -0.001 C 
BRANCH  17  19
ATOM     19  N   UNL     1      -0.639  -2.536  -1.255  0.00  0.00    +0.387 N 
ATOM     20  H   UNL     1      -1.127  -2.201  -2.072  0.00  0.00    -0.089 HD
ATOM     21  H   UNL     1      -0.625  -3.545  -1.260  0.00  0.00    -0.089 HD
ATOM     22  H   UNL     1      -1.111  -2.210  -0.425  0.00  0.00    -0.089 HD
ENDBRANCH  17  19
BRANCH  17  23
ATOM     23  C   UNL     1       0.718  -0.497  -1.257  0.00  0.00    -0.004 C 
BRANCH  23  25
ATOM     24  C   UNL     1      -0.019   1.526   0.010  0.00  0.00    +0.004 C 
ATOM     25  C   UNL     1       0.002  -0.004   0.002  0.00  0.00    -0.004 C 
ENDBRANCH  23  25
ENDBRANCH  17  23
ENDBRANCH   1  17
TORSDOF 6
