REMARK  Name = ZINC40858571
REMARK  5 active torsions:
REMARK  status: ('A' for Active; 'I' for Inactive)
REMARK    1  A    between atoms: C_3  and  N_11
REMARK    2  A    between atoms: C_6  and  N_7
REMARK    3  A    between atoms: C_12  and  C_14
REMARK    4  A    between atoms: C_14  and  O_15
REMARK    5  A    between atoms: O_15  and  C_16
REMARK                            x       y       z     vdW  Elec       q    Type
REMARK                         _______ _______ _______ _____ _____    ______ ____
ROOT
ATOM      1  N   UNL     1       3.584   2.125  -0.021  0.00  0.00    -0.282 N 
ATOM      2  C   UNL     1       3.568   3.470  -0.116  0.00  0.00    +0.255 C 
ATOM      3  O   UNL     1       2.512   4.066  -0.103  0.00  0.00    -0.272 OA
ATOM      4  H   UNL     1       4.429   1.654   0.049  0.00  0.00    +0.155 HD
ENDROOT
BRANCH   1   7
ATOM      5  C   UNL     1       0.065   1.242  -0.620  0.00  0.00    +0.034 A 
ATOM      6  C   UNL     1       1.250   1.952  -0.618  0.00  0.00    +0.026 A 
ATOM      7  C   UNL     1       2.381   1.409  -0.024  0.00  0.00    +0.048 A 
ATOM      8  C   UNL     1       2.317   0.153   0.567  0.00  0.00    +0.041 A 
ATOM      9  C   UNL     1       1.128  -0.551   0.562  0.00  0.00    +0.049 A 
ATOM     10  C   UNL     1       0.004  -0.007  -0.031  0.00  0.00    +0.127 A 
ATOM     11 BR   UNL     1       3.855  -0.591   1.378  0.00  0.00    -0.048 Br
BRANCH  10  12
ATOM     12  N   UNL     1      -1.268  -0.764  -0.034  0.00  0.00    +0.056 N 
ATOM     13  O   UNL     1      -2.253  -0.289  -0.552  0.00  0.00    -0.126 OA
ATOM     14  O   UNL     1      -1.323  -1.856   0.480  0.00  0.00    -0.126 OA
ENDBRANCH  10  12
ENDBRANCH   1   7
BRANCH   2  15
ATOM     15  C   UNL     1       4.862   4.232  -0.238  0.00  0.00    +0.324 C 
BRANCH  15  16
ATOM     16  O   UNL     1       4.585   5.631  -0.323  0.00  0.00    -0.482 OA
BRANCH  16  17
ATOM     17  C   UNL     1       5.652   6.465  -0.439  0.00  0.00    +0.135 A 
ATOM     18  C   UNL     1       6.938   5.948  -0.475  0.00  0.00    +0.048 A 
ATOM     19  C   UNL     1       8.021   6.797  -0.593  0.00  0.00    +0.019 A 
ATOM     20  C   UNL     1       7.824   8.164  -0.675  0.00  0.00    +0.019 A 
ATOM     21  C   UNL     1       6.542   8.684  -0.638  0.00  0.00    +0.034 A 
ATOM     22  C   UNL     1       5.455   7.837  -0.526  0.00  0.00    +0.061 A 
ATOM     23 BR   UNL     1       3.703   8.546  -0.484  0.00  0.00    -0.046 Br
ATOM     24 BR   UNL     1       9.308   9.325  -0.836  0.00  0.00    -0.050 Br
ENDBRANCH  16  17
ENDBRANCH  15  16
ENDBRANCH   2  15
TORSDOF 5
