REMARK  Name = ZINC39533658
REMARK  10 active torsions:
REMARK  status: ('A' for Active; 'I' for Inactive)
REMARK    1  A    between atoms: C_1  and  C_2
REMARK    2  A    between atoms: C_2  and  O_3
REMARK    3  A    between atoms: O_3  and  N_4
REMARK    4  A    between atoms: N_4  and  C_5
REMARK    5  A    between atoms: C_5  and  C_6
REMARK    6  A    between atoms: C_6  and  C_8
REMARK    7  A    between atoms: C_6  and  N_20
REMARK    8  A    between atoms: C_11  and  C_14
REMARK    9  A    between atoms: C_24  and  C_27
REMARK   10  A    between atoms: C_32  and  O_33
REMARK                            x       y       z     vdW  Elec       q    Type
REMARK                         _______ _______ _______ _____ _____    ______ ____
ROOT
ATOM      1  C   UNL     1       1.399  -3.851  -2.524  0.00  0.00    +0.103 C 
ENDROOT
BRANCH   1   2
ATOM      2  N   UNL     1       1.908  -4.368  -1.246  0.00  0.00    -0.297 NA
ATOM      3  C   UNL     1       2.072  -5.827  -1.296  0.00  0.00    +0.066 C 
ATOM      4  C   UNL     1       2.659  -6.317   0.030  0.00  0.00    -0.066 C 
ATOM      5  N   UNL     1       1.761  -5.945   1.131  0.00  0.00    +0.385 N 
ATOM      6  C   UNL     1       1.627  -4.483   1.183  0.00  0.00    -0.023 C 
ATOM      7  C   UNL     1       1.031  -3.978  -0.133  0.00  0.00    +0.074 C 
ATOM      8  H   UNL     1       0.854  -6.361   0.980  0.00  0.00    -0.085 HD
ATOM      9  H   UNL     1       2.142  -6.279   2.003  0.00  0.00    -0.085 HD
BRANCH   6  10
ATOM     10  C   UNL     1       0.719  -4.102   2.324  0.00  0.00    -0.019 A 
ATOM     11  C   UNL     1      -0.147  -5.036   2.860  0.00  0.00    +0.005 A 
ATOM     12  C   UNL     1      -0.980  -4.687   3.906  0.00  0.00    +0.000 A 
ATOM     13  C   UNL     1      -0.949  -3.404   4.420  0.00  0.00    +0.004 A 
ATOM     14  C   UNL     1      -0.085  -2.467   3.888  0.00  0.00    +0.045 A 
ATOM     15  C   UNL     1       0.756  -2.816   2.841  0.00  0.00    +0.118 A 
BRANCH  15  16
ATOM     16  O   UNL     1       1.611  -1.897   2.319  0.00  0.00    -0.507 OA
ATOM     17  H   UNL     1       1.238  -1.381   1.591  0.00  0.00    +0.292 HD
ENDBRANCH  15  16
ENDBRANCH   6  10
ENDBRANCH   1   2
BRANCH   1  18
ATOM     18  C   UNL     1       2.362  -4.203  -3.628  0.00  0.00    -0.029 A 
ATOM     19  C   UNL     1       3.725  -4.125  -3.404  0.00  0.00    +0.006 A 
ATOM     20  C   UNL     1       4.612  -4.446  -4.412  0.00  0.00    +0.009 A 
ATOM     21  C   UNL     1       4.132  -4.849  -5.656  0.00  0.00    -0.018 A 
ATOM     22  C   UNL     1       2.758  -4.926  -5.876  0.00  0.00    +0.009 A 
ATOM     23  C   UNL     1       1.880  -4.608  -4.860  0.00  0.00    +0.006 A 
BRANCH  21  24
ATOM     24  C   UNL     1       5.081  -5.195  -6.743  0.00  0.00    -0.018 A 
ATOM     25  C   UNL     1       6.455  -5.123  -6.522  0.00  0.00    +0.008 A 
ATOM     26  C   UNL     1       7.332  -5.447  -7.537  0.00  0.00    +0.001 A 
ATOM     27  C   UNL     1       6.851  -5.841  -8.772  0.00  0.00    +0.000 A 
ATOM     28  C   UNL     1       5.488  -5.913  -8.998  0.00  0.00    +0.001 A 
ATOM     29  C   UNL     1       4.601  -5.598  -7.988  0.00  0.00    +0.008 A 
ENDBRANCH  21  24
ENDBRANCH   1  18
BRANCH   1  30
ATOM     30  C   UNL     1       1.254  -2.331  -2.438  0.00  0.00    +0.134 C 
BRANCH  30  31
ATOM     31  N   UNL     1       0.671  -1.823  -3.687  0.00  0.00    -0.199 NA
ATOM     32  H   UNL     1      -0.248  -2.210  -3.841  0.00  0.00    +0.154 HD
BRANCH  31  33
ATOM     33  O   UNL     1       0.632  -0.361  -3.691  0.00  0.00    -0.300 OA
BRANCH  33  35
ATOM     34  C   UNL     1       0.085   1.729  -4.775  0.00  0.00    +0.036 C 
ATOM     35  C   UNL     1       0.075   0.203  -4.881  0.00  0.00    +0.182 C 
ENDBRANCH  33  35
ENDBRANCH  31  33
ENDBRANCH  30  31
ENDBRANCH   1  30
TORSDOF 9
