REMARK  Name = ZINC06846155
REMARK  7 active torsions:
REMARK  status: ('A' for Active; 'I' for Inactive)
REMARK    1  A    between atoms: C_1  and  C_2
REMARK    2  A    between atoms: C_5  and  C_9
REMARK    3  A    between atoms: C_7  and  C_8
REMARK    4  A    between atoms: N_11  and  C_12
REMARK    5  A    between atoms: C_12  and  N_14
REMARK    6  A    between atoms: N_14  and  C_15
REMARK    7  A    between atoms: C_16  and  C_23
REMARK                            x       y       z     vdW  Elec       q    Type
REMARK                         _______ _______ _______ _____ _____    ______ ____
ROOT
ATOM      1  N   UNL     1      -6.016   3.162   0.079  0.00  0.00    -0.291 N 
ATOM      2  H   UNL     1      -6.006   2.192   0.073  0.00  0.00    +0.154 HD
ENDROOT
BRANCH   1   3
ATOM      3  C   UNL     1      -7.222   3.843   0.095  0.00  0.00    +0.084 A 
ATOM      4  C   UNL     1      -8.505   3.322   0.099  0.00  0.00    +0.068 A 
ATOM      5  C   UNL     1      -9.620   4.268   0.121  0.00  0.00    -0.023 A 
ATOM      6  C   UNL     1      -9.268   5.566   0.126  0.00  0.00    -0.004 A 
ATOM      7  S   UNL     1      -7.492   5.553   0.107  0.00  0.00    -0.077 S 
ATOM      8  C   UNL     1     -10.467   6.475   0.146  0.00  0.00    +0.043 C 
ATOM      9  C   UNL     1     -11.636   5.569   0.591  0.00  0.00    +0.010 C 
ATOM     10  C   UNL     1     -11.147   4.180   0.134  0.00  0.00    +0.037 C 
BRANCH   4  11
ATOM     11  C   UNL     1      -8.736   1.875   0.086  0.00  0.00    +0.244 C 
ATOM     12  O   UNL     1      -8.825   1.263   1.134  0.00  0.00    -0.270 OA
ATOM     13  N   UNL     1      -8.851   1.221  -1.087  0.00  0.00    -0.325 N 
ATOM     14  H   UNL     1      -8.780   1.708  -1.923  0.00  0.00    +0.145 HD
ATOM     15  H   UNL     1      -9.004   0.263  -1.096  0.00  0.00    +0.145 HD
ENDBRANCH   4  11
ENDBRANCH   1   3
BRANCH   1  16
ATOM     16  C   UNL     1      -4.855   3.848   0.071  0.00  0.00    +0.141 C 
ATOM     17  S   UNL     1      -4.872   5.559   0.082  0.00  0.00    -0.018 S 
BRANCH  16  20
ATOM     18  C   UNL     1      -2.521   3.870   0.048  0.00  0.00    +0.250 C 
ATOM     19  O   UNL     1      -2.533   5.085   0.056  0.00  0.00    -0.270 OA
ATOM     20  N   UNL     1      -3.682   3.185   0.056  0.00  0.00    -0.264 N 
ATOM     21  H   UNL     1      -3.672   2.215   0.050  0.00  0.00    +0.157 HD
BRANCH  18  26
ATOM     22  C   UNL     1       2.490   1.042  -0.017  0.00  0.00    +0.044 C 
ATOM     23  C   UNL     1       1.177   1.782   0.000  0.00  0.00    -0.047 A 
ATOM     24  C   UNL     1      -0.013   1.076   0.008  0.00  0.00    +0.004 A 
ATOM     25  C   UNL     1      -1.217   1.748   0.017  0.00  0.00    +0.013 A 
ATOM     26  C   UNL     1      -1.234   3.144   0.031  0.00  0.00    +0.037 A 
ATOM     27  C   UNL     1      -0.030   3.850   0.024  0.00  0.00    +0.016 A 
ATOM     28  C   UNL     1       1.168   3.166   0.008  0.00  0.00    -0.047 A 
ATOM     29  C   UNL     1       2.468   3.927  -0.000  0.00  0.00    +0.044 C 
ENDBRANCH  18  26
ENDBRANCH  16  20
ENDBRANCH   1  16
TORSDOF 5
