REMARK  Name = ZINC42859803
REMARK  4 active torsions:
REMARK  status: ('A' for Active; 'I' for Inactive)
REMARK    1  A    between atoms: C_1  and  C_2
REMARK    2  A    between atoms: C_8  and  C_10
REMARK    3  A    between atoms: C_10  and  N_11
REMARK    4  A    between atoms: N_11  and  C_12
REMARK                            x       y       z     vdW  Elec       q    Type
REMARK                         _______ _______ _______ _____ _____    ______ ____
ROOT
ATOM      1  C   UNL     1       4.229   0.141   2.467  0.00  0.00    +0.049 C 
ATOM      2  C   UNL     1       4.969  -0.308   3.706  0.00  0.00    -0.030 A 
ATOM      3  C   UNL     1       5.297  -1.550   4.202  0.00  0.00    +0.004 A 
ATOM      4  C   UNL     1       5.997  -1.656   5.392  0.00  0.00    +0.002 A 
ATOM      5  C   UNL     1       6.364  -0.513   6.078  0.00  0.00    +0.022 A 
ATOM      6  C   UNL     1       6.036   0.733   5.584  0.00  0.00    +0.062 A 
ATOM      7  C   UNL     1       5.332   0.847   4.385  0.00  0.00    +0.054 A 
ATOM      8  N   UNL     1       4.890   1.974   3.690  0.00  0.00    -0.285 N 
ATOM      9  C   UNL     1       4.238   1.652   2.557  0.00  0.00    +0.208 C 
ATOM     10  O   UNL     1       3.750   2.424   1.759  0.00  0.00    -0.277 OA
ATOM     11 CL   UNL     1       6.502   2.161   6.454  0.00  0.00    -0.082 Cl
ATOM     12  H   UNL     1       5.037   2.886   3.988  0.00  0.00    +0.155 HD
ENDROOT
BRANCH   1  13
ATOM     13  N   UNL     1       2.851  -0.368   2.478  0.00  0.00    +0.390 N 
ATOM     14  H   UNL     1       2.354   0.024   3.264  0.00  0.00    -0.084 HD
ATOM     15  H   UNL     1       2.865  -1.374   2.555  0.00  0.00    -0.084 HD
BRANCH  13  16
ATOM     16  C   UNL     1       2.178   0.019   1.231  0.00  0.00    -0.077 C 
BRANCH  16  23
ATOM     17  C   UNL     1      -0.019   1.526   0.010  0.00  0.00    +0.008 C 
ATOM     18  C   UNL     1       0.002  -0.004   0.002  0.00  0.00    -0.013 C 
ATOM     19  C   UNL     1      -1.433  -0.534   0.013  0.00  0.00    +0.003 C 
ATOM     20  C   UNL     1      -1.413  -2.063   0.004  0.00  0.00    +0.000 C 
ATOM     21  C   UNL     1      -0.673  -2.570   1.244  0.00  0.00    +0.000 C 
ATOM     22  C   UNL     1       0.763  -2.041   1.233  0.00  0.00    +0.002 C 
ATOM     23  C   UNL     1       0.742  -0.511   1.242  0.00  0.00    -0.025 C 
ENDBRANCH  16  23
ENDBRANCH  13  16
ENDBRANCH   1  13
TORSDOF 3
