REMARK  Name = ZINC40779723
REMARK  4 active torsions:
REMARK  status: ('A' for Active; 'I' for Inactive)
REMARK    1  A    between atoms: C_1  and  C_2
REMARK    2  A    between atoms: C_5  and  N_8
REMARK    3  A    between atoms: C_10  and  N_23
REMARK    4  A    between atoms: C_11  and  N_15
REMARK                            x       y       z     vdW  Elec       q    Type
REMARK                         _______ _______ _______ _____ _____    ______ ____
ROOT
ATOM      1  N   UNL     1       0.038  -4.171  -0.022  0.00  0.00    -0.298 N 
ATOM      2  C   UNL     1       0.163  -4.870   1.174  0.00  0.00    +0.149 A 
ATOM      3  C   UNL     1       0.300  -6.260   1.171  0.00  0.00    +0.106 A 
ATOM      4  C   UNL     1       0.422  -6.913   2.399  0.00  0.00    +0.150 A 
ATOM      5  N   UNL     1       0.403  -6.191   3.517  0.00  0.00    -0.219 NA
ATOM      6  C   UNL     1       0.272  -4.880   3.475  0.00  0.00    +0.225 A 
ATOM      7  N   UNL     1       0.159  -4.225   2.337  0.00  0.00    -0.219 NA
ATOM      8  H   UNL     1      -0.033  -4.653  -0.860  0.00  0.00    +0.154 HD
ENDROOT
BRANCH   4   9
ATOM      9  N   UNL     1       0.561  -8.296   2.453  0.00  0.00    -0.283 N 
ATOM     10  C   UNL     1       0.573  -8.946   3.684  0.00  0.00    +0.124 A 
ATOM     11  C   UNL     1       0.600 -10.336   3.728  0.00  0.00    +0.045 A 
ATOM     12  C   UNL     1       0.612 -10.970   4.958  0.00  0.00    +0.020 A 
ATOM     13  C   UNL     1       0.596 -10.188   6.106  0.00  0.00    +0.036 A 
ATOM     14  C   UNL     1       0.570  -8.812   5.988  0.00  0.00    +0.128 A 
ATOM     15  N   UNL     1       0.564  -8.236   4.801  0.00  0.00    -0.239 NA
ATOM     16 BR   UNL     1       0.611 -11.000   7.814  0.00  0.00    -0.049 Br
ATOM     17  H   UNL     1       0.649  -8.807   1.634  0.00  0.00    +0.155 HD
ENDBRANCH   4   9
BRANCH   1  22
ATOM     18  C   UNL     1      -0.054   1.499   0.006  0.00  0.00    +0.044 C 
ATOM     19  C   UNL     1      -0.029  -0.007  -0.001  0.00  0.00    -0.050 A 
ATOM     20  C   UNL     1       0.718  -0.690   0.941  0.00  0.00    +0.005 A 
ATOM     21  C   UNL     1       0.742  -2.071   0.937  0.00  0.00    +0.023 A 
ATOM     22  C   UNL     1       0.015  -2.774  -0.015  0.00  0.00    +0.032 A 
ATOM     23  C   UNL     1      -0.735  -2.085  -0.960  0.00  0.00    +0.023 A 
ATOM     24  C   UNL     1      -0.759  -0.705  -0.947  0.00  0.00    +0.005 A 
ENDBRANCH   1  22
BRANCH   3  25
ATOM     25  N   UNL     1       0.314  -6.981  -0.033  0.00  0.00    -0.353 N 
ATOM     26  H   UNL     1       0.228  -6.515  -0.879  0.00  0.00    +0.143 HD
ATOM     27  H   UNL     1       0.410  -7.947  -0.019  0.00  0.00    +0.143 HD
ENDBRANCH   3  25
TORSDOF 3
