REMARK  Name = ZINC01711862
REMARK  0 active torsions:
REMARK  status: ('A' for Active; 'I' for Inactive)
REMARK                            x       y       z     vdW  Elec       q    Type
REMARK                         _______ _______ _______ _____ _____    ______ ____
ROOT
ATOM      1  C   UNL     1      -5.051   0.953   1.008  0.00  0.00    +0.001 C 
ATOM      2  C   UNL     1      -4.571   2.397   1.167  0.00  0.00    +0.004 C 
ATOM      3  C   UNL     1      -3.601   2.738   0.031  0.00  0.00    +0.033 C 
ATOM      4  C   UNL     1      -2.491   1.710   0.021  0.00  0.00    -0.043 C 
ATOM      5  C   UNL     1      -1.208   2.085   0.018  0.00  0.00    +0.097 C 
ATOM      6  C   UNL     1      -0.014   1.212   0.009  0.00  0.00    +0.266 C 
ATOM      7  O   UNL     1       0.002  -0.004   0.002  0.00  0.00    -0.268 OA
ATOM      8  N   UNL     1       1.052   2.038   0.003  0.00  0.00    -0.235 N 
ATOM      9  C   UNL     1       0.641   3.314   0.014  0.00  0.00    +0.311 C 
ATOM     10  O   UNL     1       1.386   4.275   0.011  0.00  0.00    -0.252 OA
ATOM     11  N   UNL     1      -0.701   3.394   0.027  0.00  0.00    -0.265 N 
ATOM     12  C   UNL     1      -2.871   0.245   0.007  0.00  0.00    +0.033 C 
ATOM     13  C   UNL     1      -3.868  -0.006   1.149  0.00  0.00    +0.004 C 
ATOM     14  H   UNL     1       1.978   1.751  -0.007  0.00  0.00    +0.159 HD
ATOM     15  H   UNL     1      -1.226   4.210   0.036  0.00  0.00    +0.157 HD
ENDROOT
TORSDOF 0
