REMARK  Name = ZINC59378980
REMARK  11 active torsions:
REMARK  status: ('A' for Active; 'I' for Inactive)
REMARK    1  A    between atoms: C_1  and  N_2
REMARK    2  A    between atoms: N_2  and  C_3
REMARK    3  A    between atoms: N_2  and  C_15
REMARK    4  A    between atoms: C_3  and  N_4
REMARK    5  A    between atoms: N_4  and  C_5
REMARK    6  A    between atoms: C_8  and  N_12
REMARK    7  A    between atoms: C_17  and  O_30
REMARK    8  A    between atoms: C_19  and  O_29
REMARK    9  A    between atoms: C_21  and  O_28
REMARK   10  A    between atoms: C_23  and  C_26
REMARK   11  A    between atoms: C_26  and  O_27
REMARK                            x       y       z     vdW  Elec       q    Type
REMARK                         _______ _______ _______ _____ _____    ______ ____
ROOT
ATOM      1  C   UNL     1      -0.019   1.457  -0.148  0.00  0.00    +0.109 C 
ATOM      2  N   UNL     1       0.002  -0.004   0.002  0.00  0.00    -0.263 NA
ENDROOT
BRANCH   2   3
ATOM      3  C   UNL     1      -1.362  -0.549   0.037  0.00  0.00    +0.222 C 
ATOM      4  C   UNL     1      -1.300  -2.079   0.028  0.00  0.00    +0.189 C 
ATOM      5  C   UNL     1      -2.726  -2.639   0.004  0.00  0.00    +0.178 C 
ATOM      6  C   UNL     1      -3.462  -2.079  -1.217  0.00  0.00    +0.176 C 
ATOM      7  C   UNL     1      -3.440  -0.550  -1.160  0.00  0.00    +0.177 C 
ATOM      8  O   UNL     1      -2.086  -0.096  -1.108  0.00  0.00    -0.351 OA
BRANCH   6   9
ATOM      9  O   UNL     1      -2.813  -2.523  -2.411  0.00  0.00    -0.386 OA
ATOM     10  H   UNL     1      -2.787  -3.484  -2.510  0.00  0.00    +0.210 HD
ENDBRANCH   6   9
BRANCH   5  11
ATOM     11  O   UNL     1      -2.678  -4.065  -0.077  0.00  0.00    -0.386 OA
ATOM     12  H   UNL     1      -3.547  -4.487  -0.097  0.00  0.00    +0.210 HD
ENDBRANCH   5  11
BRANCH   4  13
ATOM     13  O   UNL     1      -0.592  -2.521  -1.132  0.00  0.00    -0.385 OA
ATOM     14  H   UNL     1      -0.515  -3.482  -1.203  0.00  0.00    +0.210 HD
ENDBRANCH   4  13
BRANCH   7  15
ATOM     15  C   UNL     1      -4.121   0.018  -2.406  0.00  0.00    +0.190 C 
BRANCH  15  16
ATOM     16  O   UNL     1      -4.205   1.440  -2.298  0.00  0.00    -0.392 OA
ATOM     17  H   UNL     1      -4.627   1.869  -3.055  0.00  0.00    +0.210 HD
ENDBRANCH  15  16
ENDBRANCH   7  15
ENDBRANCH   2   3
BRANCH   2  18
ATOM     18  C   UNL     1       0.758  -0.399   1.198  0.00  0.00    +0.191 C 
BRANCH  18  19
ATOM     19  N   UNL     1       2.192  -0.384   0.897  0.00  0.00    -0.330 N 
ATOM     20  H   UNL     1       2.610  -1.159   0.490  0.00  0.00    +0.147 HD
BRANCH  19  21
ATOM     21  C   UNL     1       2.956   0.747   1.195  0.00  0.00    +0.042 A 
ATOM     22  C   UNL     1       2.360   1.855   1.783  0.00  0.00    +0.026 A 
ATOM     23  C   UNL     1       3.119   2.971   2.077  0.00  0.00    +0.034 A 
ATOM     24  C   UNL     1       4.471   2.986   1.787  0.00  0.00    +0.127 A 
ATOM     25  C   UNL     1       5.068   1.885   1.202  0.00  0.00    +0.049 A 
ATOM     26  C   UNL     1       4.316   0.763   0.910  0.00  0.00    +0.041 A 
ATOM     27 BR   UNL     1       5.136  -0.746   0.117  0.00  0.00    -0.048 Br
BRANCH  24  28
ATOM     28  N   UNL     1       5.280   4.184   2.103  0.00  0.00    +0.056 N 
ATOM     29  O   UNL     1       4.759   5.148   2.615  0.00  0.00    -0.126 OA
ATOM     30  O   UNL     1       6.462   4.199   1.850  0.00  0.00    -0.126 OA
ENDBRANCH  24  28
ENDBRANCH  19  21
ENDBRANCH  18  19
ENDBRANCH   2  18
TORSDOF 10
