REMARK  Name = ZINC20180170
REMARK  7 active torsions:
REMARK  status: ('A' for Active; 'I' for Inactive)
REMARK    1  A    between atoms: C_1  and  N_2
REMARK    2  A    between atoms: C_5  and  C_24
REMARK    3  A    between atoms: C_11  and  C_12
REMARK    4  A    between atoms: C_15  and  O_20
REMARK    5  A    between atoms: C_16  and  O_18
REMARK    6  A    between atoms: O_18  and  C_19
REMARK    7  A    between atoms: O_20  and  C_21
REMARK                            x       y       z     vdW  Elec       q    Type
REMARK                         _______ _______ _______ _____ _____    ______ ____
ROOT
ATOM      1  C   UNL     1       7.534   3.744   0.282  0.00  0.00    +0.138 C 
ATOM      2  N   UNL     1       6.188   3.193   0.460  0.00  0.00    -0.269 N 
ATOM      3  C   UNL     1       6.071   2.092   1.300  0.00  0.00    +0.051 A 
ATOM      4  C   UNL     1       7.082   1.855   2.223  0.00  0.00    +0.037 A 
ATOM      5  C   UNL     1       7.004   0.762   3.088  0.00  0.00    +0.039 A 
ATOM      6  C   UNL     1       5.907  -0.102   3.032  0.00  0.00    +0.014 A 
ATOM      7  C   UNL     1       4.903   0.129   2.118  0.00  0.00    +0.017 A 
ATOM      8  C   UNL     1       4.981   1.216   1.256  0.00  0.00    +0.034 A 
ATOM      9  S   UNL     1       3.689   1.503   0.090  0.00  0.00    -0.082 S 
ATOM     10  C   UNL     1       3.827   3.252  -0.171  0.00  0.00    +0.075 C 
ATOM     11  C   UNL     1       2.736   4.042  -0.326  0.00  0.00    +0.028 C 
ATOM     12  C   UNL     1       5.199   3.799  -0.202  0.00  0.00    +0.257 C 
ATOM     13  O   UNL     1       5.431   4.811  -0.837  0.00  0.00    -0.269 OA
ENDROOT
BRANCH   5  14
ATOM     14  C   UNL     1       8.083   0.519   4.064  0.00  0.00    +0.247 C 
ATOM     15  O   UNL     1       8.514   1.437   4.735  0.00  0.00    -0.270 OA
ATOM     16  N   UNL     1       8.591  -0.721   4.212  0.00  0.00    -0.295 N 
ATOM     17  C   UNL     1       8.008  -1.865   3.496  0.00  0.00    +0.127 C 
ATOM     18  C   UNL     1       9.142  -2.609   2.771  0.00  0.00    +0.125 C 
ATOM     19  N   UNL     1      10.192  -2.952   3.739  0.00  0.00    -0.314 N 
ATOM     20  C   UNL     1      10.801  -1.745   4.315  0.00  0.00    +0.125 C 
ATOM     21  C   UNL     1       9.739  -0.965   5.098  0.00  0.00    +0.127 C 
ATOM     22  C   UNL     1      11.157  -3.768   3.159  0.00  0.00    +0.099 A 
ATOM     23  C   UNL     1      10.777  -4.964   2.558  0.00  0.00    +0.042 A 
ATOM     24  C   UNL     1      11.747  -5.766   1.985  0.00  0.00    +0.005 A 
ATOM     25  C   UNL     1      13.069  -5.344   2.032  0.00  0.00    +0.018 A 
ATOM     26  C   UNL     1      13.375  -4.146   2.645  0.00  0.00    +0.084 A 
ATOM     27  N   UNL     1      12.428  -3.398   3.179  0.00  0.00    -0.350 N 
ATOM     28  H   UNL     1      12.716  -2.446   3.649  0.00  0.00    +0.166 HD
ENDBRANCH   5  14
BRANCH  11  29
ATOM     29  C   UNL     1       1.404   3.437  -0.461  0.00  0.00    -0.020 A 
ATOM     30  C   UNL     1       1.256   2.201  -1.101  0.00  0.00    +0.012 A 
ATOM     31  C   UNL     1       0.005   1.636  -1.227  0.00  0.00    +0.050 A 
ATOM     32  C   UNL     1      -1.110   2.292  -0.725  0.00  0.00    +0.162 A 
ATOM     33  C   UNL     1      -0.971   3.520  -0.081  0.00  0.00    +0.162 A 
ATOM     34  C   UNL     1       0.279   4.094   0.050  0.00  0.00    +0.057 A 
BRANCH  33  35
ATOM     35  O   UNL     1      -2.066   4.157   0.414  0.00  0.00    -0.491 OA
ATOM     36  C   UNL     1      -1.850   5.414   1.057  0.00  0.00    +0.277 C 
ENDBRANCH  33  35
BRANCH  32  37
ATOM     37  O   UNL     1      -2.342   1.733  -0.857  0.00  0.00    -0.491 OA
ATOM     38  C   UNL     1      -2.413   0.470  -1.522  0.00  0.00    +0.277 C 
ENDBRANCH  32  37
ENDBRANCH  11  29
TORSDOF 4
