REMARK  Name = ZINC20585420
REMARK  2 active torsions:
REMARK  status: ('A' for Active; 'I' for Inactive)
REMARK    1  A    between atoms: C_3  and  N_8
REMARK    2  A    between atoms: N_8  and  C_9
REMARK                            x       y       z     vdW  Elec       q    Type
REMARK                         _______ _______ _______ _____ _____    ______ ____
ROOT
ATOM      1  C   UNL     1       4.828   1.487   0.054  0.00  0.00    +0.048 A 
ATOM      2  C   UNL     1       4.913   0.096   0.035  0.00  0.00    +0.028 A 
ATOM      3  C   UNL     1       6.163  -0.489   0.112  0.00  0.00    +0.043 A 
ATOM      4  C   UNL     1       7.288   0.324   0.204  0.00  0.00    +0.094 A 
ATOM      5  N   UNL     1       7.170   1.642   0.219  0.00  0.00    -0.348 N 
ATOM      6  C   UNL     1       5.993   2.234   0.142  0.00  0.00    +0.107 A 
ATOM      7  N   UNL     1       8.552  -0.255   0.282  0.00  0.00    -0.345 N 
ATOM      8  H   UNL     1       8.645  -1.220   0.272  0.00  0.00    +0.144 HD
ATOM      9  H   UNL     1       9.340   0.307   0.346  0.00  0.00    +0.144 HD
ATOM     10  H   UNL     1       7.970   2.188   0.284  0.00  0.00    +0.167 HD
ENDROOT
BRANCH   1  11
ATOM     11  N   UNL     1       3.582   2.123  -0.021  0.00  0.00    -0.313 N 
ATOM     12  H   UNL     1       3.508   2.996  -0.436  0.00  0.00    +0.152 HD
BRANCH  11  15
ATOM     13  C   UNL     1       1.440   0.018   2.097  0.00  0.00    +0.003 A 
ATOM     14  C   UNL     1       2.564   0.633   1.582  0.00  0.00    +0.023 A 
ATOM     15  C   UNL     1       2.447   1.499   0.502  0.00  0.00    +0.032 A 
ATOM     16  C   UNL     1       1.199   1.743  -0.057  0.00  0.00    +0.037 A 
ATOM     17  C   UNL     1       0.078   1.125   0.464  0.00  0.00    +0.015 A 
ATOM     18  C   UNL     1       0.199   0.263   1.540  0.00  0.00    +0.014 A 
ATOM     19  I   UNL     1      -1.805   1.493  -0.377  0.00  0.00    -0.044 I 
ENDBRANCH  11  15
ENDBRANCH   1  11
TORSDOF 2
