REMARK  Name = ZINC06857670
REMARK  7 active torsions:
REMARK  status: ('A' for Active; 'I' for Inactive)
REMARK    1  A    between atoms: C_1  and  N_46
REMARK    2  A    between atoms: C_9  and  O_24
REMARK    3  A    between atoms: C_11  and  C_14
REMARK    4  A    between atoms: C_17  and  O_22
REMARK    5  A    between atoms: C_18  and  O_20
REMARK    6  A    between atoms: O_20  and  C_21
REMARK    7  A    between atoms: O_22  and  C_23
REMARK                            x       y       z     vdW  Elec       q    Type
REMARK                         _______ _______ _______ _____ _____    ______ ____
ROOT
ATOM      1  C   UNL     1      -4.237  -7.419   5.552  0.00  0.00    -0.096 C 
ATOM      2  C   UNL     1      -5.509  -5.377   5.832  0.00  0.00    -0.074 C 
ATOM      3  C   UNL     1      -5.483  -3.874   5.541  0.00  0.00    +0.018 C 
ATOM      4  C   UNL     1      -5.545  -3.681   4.030  0.00  0.00    -0.027 A 
ATOM      5  C   UNL     1      -5.252  -4.713   3.203  0.00  0.00    -0.021 A 
ATOM      6  S   UNL     1      -5.449  -4.058   1.569  0.00  0.00    -0.080 S 
ATOM      7  C   UNL     1      -5.911  -2.462   1.977  0.00  0.00    +0.080 A 
ATOM      8  C   UNL     1      -5.905  -2.436   3.377  0.00  0.00    +0.067 A 
ATOM      9  C   UNL     1      -6.257  -1.152   4.036  0.00  0.00    +0.220 C 
ATOM     10  N   UNL     1      -6.354  -0.090   3.286  0.00  0.00    -0.223 NA
ATOM     11  C   UNL     1      -6.045  -0.047   1.862  0.00  0.00    +0.224 C 
ATOM     12  N   UNL     1      -6.239  -1.361   1.222  0.00  0.00    -0.313 N 
ATOM     13  C   UNL     1      -4.850  -6.095   3.614  0.00  0.00    -0.036 C 
ATOM     14  H   UNL     1      -6.579  -1.444   0.318  0.00  0.00    +0.149 HD
ATOM     15  N   UNL     1      -4.455  -6.048   5.043  0.00  0.00    +0.381 N 
ATOM     16  H   UNL     1      -3.582  -5.516   5.131  0.00  0.00    -0.082 HD
ENDROOT
BRANCH  11  17
ATOM     17  C   UNL     1      -4.611   0.380   1.683  0.00  0.00    -0.002 A 
ATOM     18  C   UNL     1      -3.904  -0.030   0.568  0.00  0.00    +0.011 A 
ATOM     19  C   UNL     1      -2.590   0.365   0.396  0.00  0.00    +0.050 A 
ATOM     20  C   UNL     1      -1.976   1.163   1.348  0.00  0.00    +0.162 A 
ATOM     21  C   UNL     1      -2.688   1.575   2.470  0.00  0.00    +0.162 A 
ATOM     22  C   UNL     1      -4.006   1.181   2.634  0.00  0.00    +0.056 A 
BRANCH  21  23
ATOM     23  O   UNL     1      -2.091   2.362   3.405  0.00  0.00    -0.491 OA
ATOM     24  C   UNL     1      -2.883   2.747   4.531  0.00  0.00    +0.277 C 
ENDBRANCH  21  23
BRANCH  20  25
ATOM     25  O   UNL     1      -0.682   1.547   1.184  0.00  0.00    -0.491 OA
ATOM     26  C   UNL     1      -0.013   1.086   0.008  0.00  0.00    +0.277 C 
ENDBRANCH  20  25
ENDBRANCH  11  17
BRANCH   9  27
ATOM     27  O   UNL     1      -6.470  -1.087   5.371  0.00  0.00    -0.492 OA
ATOM     28  H   UNL     1      -6.693  -0.202   5.691  0.00  0.00    +0.294 HD
ENDBRANCH   9  27
TORSDOF 4
