REMARK  Name = ZINC05937745
REMARK  10 active torsions:
REMARK  status: ('A' for Active; 'I' for Inactive)
REMARK    1  A    between atoms: C_1  and  C_2
REMARK    2  A    between atoms: C_2  and  C_3
REMARK    3  A    between atoms: C_2  and  C_4
REMARK    4  A    between atoms: C_4  and  C_6
REMARK    5  A    between atoms: C_4  and  N_24
REMARK    6  A    between atoms: C_6  and  O_8
REMARK    7  A    between atoms: O_8  and  C_9
REMARK    8  A    between atoms: C_9  and  C_10
REMARK    9  A    between atoms: N_12  and  C_13
REMARK   10  A    between atoms: C_14  and  C_21
REMARK                            x       y       z     vdW  Elec       q    Type
REMARK                         _______ _______ _______ _____ _____    ______ ____
ROOT
ATOM      1  C   UNL     1      -4.365   8.000  -1.260  0.00  0.00    +0.255 C 
ATOM      2  O   UNL     1      -5.389   7.516  -0.828  0.00  0.00    -0.272 OA
ATOM      3  N   UNL     1      -4.370   9.252  -1.760  0.00  0.00    -0.277 N 
ATOM      4  H   UNL     1      -3.551   9.639  -2.106  0.00  0.00    +0.155 HD
ENDROOT
BRANCH   3   5
ATOM      5  C   UNL     1      -5.547   9.985  -1.782  0.00  0.00    +0.084 A 
ATOM      6  C   UNL     1      -5.749  11.274  -2.245  0.00  0.00    +0.068 A 
ATOM      7  C   UNL     1      -7.102  11.821  -2.156  0.00  0.00    -0.023 A 
ATOM      8  C   UNL     1      -8.017  10.997  -1.614  0.00  0.00    -0.004 A 
ATOM      9  S   UNL     1      -7.117   9.515  -1.228  0.00  0.00    -0.077 S 
ATOM     10  C   UNL     1      -9.381  11.630  -1.554  0.00  0.00    +0.043 C 
ATOM     11  C   UNL     1      -9.300  12.821  -2.534  0.00  0.00    +0.010 C 
ATOM     12  C   UNL     1      -7.791  13.136  -2.522  0.00  0.00    +0.037 C 
BRANCH   6  13
ATOM     13  C   UNL     1      -4.647  12.060  -2.808  0.00  0.00    +0.244 C 
ATOM     14  O   UNL     1      -4.409  12.008  -4.001  0.00  0.00    -0.270 OA
ATOM     15  N   UNL     1      -3.897  12.841  -2.006  0.00  0.00    -0.325 N 
ATOM     16  H   UNL     1      -4.087  12.883  -1.055  0.00  0.00    +0.145 HD
ATOM     17  H   UNL     1      -3.168  13.361  -2.378  0.00  0.00    +0.145 HD
ENDBRANCH   6  13
ENDBRANCH   3   5
BRANCH   1  18
ATOM     18  C   UNL     1      -3.086   7.203  -1.237  0.00  0.00    +0.328 C 
BRANCH  18  19
ATOM     19  O   UNL     1      -3.340   5.898  -0.654  0.00  0.00    -0.454 OA
BRANCH  19  20
ATOM     20  C   UNL     1      -2.297   5.059  -0.560  0.00  0.00    +0.328 C 
ATOM     21  O   UNL     1      -1.207   5.404  -0.952  0.00  0.00    -0.249 OA
BRANCH  20  22
ATOM     22  C   UNL     1      -2.484   3.687   0.034  0.00  0.00    +0.186 C 
BRANCH  22  23
ATOM     23  N   UNL     1      -1.206   2.971   0.024  0.00  0.00    -0.286 N 
ATOM     24  C   UNL     1      -1.187   1.624   0.017  0.00  0.00    +0.298 C 
ATOM     25  O   UNL     1      -2.232   1.002   0.018  0.00  0.00    -0.253 OA
ATOM     26  N   UNL     1      -0.011   0.966   0.007  0.00  0.00    -0.313 N 
ATOM     27  H   UNL     1      -0.372   3.468   0.023  0.00  0.00    +0.151 HD
ATOM     28  H   UNL     1       0.002  -0.004   0.002  0.00  0.00    +0.146 HD
ATOM     29  H   UNL     1       0.822   1.462   0.002  0.00  0.00    +0.146 HD
ENDBRANCH  22  23
BRANCH  22  31
ATOM     30  C   UNL     1      -2.020   4.701   2.270  0.00  0.00    +0.009 C 
ATOM     31  C   UNL     1      -2.984   3.818   1.474  0.00  0.00    +0.014 C 
ATOM     32  C   UNL     1      -4.376   4.453   1.475  0.00  0.00    +0.009 C 
ENDBRANCH  22  31
ENDBRANCH  20  22
ENDBRANCH  19  20
ENDBRANCH  18  19
ENDBRANCH   1  18
TORSDOF 8
