REMARK  Name = ZINC08763177
REMARK  11 active torsions:
REMARK  status: ('A' for Active; 'I' for Inactive)
REMARK    1  A    between atoms: C_1  and  C_2
REMARK    2  A    between atoms: C_2  and  C_39
REMARK    3  A    between atoms: C_4  and  C_8
REMARK    4  A    between atoms: C_4  and  C_31
REMARK    5  A    between atoms: C_8  and  C_9
REMARK    6  A    between atoms: C_9  and  N_80
REMARK    7  A    between atoms: C_10  and  C_11
REMARK    8  A    between atoms: C_10  and  N_80
REMARK    9  A    between atoms: C_23  and  C_30
REMARK   10  A    between atoms: C_34  and  O_37
REMARK   11  A    between atoms: O_37  and  C_38
REMARK                            x       y       z     vdW  Elec       q    Type
REMARK                         _______ _______ _______ _____ _____    ______ ____
ROOT
ATOM      1  N   UNL     1      -1.873  -1.094   7.871  0.00  0.00    +0.380 N 
ATOM      2  H   UNL     1      -1.377  -1.146   8.769  0.00  0.00    -0.086 HD
ATOM      3  H   UNL     1      -1.916  -2.029   7.449  0.00  0.00    -0.086 HD
ENDROOT
BRANCH   1   4
ATOM      4  C   UNL     1      -1.146  -0.184   6.966  0.00  0.00    -0.082 C 
BRANCH   4   5
ATOM      5  C   UNL     1       0.270  -0.721   6.747  0.00  0.00    -0.007 C 
BRANCH   5   9
ATOM      6  C   UNL     1      -0.654  -2.169   4.847  0.00  0.00    +0.041 C 
ATOM      7  C   UNL     1       0.073  -1.269   3.845  0.00  0.00    +0.065 C 
ATOM      8  C   UNL     1       0.160   0.153   4.406  0.00  0.00    +0.046 C 
ATOM      9  C   UNL     1       0.983   0.135   5.697  0.00  0.00    -0.001 C 
ATOM     10  C   UNL     1       2.364  -0.460   5.404  0.00  0.00    +0.039 C 
ATOM     11  C   UNL     1       2.192  -1.857   4.803  0.00  0.00    +0.161 C 
ATOM     12  O   UNL     1       1.391  -1.773   3.622  0.00  0.00    -0.374 OA
ATOM     13  C   UNL     1      -0.697  -1.251   2.523  0.00  0.00    +0.041 C 
BRANCH   9  14
ATOM     14  C   UNL     1       1.139   1.541   6.215  0.00  0.00    -0.041 A 
ATOM     15  C   UNL     1       1.942   1.787   7.313  0.00  0.00    +0.008 A 
ATOM     16  C   UNL     1       2.088   3.076   7.790  0.00  0.00    +0.046 A 
ATOM     17  C   UNL     1       1.427   4.123   7.165  0.00  0.00    +0.120 A 
ATOM     18  C   UNL     1       0.617   3.873   6.067  0.00  0.00    +0.046 A 
ATOM     19  C   UNL     1       0.479   2.584   5.591  0.00  0.00    +0.008 A 
BRANCH  17  20
ATOM     20  O   UNL     1       1.568   5.392   7.632  0.00  0.00    -0.495 OA
ATOM     21  C   UNL     1       0.858   6.421   6.940  0.00  0.00    +0.277 C 
ENDBRANCH  17  20
ENDBRANCH   9  14
ENDBRANCH   5   9
ENDBRANCH   4   5
ENDBRANCH   1   4
BRANCH   1  22
ATOM     22  C   UNL     1      -3.244  -0.600   8.101  0.00  0.00    -0.068 C 
BRANCH  22  23
ATOM     23  C   UNL     1      -3.972  -1.562   9.041  0.00  0.00    +0.087 C 
ATOM     24  C   UNL     1      -5.463  -1.140   9.206  0.00  0.00    +0.042 C 
ATOM     25  C   UNL     1      -6.261  -2.432   9.392  0.00  0.00    +0.016 C 
ATOM     26  C   UNL     1      -7.621  -2.137  10.017  0.00  0.00    +0.021 C 
ATOM     27  C   UNL     1      -8.410  -3.417  10.171  0.00  0.00    -0.073 C 
ATOM     28  C   UNL     1      -8.000  -4.532   9.620  0.00  0.00    +0.008 C 
ATOM     29  C   UNL     1      -9.689  -3.372  10.979  0.00  0.00    +0.030 C 
ATOM     30  C   UNL     1      -9.391  -2.721  12.334  0.00  0.00    +0.005 C 
ATOM     31  C   UNL     1      -8.731  -1.358  12.114  0.00  0.00    +0.007 C 
ATOM     32  C   UNL     1      -7.386  -1.545  11.415  0.00  0.00    -0.022 C 
ATOM     33  C   UNL     1      -6.688  -0.197  11.239  0.00  0.00    +0.052 C 
ATOM     34  C   UNL     1      -5.366  -0.353  10.527  0.00  0.00    +0.181 C 
ATOM     35  O   UNL     1      -4.383  -1.101  11.299  0.00  0.00    -0.461 OA
ATOM     36  C   UNL     1      -3.402  -1.467  10.444  0.00  0.00    +0.309 C 
ATOM     37  O   UNL     1      -2.253  -1.684  10.749  0.00  0.00    -0.251 OA
ATOM     38  C   UNL     1      -6.500  -2.479  12.242  0.00  0.00    +0.012 C 
ENDBRANCH  22  23
ENDBRANCH   1  22
TORSDOF 7
