REMARK  Name = ZINC63375569
REMARK  7 active torsions:
REMARK  status: ('A' for Active; 'I' for Inactive)
REMARK    1  A    between atoms: C_1  and  C_2
REMARK    2  A    between atoms: C_2  and  C_3
REMARK    3  A    between atoms: C_3  and  C_4
REMARK    4  A    between atoms: C_4  and  N_5
REMARK    5  A    between atoms: C_6  and  C_8
REMARK    6  A    between atoms: C_13  and  N_14
REMARK    7  A    between atoms: C_30  and  C_35
REMARK                            x       y       z     vdW  Elec       q    Type
REMARK                         _______ _______ _______ _____ _____    ______ ____
ROOT
ATOM      1  N   UNL     1       1.238  -6.628  -3.112  0.00  0.00    -0.192 N 
ATOM      2  C   UNL     1       0.016  -7.164  -2.911  0.00  0.00    +0.248 C 
ATOM      3  O   UNL     1      -1.002  -6.916  -3.522  0.00  0.00    -0.273 OA
ATOM      4  C   UNL     1       0.181  -8.139  -1.766  0.00  0.00    +0.169 C 
ATOM      5  C   UNL     1      -0.753  -7.750  -0.606  0.00  0.00    +0.065 C 
ATOM      6  C   UNL     1      -0.144  -8.338   0.645  0.00  0.00    -0.034 C 
ATOM      7  C   UNL     1      -0.666  -9.139   1.568  0.00  0.00    -0.001 A 
ATOM      8  C   UNL     1      -2.031  -9.655   1.756  0.00  0.00    +0.010 A 
ATOM      9  C   UNL     1      -2.217 -10.485   2.817  0.00  0.00    +0.001 A 
ATOM     10  C   UNL     1      -1.194 -10.847   3.699  0.00  0.00    +0.002 A 
ATOM     11  C   UNL     1       0.088 -10.412   3.607  0.00  0.00    +0.026 A 
ATOM     12  C   UNL     1       0.405  -9.528   2.535  0.00  0.00    +0.043 A 
ATOM     13  N   UNL     1       1.529  -8.953   2.223  0.00  0.00    -0.375 N 
ATOM     14  C   UNL     1       1.300  -8.090   1.063  0.00  0.00    +0.131 C 
ATOM     15  C   UNL     1       2.185  -8.496  -0.125  0.00  0.00    +0.135 C 
ATOM     16  N   UNL     1       1.581  -7.932  -1.344  0.00  0.00    -0.264 N 
ATOM     17  C   UNL     1       2.135  -7.098  -2.234  0.00  0.00    +0.317 C 
ATOM     18  O   UNL     1       3.313  -6.801  -2.242  0.00  0.00    -0.252 OA
ATOM     19  H   UNL     1       2.375  -9.075   2.682  0.00  0.00    +0.160 HD
ENDROOT
BRANCH   1  25
ATOM     20  C   UNL     1       1.414  -4.328  -3.862  0.00  0.00    +0.059 A 
ATOM     21  C   UNL     1       1.718  -3.412  -4.871  0.00  0.00    +0.015 A 
ATOM     22  C   UNL     1       2.126  -3.862  -6.108  0.00  0.00    +0.001 A 
ATOM     23  C   UNL     1       2.236  -5.220  -6.356  0.00  0.00    +0.002 A 
ATOM     24  C   UNL     1       1.940  -6.137  -5.368  0.00  0.00    +0.025 A 
ATOM     25  C   UNL     1       1.533  -5.702  -4.115  0.00  0.00    +0.058 A 
BRANCH  20  27
ATOM     26  N   UNL     1       0.865  -2.531  -2.296  0.00  0.00    -0.311 N 
ATOM     27  C   UNL     1       0.977  -3.853  -2.535  0.00  0.00    +0.246 C 
ATOM     28  O   UNL     1       0.719  -4.654  -1.657  0.00  0.00    -0.270 OA
ATOM     29  H   UNL     1       1.071  -1.892  -2.996  0.00  0.00    +0.149 HD
BRANCH  26  30
ATOM     30  C   UNL     1       0.431  -2.059  -0.978  0.00  0.00    +0.104 C 
BRANCH  30  31
ATOM     31  C   UNL     1       0.387  -0.530  -0.973  0.00  0.00    +0.018 C 
BRANCH  31  33
ATOM     32  C   UNL     1      -0.110   1.492   0.407  0.00  0.00    +0.004 C 
ATOM     33  C   UNL     1      -0.066  -0.037   0.402  0.00  0.00    -0.002 C 
ENDBRANCH  31  33
ENDBRANCH  30  31
ENDBRANCH  26  30
ENDBRANCH  20  27
ENDBRANCH   1  25
BRANCH  15  34
ATOM     34  C   UNL     1       2.232  -9.998  -0.242  0.00  0.00    -0.025 A 
ATOM     35  C   UNL     1       1.094 -10.701  -0.588  0.00  0.00    +0.005 A 
ATOM     36  C   UNL     1       1.138 -12.078  -0.696  0.00  0.00    +0.000 A 
ATOM     37  C   UNL     1       2.320 -12.753  -0.457  0.00  0.00    +0.000 A 
ATOM     38  C   UNL     1       3.459 -12.050  -0.111  0.00  0.00    +0.000 A 
ATOM     39  C   UNL     1       3.417 -10.672  -0.008  0.00  0.00    +0.005 A 
ENDBRANCH  15  34
TORSDOF 6
