REMARK  Name = ZINC62824518
REMARK  4 active torsions:
REMARK  status: ('A' for Active; 'I' for Inactive)
REMARK    1  A    between atoms: C_3  and  N_11
REMARK    2  A    between atoms: C_4  and  C_8
REMARK    3  A    between atoms: C_12  and  C_14
REMARK    4  A    between atoms: C_17  and  N_20
REMARK                            x       y       z     vdW  Elec       q    Type
REMARK                         _______ _______ _______ _____ _____    ______ ____
ROOT
ATOM      1  N   UNL     1       3.426   2.074  -0.039  0.00  0.00    -0.285 N 
ATOM      2  C   UNL     1       3.344   3.413  -0.171  0.00  0.00    +0.220 C 
ATOM      3  O   UNL     1       2.260   3.956  -0.181  0.00  0.00    -0.275 OA
ATOM      4  H   UNL     1       4.293   1.648   0.051  0.00  0.00    +0.155 HD
ENDROOT
BRANCH   1   7
ATOM      5  C   UNL     1      -0.031   1.001  -0.648  0.00  0.00    +0.016 A 
ATOM      6  C   UNL     1       1.117   1.767  -0.656  0.00  0.00    +0.025 A 
ATOM      7  C   UNL     1       2.268   1.303  -0.032  0.00  0.00    +0.048 A 
ATOM      8  C   UNL     1       2.256   0.052   0.607  0.00  0.00    +0.085 A 
ATOM      9  C   UNL     1       1.085  -0.712   0.606  0.00  0.00    +0.031 A 
ATOM     10  C   UNL     1      -0.046  -0.235  -0.019  0.00  0.00    +0.014 A 
ATOM     11  I   UNL     1      -1.800  -1.382  -0.019  0.00  0.00    -0.044 I 
BRANCH   8  12
ATOM     12  C   UNL     1       3.469  -0.451   1.272  0.00  0.00    +0.388 C 
ATOM     13  O   UNL     1       3.484  -1.580   1.742  0.00  0.00    -0.241 OA
ATOM     14  O   UNL     1       4.461   0.260   1.354  0.00  0.00    -0.241 OA
ENDBRANCH   8  12
ENDBRANCH   1   7
BRANCH   2  15
ATOM     15  C   UNL     1       4.600   4.235  -0.305  0.00  0.00    +0.075 C 
ATOM     16  C   UNL     1       5.372   3.788  -1.548  0.00  0.00    +0.011 C 
ATOM     17  C   UNL     1       6.647   4.623  -1.685  0.00  0.00    -0.016 C 
ATOM     18  C   UNL     1       6.276   6.102  -1.819  0.00  0.00    -0.075 C 
ATOM     19  C   UNL     1       5.505   6.549  -0.576  0.00  0.00    -0.016 C 
ATOM     20  C   UNL     1       4.230   5.714  -0.439  0.00  0.00    +0.011 C 
BRANCH  18  21
ATOM     21  N   UNL     1       7.500   6.903  -1.950  0.00  0.00    +0.380 N 
ATOM     22  H   UNL     1       8.009   6.608  -2.770  0.00  0.00    -0.090 HD
ATOM     23  H   UNL     1       7.256   7.878  -2.038  0.00  0.00    -0.090 HD
ATOM     24  H   UNL     1       8.076   6.774  -1.132  0.00  0.00    -0.090 HD
ENDBRANCH  18  21
ENDBRANCH   2  15
TORSDOF 4
