REMARK  Name = ZINC39342451
REMARK  3 active torsions:
REMARK  status: ('A' for Active; 'I' for Inactive)
REMARK    1  A    between atoms: C_3  and  C_9
REMARK    2  A    between atoms: C_21  and  N_25
REMARK    3  A    between atoms: C_22  and  C_23
REMARK                            x       y       z     vdW  Elec       q    Type
REMARK                         _______ _______ _______ _____ _____    ______ ____
ROOT
ATOM      1  C   UNL     1       3.671   2.186  -0.023  0.00  0.00    +0.086 C 
ATOM      2  C   UNL     1       3.727   3.077  -1.270  0.00  0.00    +0.171 C 
ATOM      3  C   UNL     1       3.250   2.306  -2.467  0.00  0.00    +0.233 C 
ATOM      4  O   UNL     1       3.830   1.290  -2.785  0.00  0.00    -0.274 OA
ATOM      5  N   UNL     1       2.197   2.715  -3.192  0.00  0.00    -0.238 N 
ATOM      6  C   UNL     1       1.519   3.828  -2.872  0.00  0.00    +0.332 C 
ATOM      7  O   UNL     1       0.587   4.177  -3.572  0.00  0.00    -0.250 OA
ATOM      8  N   UNL     1       1.843   4.566  -1.799  0.00  0.00    -0.131 NA
ATOM      9  C   UNL     1       2.841   4.273  -1.019  0.00  0.00    +0.204 C 
ATOM     10  O   UNL     1       3.120   5.028   0.068  0.00  0.00    -0.428 OA
ATOM     11  C   UNL     1       3.471   4.369   1.193  0.00  0.00    +0.200 C 
ATOM     12  C   UNL     1       3.751   3.048   1.209  0.00  0.00    +0.095 C 
ATOM     13  H   UNL     1       1.921   2.196  -3.963  0.00  0.00    +0.159 HD
ENDROOT
BRANCH   1  16
ATOM     14  C   UNL     1      -0.017   1.378   0.010  0.00  0.00    +0.002 A 
ATOM     15  C   UNL     1       1.171   2.086   0.002  0.00  0.00    +0.006 A 
ATOM     16  C   UNL     1       2.378   1.413  -0.013  0.00  0.00    -0.018 A 
ATOM     17  C   UNL     1       2.398   0.030  -0.021  0.00  0.00    +0.063 A 
ATOM     18  C   UNL     1       1.209  -0.679  -0.013  0.00  0.00    +0.060 A 
ATOM     19  C   UNL     1       0.002  -0.004   0.002  0.00  0.00    +0.021 A 
ATOM     20 CL   UNL     1       1.234  -2.415  -0.023  0.00  0.00    -0.082 Cl
ATOM     21 CL   UNL     1       3.914  -0.816  -0.041  0.00  0.00    -0.082 Cl
ENDBRANCH   1  16
BRANCH  11  22
ATOM     22  N   UNL     1       3.549   5.071   2.370  0.00  0.00    -0.328 N 
ATOM     23  H   UNL     1       3.353   6.021   2.382  0.00  0.00    +0.145 HD
ATOM     24  H   UNL     1       3.800   4.617   3.190  0.00  0.00    +0.145 HD
ENDBRANCH  11  22
BRANCH  12  25
ATOM     25  C   UNL     1       4.137   2.441   2.447  0.00  0.00    +0.100 C 
ATOM     26  N   UNL     1       4.444   1.960   3.429  0.00  0.00    -0.191 NA
ENDBRANCH  12  25
TORSDOF 3
