REMARK  Name = ZINC49153589
REMARK  7 active torsions:
REMARK  status: ('A' for Active; 'I' for Inactive)
REMARK    1  A    between atoms: N_4  and  C_6
REMARK    2  A    between atoms: C_6  and  C_8
REMARK    3  A    between atoms: C_6  and  C_17
REMARK    4  A    between atoms: C_8  and  N_9
REMARK    5  A    between atoms: N_12  and  N_13
REMARK    6  A    between atoms: N_13  and  C_14
REMARK    7  A    between atoms: C_14  and  N_16
REMARK                            x       y       z     vdW  Elec       q    Type
REMARK                         _______ _______ _______ _____ _____    ______ ____
ROOT
ATOM      1  C   UNL     1       3.083  -2.074   0.660  0.00  0.00    +0.091 C 
ENDROOT
BRANCH   1   2
ATOM      2  N   UNL     1       3.939  -1.009   1.187  0.00  0.00    -0.300 N 
ATOM      3  C   UNL     1       5.280  -1.126   1.119  0.00  0.00    +0.316 C 
ATOM      4  O   UNL     1       5.779  -2.116   0.620  0.00  0.00    -0.251 OA
ATOM      5  N   UNL     1       6.068  -0.146   1.603  0.00  0.00    -0.219 N 
ATOM      6  H   UNL     1       3.541  -0.219   1.585  0.00  0.00    +0.150 HD
ATOM      7  H   UNL     1       7.033  -0.230   1.554  0.00  0.00    +0.174 HD
BRANCH   5   8
ATOM      8  N   UNL     1       5.493   0.995   2.178  0.00  0.00    -0.245 N 
ATOM      9  H   UNL     1       4.528   1.080   2.227  0.00  0.00    +0.172 HD
BRANCH   8  10
ATOM     10  C   UNL     1       6.281   1.975   2.663  0.00  0.00    +0.144 C 
ATOM     11  S   UNL     1       5.578   3.370   3.365  0.00  0.00    -0.018 S 
BRANCH  10  12
ATOM     12  N   UNL     1       7.622   1.858   2.594  0.00  0.00    -0.340 N 
ATOM     13  H   UNL     1       8.020   1.068   2.196  0.00  0.00    +0.144 HD
ATOM     14  H   UNL     1       8.189   2.563   2.943  0.00  0.00    +0.144 HD
ENDBRANCH  10  12
ENDBRANCH   8  10
ENDBRANCH   5   8
ENDBRANCH   1   2
BRANCH   1  15
ATOM     15  C   UNL     1       1.621  -1.625   0.710  0.00  0.00    -0.046 C 
BRANCH  15  19
ATOM     16  C   UNL     1      -0.027   1.446  -0.369  0.00  0.00    -0.020 C 
ATOM     17  C   UNL     1       1.457   1.877  -0.410  0.00  0.00    -0.020 C 
ATOM     18  C   UNL     1       2.181   0.692   0.275  0.00  0.00    -0.078 C 
ATOM     19  N   UNL     1       1.425  -0.493  -0.206  0.00  0.00    +0.383 N 
ATOM     20  C   UNL     1       0.003  -0.086  -0.217  0.00  0.00    -0.078 C 
ATOM     21  H   UNL     1       1.723  -0.741  -1.137  0.00  0.00    -0.081 HD
ENDBRANCH  15  19
BRANCH  15  22
ATOM     22  C   UNL     1       0.716  -2.785   0.288  0.00  0.00    +0.005 C 
ATOM     23  C   UNL     1       0.845  -3.963   1.284  0.00  0.00    +0.032 C 
ATOM     24  C   UNL     1       0.841  -5.190   0.337  0.00  0.00    +0.160 C 
ATOM     25  O   UNL     1       1.586  -4.732  -0.812  0.00  0.00    -0.380 OA
ATOM     26  C   UNL     1       1.184  -3.371  -1.058  0.00  0.00    +0.162 C 
ENDBRANCH  15  22
ENDBRANCH   1  15
TORSDOF 7
