REMARK  Name = ZINC09515680
REMARK  6 active torsions:
REMARK  status: ('A' for Active; 'I' for Inactive)
REMARK    1  A    between atoms: C_1  and  C_2
REMARK    2  A    between atoms: C_2  and  C_4
REMARK    3  A    between atoms: C_2  and  N_14
REMARK    4  A    between atoms: C_7  and  S_10
REMARK    5  A    between atoms: S_10  and  N_13
REMARK    6  A    between atoms: C_15  and  C_17
REMARK                            x       y       z     vdW  Elec       q    Type
REMARK                         _______ _______ _______ _____ _____    ______ ____
ROOT
ATOM      1  C   UNL     1      -2.258   2.891   6.150  0.00  0.00    +0.033 C 
ATOM      2  C   UNL     1      -3.131   3.072   4.906  0.00  0.00    +0.100 C 
ENDROOT
BRANCH   2   3
ATOM      3  C   UNL     1      -2.353   2.659   3.683  0.00  0.00    -0.027 A 
ATOM      4  C   UNL     1      -2.559   1.412   3.122  0.00  0.00    +0.007 A 
ATOM      5  C   UNL     1      -1.846   1.033   2.000  0.00  0.00    +0.029 A 
ATOM      6  C   UNL     1      -0.927   1.900   1.439  0.00  0.00    +0.105 A 
ATOM      7  C   UNL     1      -0.717   3.145   2.004  0.00  0.00    +0.029 A 
ATOM      8  C   UNL     1      -1.434   3.526   3.123  0.00  0.00    +0.007 A 
BRANCH   6   9
ATOM      9  S   UNL     1      -0.017   1.417   0.010  0.00  0.00    +0.056 S 
ATOM     10  O   UNL     1       0.002  -0.004   0.002  0.00  0.00    -0.153 OA
ATOM     11  O   UNL     1       1.172   2.195   0.003  0.00  0.00    -0.153 OA
BRANCH   9  12
ATOM     12  N   UNL     1      -0.897   1.885  -1.312  0.00  0.00    -0.204 NA
ATOM     13  H   UNL     1      -1.201   1.223  -1.952  0.00  0.00    +0.144 HD
ATOM     14  H   UNL     1      -1.110   2.822  -1.446  0.00  0.00    +0.144 HD
ENDBRANCH   9  12
ENDBRANCH   6   9
ENDBRANCH   2   3
BRANCH   2  15
ATOM     15  N   UNL     1      -3.522   4.478   4.784  0.00  0.00    -0.305 N 
ATOM     16  C   UNL     1      -4.600   4.938   5.449  0.00  0.00    +0.245 C 
ATOM     17  O   UNL     1      -5.248   4.185   6.150  0.00  0.00    -0.270 OA
ATOM     18  H   UNL     1      -3.004   5.079   4.225  0.00  0.00    +0.150 HD
BRANCH  16  19
ATOM     19  C   UNL     1      -4.994   6.355   5.326  0.00  0.00    +0.042 A 
ATOM     20  C   UNL     1      -6.115   6.832   6.011  0.00  0.00    +0.062 A 
ATOM     21  C   UNL     1      -6.478   8.160   5.899  0.00  0.00    +0.168 A 
ATOM     22  C   UNL     1      -5.731   9.021   5.093  0.00  0.00    +0.184 A 
ATOM     23  C   UNL     1      -4.620   8.545   4.408  0.00  0.00    +0.087 A 
ATOM     24  C   UNL     1      -4.251   7.221   4.521  0.00  0.00    +0.037 A 
ATOM     25 CL   UNL     1      -3.695   9.619   3.407  0.00  0.00    -0.080 Cl
ATOM     26  O   UNL     1      -6.293  10.262   5.146  0.00  0.00    -0.451 OA
ATOM     27  C   UNL     1      -7.143  10.252   6.308  0.00  0.00    +0.466 C 
ATOM     28  O   UNL     1      -7.506   8.866   6.454  0.00  0.00    -0.453 OA
ENDBRANCH  16  19
ENDBRANCH   2  15
TORSDOF 5
