REMARK  Name = ZINC37507192
REMARK  6 active torsions:
REMARK  status: ('A' for Active; 'I' for Inactive)
REMARK    1  A    between atoms: C_1  and  C_2
REMARK    2  A    between atoms: C_2  and  C_3
REMARK    3  A    between atoms: C_3  and  C_5
REMARK    4  A    between atoms: C_3  and  N_17
REMARK    5  A    between atoms: N_7  and  C_8
REMARK    6  A    between atoms: C_13  and  C_16
REMARK                            x       y       z     vdW  Elec       q    Type
REMARK                         _______ _______ _______ _____ _____    ______ ____
ROOT
ATOM      1  C   UNL     1       0.847  -1.998  -1.206  0.00  0.00    +0.199 C 
ATOM      2  O   UNL     1       0.073  -2.695  -1.827  0.00  0.00    -0.278 OA
ATOM      3  N   UNL     1       1.823  -2.566  -0.469  0.00  0.00    -0.314 N 
ATOM      4  H   UNL     1       2.442  -2.009   0.028  0.00  0.00    +0.149 HD
ENDROOT
BRANCH   3   5
ATOM      5  C   UNL     1       1.948  -4.025  -0.419  0.00  0.00    +0.073 C 
ATOM      6  C   UNL     1       2.772  -4.507  -1.615  0.00  0.00    +0.022 C 
ATOM      7  C   UNL     1       4.164  -3.873  -1.563  0.00  0.00    +0.002 C 
ATOM      8  C   UNL     1       4.862  -4.281  -0.265  0.00  0.00    +0.003 C 
ATOM      9  C   UNL     1       4.038  -3.799   0.931  0.00  0.00    -0.012 C 
ATOM     10  C   UNL     1       2.647  -4.433   0.879  0.00  0.00    +0.025 C 
ATOM     11  C   UNL     1       4.737  -4.207   2.229  0.00  0.00    +0.007 C 
ENDBRANCH   3   5
BRANCH   1  12
ATOM     12  C   UNL     1       0.718  -0.497  -1.257  0.00  0.00    +0.012 C 
BRANCH  12  13
ATOM     13  N   UNL     1      -0.057  -0.113  -2.444  0.00  0.00    +0.386 N 
ATOM     14  H   UNL     1      -0.143   0.892  -2.478  0.00  0.00    -0.089 HD
ATOM     15  H   UNL     1       0.415  -0.438  -3.274  0.00  0.00    -0.089 HD
ATOM     16  H   UNL     1      -0.975  -0.528  -2.395  0.00  0.00    -0.089 HD
ENDBRANCH  12  13
BRANCH  12  18
ATOM     17  C   UNL     1      -0.019   1.526   0.010  0.00  0.00    +0.002 C 
ATOM     18  C   UNL     1       0.002  -0.004   0.002  0.00  0.00    -0.011 C 
ENDBRANCH  12  18
ENDBRANCH   1  12
TORSDOF 4
