REMARK  Name = ZINC05812896
REMARK  11 active torsions:
REMARK  status: ('A' for Active; 'I' for Inactive)
REMARK    1  A    between atoms: C_1  and  N_2
REMARK    2  A    between atoms: C_5  and  N_28
REMARK    3  A    between atoms: C_6  and  N_11
REMARK    4  A    between atoms: C_8  and  S_9
REMARK    5  A    between atoms: S_9  and  C_10
REMARK    6  A    between atoms: N_11  and  C_12
REMARK    7  A    between atoms: C_14  and  O_27
REMARK    8  A    between atoms: C_16  and  O_26
REMARK    9  A    between atoms: C_18  and  O_25
REMARK   10  A    between atoms: C_20  and  C_23
REMARK   11  A    between atoms: C_23  and  O_24
REMARK                            x       y       z     vdW  Elec       q    Type
REMARK                         _______ _______ _______ _____ _____    ______ ____
ROOT
ATOM      1  N   UNL     1       2.316   1.662  -4.126  0.00  0.00    -0.300 N 
ATOM      2  H   UNL     1       2.789   1.534  -4.963  0.00  0.00    +0.150 HD
ENDROOT
BRANCH   1   8
ATOM      3  C   UNL     1       0.653  -2.691  -1.076  0.00  0.00    +0.154 C 
ATOM      4  N   UNL     1       1.103  -1.571  -1.907  0.00  0.00    -0.289 N 
ATOM      5  C   UNL     1       1.753  -1.810  -3.065  0.00  0.00    +0.277 A 
ATOM      6  O   UNL     1       1.972  -2.955  -3.430  0.00  0.00    -0.266 OA
ATOM      7  C   UNL     1       2.179  -0.721  -3.838  0.00  0.00    +0.130 A 
ATOM      8  C   UNL     1       1.909   0.565  -3.385  0.00  0.00    +0.150 A 
ATOM      9  N   UNL     1       1.255   0.738  -2.231  0.00  0.00    -0.206 NA
ATOM     10  C   UNL     1       0.859  -0.290  -1.510  0.00  0.00    +0.173 A 
BRANCH   7  11
ATOM     11  N   UNL     1       2.868  -0.927  -5.053  0.00  0.00    -0.351 N 
ATOM     12  H   UNL     1       3.158  -0.167  -5.581  0.00  0.00    +0.143 HD
ATOM     13  H   UNL     1       3.050  -1.829  -5.361  0.00  0.00    +0.143 HD
ENDBRANCH   7  11
BRANCH  10  14
ATOM     14  S   UNL     1       0.002  -0.004   0.002  0.00  0.00    -0.091 S 
ATOM     15  C   UNL     1      -0.022   1.806   0.012  0.00  0.00    +0.093 C 
ENDBRANCH  10  14
ENDBRANCH   1   8
BRANCH   1  16
ATOM     16  C   UNL     1       2.030   3.016  -3.646  0.00  0.00    +0.236 C 
ATOM     17  C   UNL     1       1.621   3.901  -4.826  0.00  0.00    +0.192 C 
ATOM     18  C   UNL     1       1.383   5.329  -4.326  0.00  0.00    +0.178 C 
ATOM     19  C   UNL     1       2.651   5.834  -3.632  0.00  0.00    +0.177 C 
ATOM     20  C   UNL     1       3.020   4.874  -2.498  0.00  0.00    +0.177 C 
ATOM     21  O   UNL     1       3.198   3.559  -3.027  0.00  0.00    -0.348 OA
BRANCH  19  22
ATOM     22  O   UNL     1       3.722   5.891  -4.577  0.00  0.00    -0.386 OA
ATOM     23  H   UNL     1       3.554   6.479  -5.327  0.00  0.00    +0.210 HD
ENDBRANCH  19  22
BRANCH  18  24
ATOM     24  O   UNL     1       1.072   6.178  -5.433  0.00  0.00    -0.386 OA
ATOM     25  H   UNL     1       0.282   5.912  -5.923  0.00  0.00    +0.210 HD
ENDBRANCH  18  24
BRANCH  17  26
ATOM     26  O   UNL     1       0.420   3.393  -5.411  0.00  0.00    -0.385 OA
ATOM     27  H   UNL     1       0.498   2.489  -5.746  0.00  0.00    +0.210 HD
ENDBRANCH  17  26
BRANCH  20  28
ATOM     28  C   UNL     1       4.320   5.339  -1.838  0.00  0.00    +0.190 C 
BRANCH  28  29
ATOM     29  O   UNL     1       4.603   4.513  -0.707  0.00  0.00    -0.392 OA
ATOM     30  H   UNL     1       5.415   4.751  -0.239  0.00  0.00    +0.210 HD
ENDBRANCH  28  29
ENDBRANCH  20  28
ENDBRANCH   1  16
TORSDOF 9
