REMARK  Name = ZINC12705168
REMARK  9 active torsions:
REMARK  status: ('A' for Active; 'I' for Inactive)
REMARK    1  A    between atoms: C_1  and  C_2
REMARK    2  A    between atoms: C_2  and  C_4
REMARK    3  A    between atoms: C_2  and  N_13
REMARK    4  A    between atoms: N_6  and  C_7
REMARK    5  A    between atoms: N_13  and  C_14
REMARK    6  A    between atoms: C_14  and  C_15
REMARK    7  A    between atoms: C_20  and  C_22
REMARK    8  A    between atoms: C_23  and  N_30
REMARK    9  A    between atoms: C_24  and  C_27
REMARK                            x       y       z     vdW  Elec       q    Type
REMARK                         _______ _______ _______ _____ _____    ______ ____
ROOT
ATOM      1  N   UNL     1      -2.570   1.242   0.003  0.00  0.00    -0.281 N 
ATOM      2  C   UNL     1      -3.566   1.312   0.908  0.00  0.00    +0.257 C 
ATOM      3  O   UNL     1      -3.568   2.195   1.745  0.00  0.00    -0.269 OA
ENDROOT
BRANCH   2   4
ATOM      4  C   UNL     1      -4.647   0.324   0.884  0.00  0.00    +0.115 A 
ATOM      5  C   UNL     1      -5.819   0.276   1.641  0.00  0.00    +0.076 A 
ATOM      6  C   UNL     1      -6.612  -0.828   1.328  0.00  0.00    +0.155 A 
ATOM      7  N   UNL     1      -6.201  -1.676   0.411  0.00  0.00    -0.203 NA
ATOM      8  S   UNL     1      -4.814  -1.142  -0.113  0.00  0.00    +0.019 S 
BRANCH   6   9
ATOM      9  C   UNL     1      -7.894  -1.045   2.022  0.00  0.00    +0.262 C 
ATOM     10  O   UNL     1      -8.268  -0.257   2.870  0.00  0.00    -0.269 OA
ATOM     11  N   UNL     1      -8.652  -2.118   1.719  0.00  0.00    -0.324 N 
ATOM     12  H   UNL     1      -8.354  -2.746   1.043  0.00  0.00    +0.145 HD
ATOM     13  H   UNL     1      -9.496  -2.260   2.176  0.00  0.00    +0.145 HD
ENDBRANCH   6   9
BRANCH   5  14
ATOM     14  N   UNL     1      -6.159   1.224   2.597  0.00  0.00    -0.355 N 
ATOM     15  H   UNL     1      -5.567   1.973   2.769  0.00  0.00    +0.142 HD
ATOM     16  H   UNL     1      -6.989   1.137   3.092  0.00  0.00    +0.142 HD
ENDBRANCH   5  14
ENDBRANCH   2   4
BRANCH   1  18
ATOM     17  C   UNL     1      -1.272   2.892  -1.253  0.00  0.00    +0.038 C 
ATOM     18  C   UNL     1      -1.439   2.171   0.086  0.00  0.00    +0.159 C 
BRANCH  18  19
ATOM     19  C   UNL     1      -0.182   1.403   0.405  0.00  0.00    +0.234 C 
ATOM     20  O   UNL     1      -0.169   0.194   0.310  0.00  0.00    -0.274 OA
ATOM     21  N   UNL     1       0.930   2.061   0.788  0.00  0.00    -0.311 N 
ATOM     22  H   UNL     1       0.920   3.028   0.864  0.00  0.00    +0.149 HD
BRANCH  21  23
ATOM     23  C   UNL     1       2.155   1.316   1.091  0.00  0.00    +0.073 C 
ATOM     24  C   UNL     1       2.113   0.837   2.544  0.00  0.00    +0.022 C 
ATOM     25  C   UNL     1       3.392   0.059   2.861  0.00  0.00    +0.002 C 
ATOM     26  C   UNL     1       4.606   0.967   2.658  0.00  0.00    +0.000 C 
ATOM     27  C   UNL     1       4.647   1.446   1.205  0.00  0.00    +0.002 C 
ATOM     28  C   UNL     1       3.369   2.224   0.888  0.00  0.00    +0.022 C 
ENDBRANCH  21  23
ENDBRANCH  18  19
ENDBRANCH   1  18
BRANCH   1  29
ATOM     29  C   UNL     1      -2.617   0.239  -1.063  0.00  0.00    +0.151 C 
BRANCH  29  30
ATOM     30  C   UNL     1      -3.480   0.744  -2.190  0.00  0.00    +0.007 A 
ATOM     31  C   UNL     1      -3.109   1.357  -3.341  0.00  0.00    +0.013 A 
ATOM     32  C   UNL     1      -4.085   1.738  -4.242  0.00  0.00    +0.008 A 
ATOM     33  C   UNL     1      -5.385   1.488  -3.949  0.00  0.00    +0.045 A 
ATOM     34  S   UNL     1      -5.256   0.685  -2.360  0.00  0.00    -0.100 S 
ENDBRANCH  29  30
ENDBRANCH   1  29
TORSDOF 8
