REMARK  Name = ZINC36129061
REMARK  8 active torsions:
REMARK  status: ('A' for Active; 'I' for Inactive)
REMARK    1  A    between atoms: C_1  and  C_2
REMARK    2  A    between atoms: C_2  and  N_3
REMARK    3  A    between atoms: C_4  and  C_6
REMARK    4  A    between atoms: C_6  and  C_8
REMARK    5  A    between atoms: C_6  and  N_9
REMARK    6  A    between atoms: N_9  and  S_10
REMARK    7  A    between atoms: S_10  and  C_13
REMARK    8  A    between atoms: C_18  and  N_19
REMARK                            x       y       z     vdW  Elec       q    Type
REMARK                         _______ _______ _______ _____ _____    ______ ____
ROOT
ATOM      1  S   UNL     1      -4.030  -4.560   0.869  0.00  0.00    +0.061 S 
ATOM      2  O   UNL     1      -3.729  -5.949   0.887  0.00  0.00    -0.153 OA
ATOM      3  O   UNL     1      -4.005  -3.761   2.044  0.00  0.00    -0.153 OA
ENDROOT
BRANCH   1   4
ATOM      4  C   UNL     1      -5.647  -4.403   0.187  0.00  0.00    +0.126 A 
ATOM      5  C   UNL     1      -6.600  -3.643   0.837  0.00  0.00    +0.031 A 
ATOM      6  C   UNL     1      -7.869  -3.519   0.302  0.00  0.00    +0.017 A 
ATOM      7  C   UNL     1      -8.189  -4.155  -0.884  0.00  0.00    +0.020 A 
ATOM      8  C   UNL     1      -7.240  -4.918  -1.538  0.00  0.00    +0.040 A 
ATOM      9  C   UNL     1      -5.962  -5.039  -1.006  0.00  0.00    +0.052 A 
ATOM     10 BR   UNL     1      -9.926  -3.983  -1.611  0.00  0.00    -0.050 Br
BRANCH   9  11
ATOM     11  N   UNL     1      -4.999  -5.804  -1.668  0.00  0.00    -0.356 N 
ATOM     12  H   UNL     1      -4.100  -5.867  -1.309  0.00  0.00    +0.142 HD
ATOM     13  H   UNL     1      -5.229  -6.272  -2.486  0.00  0.00    +0.142 HD
ENDBRANCH   9  11
ENDBRANCH   1   4
BRANCH   1  14
ATOM     14  N   UNL     1      -2.977  -3.861  -0.201  0.00  0.00    -0.178 NA
ATOM     15  H   UNL     1      -2.306  -4.403  -0.645  0.00  0.00    +0.149 HD
BRANCH  14  16
ATOM     16  C   UNL     1      -3.059  -2.425  -0.477  0.00  0.00    +0.159 C 
ATOM     17  C   UNL     1      -3.303  -2.206  -1.972  0.00  0.00    +0.035 C 
BRANCH  16  19
ATOM     18  N   UNL     1      -1.612  -0.433  -0.241  0.00  0.00    -0.314 N 
ATOM     19  C   UNL     1      -1.767  -1.762  -0.077  0.00  0.00    +0.231 C 
ATOM     20  O   UNL     1      -0.866  -2.423   0.393  0.00  0.00    -0.274 OA
ATOM     21  H   UNL     1      -2.333   0.097  -0.617  0.00  0.00    +0.149 HD
BRANCH  18  23
ATOM     22  C   UNL     1      -0.442   1.712  -0.140  0.00  0.00    +0.024 C 
ATOM     23  C   UNL     1      -0.356   0.212   0.149  0.00  0.00    +0.101 C 
ENDBRANCH  18  23
ENDBRANCH  16  19
ENDBRANCH  14  16
ENDBRANCH   1  14
TORSDOF 6
