REMARK  Name = ZINC31166820
REMARK  10 active torsions:
REMARK  status: ('A' for Active; 'I' for Inactive)
REMARK    1  A    between atoms: C_1  and  C_2
REMARK    2  A    between atoms: C_6  and  O_19
REMARK    3  A    between atoms: C_8  and  O_18
REMARK    4  A    between atoms: C_15  and  C_17
REMARK    5  A    between atoms: O_19  and  C_20
REMARK    6  A    between atoms: C_22  and  O_35
REMARK    7  A    between atoms: C_24  and  O_34
REMARK    8  A    between atoms: C_26  and  O_33
REMARK    9  A    between atoms: C_28  and  C_31
REMARK   10  A    between atoms: C_31  and  O_32
REMARK                            x       y       z     vdW  Elec       q    Type
REMARK                         _______ _______ _______ _____ _____    ______ ____
ROOT
ATOM      1  C   UNL     1       2.691  -8.088   4.617  0.00  0.00    +0.044 C 
ATOM      2  C   UNL     1       2.588  -6.585   4.583  0.00  0.00    -0.036 A 
ATOM      3  C   UNL     1       2.122  -5.970   3.469  0.00  0.00    +0.013 A 
ATOM      4  C   UNL     1       2.019  -4.564   3.422  0.00  0.00    -0.007 A 
ATOM      5  C   UNL     1       1.537  -3.918   2.275  0.00  0.00    +0.054 A 
ATOM      6  C   UNL     1       1.444  -2.543   2.248  0.00  0.00    +0.128 A 
ATOM      7  C   UNL     1       1.829  -1.780   3.350  0.00  0.00    +0.091 A 
ATOM      8  C   UNL     1       2.301  -2.387   4.492  0.00  0.00    +0.132 A 
ATOM      9  C   UNL     1       2.405  -3.791   4.544  0.00  0.00    +0.067 A 
ATOM     10  C   UNL     1       2.890  -4.440   5.697  0.00  0.00    +0.150 A 
ATOM     11  C   UNL     1       2.977  -5.835   5.706  0.00  0.00    +0.068 A 
ATOM     12  C   UNL     1       3.486  -6.493   6.921  0.00  0.00    +0.193 A 
ATOM     13  O   UNL     1       3.585  -7.707   6.992  0.00  0.00    -0.287 OA
ATOM     14  C   UNL     1       3.856  -5.657   8.008  0.00  0.00    +0.093 A 
ATOM     15  C   UNL     1       3.730  -4.322   7.891  0.00  0.00    +0.106 A 
ATOM     16  O   UNL     1       3.266  -3.737   6.781  0.00  0.00    -0.459 OA
ATOM     17  C   UNL     1       4.128  -3.453   9.055  0.00  0.00    +0.086 C 
ENDROOT
BRANCH   8  18
ATOM     18  O   UNL     1       2.669  -1.636   5.562  0.00  0.00    -0.506 OA
ATOM     19  H   UNL     1       3.046  -2.123   6.473  0.00  0.00    +0.292 HD
ENDBRANCH   8  18
BRANCH   6  20
ATOM     20  O   UNL     1       0.976  -1.923   1.133  0.00  0.00    -0.461 OA
BRANCH  20  21
ATOM     21  C   UNL     1       0.903  -0.497   1.166  0.00  0.00    +0.339 C 
ATOM     22  C   UNL     1       0.132   0.004  -0.058  0.00  0.00    +0.214 C 
ATOM     23  C   UNL     1       0.110   1.535  -0.048  0.00  0.00    +0.180 C 
ATOM     24  C   UNL     1       1.550   2.055  -0.015  0.00  0.00    +0.177 C 
ATOM     25  C   UNL     1       2.267   1.476   1.207  0.00  0.00    +0.179 C 
ATOM     26  O   UNL     1       2.224   0.049   1.151  0.00  0.00    -0.331 OA
BRANCH  24  27
ATOM     27  O   UNL     1       2.231   1.650  -1.204  0.00  0.00    -0.386 OA
ATOM     28  H   UNL     1       3.283   1.933  -1.360  0.00  0.00    +0.210 HD
ENDBRANCH  24  27
BRANCH  23  29
ATOM     29  O   UNL     1      -0.544   2.012  -1.225  0.00  0.00    -0.386 OA
ATOM     30  H   UNL     1      -0.656   3.094  -1.392  0.00  0.00    +0.210 HD
ENDBRANCH  23  29
BRANCH  22  31
ATOM     31  O   UNL     1      -1.207  -0.494  -0.017  0.00  0.00    -0.383 OA
ATOM     32  H   UNL     1      -1.914  -0.237  -0.819  0.00  0.00    +0.210 HD
ENDBRANCH  22  31
BRANCH  25  33
ATOM     33  C   UNL     1       3.724   1.943   1.214  0.00  0.00    +0.190 C 
BRANCH  33  34
ATOM     34  O   UNL     1       4.361   1.498   2.413  0.00  0.00    -0.392 OA
ATOM     35  H   UNL     1       5.419   1.740   2.596  0.00  0.00    +0.210 HD
ENDBRANCH  33  34
ENDBRANCH  25  33
ENDBRANCH  20  21
ENDBRANCH   6  20
TORSDOF 8
