REMARK  Name = ZINC18030435
REMARK  5 active torsions:
REMARK  status: ('A' for Active; 'I' for Inactive)
REMARK    1  A    between atoms: C_1  and  C_2
REMARK    2  A    between atoms: C_5  and  C_21
REMARK    3  A    between atoms: C_5  and  C_22
REMARK    4  A    between atoms: C_13  and  N_16
REMARK    5  A    between atoms: C_14  and  O_15
REMARK                            x       y       z     vdW  Elec       q    Type
REMARK                         _______ _______ _______ _____ _____    ______ ____
ROOT
ATOM      1  C   UNL     1      -0.019   1.526   0.010  0.00  0.00    +0.012 C 
ATOM      2  C   UNL     1       0.002  -0.004   0.002  0.00  0.00    +0.020 C 
ATOM      3  C   UNL     1       0.718  -0.498  -1.260  0.00  0.00    +0.036 C 
ATOM      4  C   UNL     1       0.850  -2.026  -1.292  0.00  0.00    +0.044 C 
ATOM      5  N   UNL     1       1.527  -2.460  -0.061  0.00  0.00    -0.304 N 
ATOM      6  C   UNL     1       1.430  -1.694   1.084  0.00  0.00    +0.058 A 
ATOM      7  C   UNL     1       0.727  -0.501   1.218  0.00  0.00    -0.020 A 
ATOM      8  C   UNL     1       0.770   0.098   2.453  0.00  0.00    +0.006 A 
ATOM      9  C   UNL     1       1.483  -0.479   3.499  0.00  0.00    +0.001 A 
ATOM     10  C   UNL     1       2.186  -1.671   3.372  0.00  0.00    +0.012 A 
ATOM     11  C   UNL     1       2.151  -2.290   2.125  0.00  0.00    +0.031 A 
ATOM     12  C   UNL     1       2.715  -3.507   1.544  0.00  0.00    +0.152 A 
ATOM     13  C   UNL     1       2.288  -3.543   0.201  0.00  0.00    +0.222 A 
ATOM     14  C   UNL     1       1.675  -2.446  -2.510  0.00  0.00    +0.034 C 
ATOM     15  C   UNL     1      -0.540  -2.660  -1.367  0.00  0.00    +0.034 C 
ENDROOT
BRANCH  12  16
ATOM     16  N   UNL     1       3.485  -4.410   2.164  0.00  0.00    -0.166 NA
ATOM     17  N   UNL     1       3.913  -5.443   1.522  0.00  0.00    -0.256 N 
ATOM     18  C   UNL     1       4.688  -6.351   2.147  0.00  0.00    +0.165 C 
ATOM     19  N   UNL     1       5.021  -6.177   3.467  0.00  0.00    -0.378 N 
ATOM     20  S   UNL     1       5.240  -7.681   1.320  0.00  0.00    -0.012 SA
ATOM     21  H   UNL     1       4.699  -5.400   3.951  0.00  0.00    +0.158 HD
ATOM     22  H   UNL     1       3.678  -5.566   0.589  0.00  0.00    +0.191 HD
ATOM     23  H   UNL     1       5.579  -6.831   3.917  0.00  0.00    +0.158 HD
ENDBRANCH  12  16
BRANCH  13  24
ATOM     24  O   UNL     1       2.594  -4.513  -0.687  0.00  0.00    -0.492 OA
ATOM     25  H   UNL     1       3.405  -4.346  -1.187  0.00  0.00    +0.294 HD
ENDBRANCH  13  24
TORSDOF 2
