REMARK  Name = ZINC40777817
REMARK  6 active torsions:
REMARK  status: ('A' for Active; 'I' for Inactive)
REMARK    1  A    between atoms: C_4  and  N_7
REMARK    2  A    between atoms: N_7  and  C_8
REMARK    3  A    between atoms: N_7  and  N_14
REMARK    4  A    between atoms: C_16  and  N_23
REMARK    5  A    between atoms: C_17  and  N_21
REMARK    6  A    between atoms: N_21  and  N_22
REMARK                            x       y       z     vdW  Elec       q    Type
REMARK                         _______ _______ _______ _____ _____    ______ ____
ROOT
ATOM      1  N   UNL     1       4.729   0.036  -0.550  0.00  0.00    -0.242 N 
ATOM      2  C   UNL     1       5.574   0.730   0.308  0.00  0.00    +0.161 A 
ATOM      3  C   UNL     1       6.679   1.422  -0.192  0.00  0.00    +0.106 A 
ATOM      4  C   UNL     1       7.496   2.102   0.713  0.00  0.00    +0.135 A 
ATOM      5  N   UNL     1       7.192   2.065   2.009  0.00  0.00    -0.332 N 
ATOM      6  C   UNL     1       6.139   1.400   2.439  0.00  0.00    +0.200 A 
ATOM      7  N   UNL     1       5.340   0.750   1.618  0.00  0.00    -0.219 NA
ATOM      8  H   UNL     1       4.907   0.027  -1.503  0.00  0.00    +0.172 HD
ATOM      9  H   UNL     1       7.754   2.535   2.645  0.00  0.00    +0.168 HD
ENDROOT
BRANCH   3  10
ATOM     10  N   UNL     1       6.962   1.432  -1.567  0.00  0.00    -0.353 N 
ATOM     11  H   UNL     1       6.386   0.955  -2.185  0.00  0.00    +0.143 HD
ATOM     12  H   UNL     1       7.734   1.917  -1.900  0.00  0.00    +0.143 HD
ENDBRANCH   3  10
BRANCH   4  13
ATOM     13  N   UNL     1       8.609   2.805   0.269  0.00  0.00    -0.267 N 
ATOM     14  H   UNL     1       8.823   2.827  -0.677  0.00  0.00    +0.167 HD
BRANCH  13  15
ATOM     15  N   UNL     1       9.401   3.467   1.164  0.00  0.00    -0.255 NA
ATOM     16  H   UNL     1      10.166   3.930   0.697  0.00  0.00    +0.140 HD
ATOM     17  H   UNL     1       8.861   4.123   1.709  0.00  0.00    +0.140 HD
ENDBRANCH  13  15
ENDBRANCH   4  13
BRANCH   1  18
ATOM     18  N   UNL     1       3.620  -0.649  -0.037  0.00  0.00    -0.221 N 
BRANCH  18  22
ATOM     19  C   UNL     1       0.252   1.467   1.196  0.00  0.00    +0.000 A 
ATOM     20  C   UNL     1       0.351   0.113   1.460  0.00  0.00    +0.002 A 
ATOM     21  C   UNL     1       1.467  -0.592   1.052  0.00  0.00    +0.025 A 
ATOM     22  C   UNL     1       2.490   0.061   0.376  0.00  0.00    +0.053 A 
ATOM     23  C   UNL     1       2.387   1.421   0.112  0.00  0.00    +0.025 A 
ATOM     24  C   UNL     1       1.268   2.119   0.522  0.00  0.00    +0.002 A 
ENDBRANCH  18  22
BRANCH  18  25
ATOM     25  C   UNL     1       3.644  -2.043   0.060  0.00  0.00    +0.053 A 
ATOM     26  C   UNL     1       2.640  -2.800  -0.530  0.00  0.00    +0.025 A 
ATOM     27  C   UNL     1       2.667  -4.177  -0.431  0.00  0.00    +0.002 A 
ATOM     28  C   UNL     1       3.692  -4.803   0.254  0.00  0.00    +0.000 A 
ATOM     29  C   UNL     1       4.693  -4.052   0.843  0.00  0.00    +0.002 A 
ATOM     30  C   UNL     1       4.676  -2.675   0.743  0.00  0.00    +0.025 A 
ENDBRANCH  18  25
ENDBRANCH   1  18
TORSDOF 6
