REMARK  Name = ZINC02258763
REMARK  4 active torsions:
REMARK  status: ('A' for Active; 'I' for Inactive)
REMARK    1  A    between atoms: C_4  and  C_7
REMARK    2  A    between atoms: C_7  and  C_9
REMARK    3  A    between atoms: C_11  and  C_33
REMARK    4  A    between atoms: C_33  and  C_35
REMARK                            x       y       z     vdW  Elec       q    Type
REMARK                         _______ _______ _______ _____ _____    ______ ____
ROOT
ATOM      1  C   UNL     1       0.002  -0.004   0.002  0.00  0.00    +0.140 C 
ATOM      2  C   UNL     1       1.146  -0.293  -1.016  0.00  0.00    +0.108 C 
ATOM      3  C   UNL     1       2.204   0.739  -0.562  0.00  0.00    +0.107 C 
ATOM      4  C   UNL     1       3.123   1.078  -1.679  0.00  0.00    -0.008 A 
ATOM      5  C   UNL     1       2.902   1.593  -2.938  0.00  0.00    +0.006 A 
ATOM      6  C   UNL     1       4.014   1.803  -3.745  0.00  0.00    +0.000 A 
ATOM      7  C   UNL     1       5.287   1.488  -3.314  0.00  0.00    +0.002 A 
ATOM      8  C   UNL     1       5.519   0.951  -2.058  0.00  0.00    +0.023 A 
ATOM      9  C   UNL     1       4.412   0.739  -1.237  0.00  0.00    +0.038 A 
ATOM     10  N   UNL     1       4.356   0.196   0.035  0.00  0.00    -0.284 N 
ATOM     11  C   UNL     1       3.094   0.153   0.510  0.00  0.00    +0.231 C 
ATOM     12  O   UNL     1       2.743  -0.272   1.593  0.00  0.00    -0.274 OA
ATOM     13  C   UNL     1       1.398   1.908  -0.001  0.00  0.00    +0.107 C 
ATOM     14  C   UNL     1      -1.104   2.311   0.050  0.00  0.00    +0.054 C 
ATOM     15  C   UNL     1      -0.945   3.555  -0.434  0.00  0.00    +0.022 C 
ATOM     16  C   UNL     1       0.364   3.968  -0.976  0.00  0.00    -0.019 A 
ATOM     17  C   UNL     1       1.510   3.191  -0.764  0.00  0.00    -0.020 A 
ATOM     18  C   UNL     1       2.725   3.654  -1.224  0.00  0.00    +0.006 A 
ATOM     19  C   UNL     1       2.804   4.825  -1.958  0.00  0.00    +0.000 A 
ATOM     20  C   UNL     1       1.666   5.565  -2.212  0.00  0.00    +0.001 A 
ATOM     21  C   UNL     1       0.449   5.153  -1.710  0.00  0.00    +0.008 A 
ATOM     22  H   UNL     1       5.134  -0.111   0.529  0.00  0.00    +0.155 HD
ATOM     23  N   UNL     1       0.085   1.442  -0.345  0.00  0.00    -0.384 NA
ATOM     24  H   UNL     1       0.067   1.469  -1.372  0.00  0.00    +0.127 HD
ENDROOT
BRANCH   1  25
ATOM     25  C   UNL     1      -1.305  -0.552  -0.502  0.00  0.00    +0.183 C 
ATOM     26  O   UNL     1      -2.055   0.158  -1.137  0.00  0.00    -0.290 OA
BRANCH  25  30
ATOM     27  C   UNL     1      -2.368  -4.579   0.302  0.00  0.00    +0.000 A 
ATOM     28  C   UNL     1      -3.227  -3.772  -0.425  0.00  0.00    +0.001 A 
ATOM     29  C   UNL     1      -2.888  -2.462  -0.690  0.00  0.00    +0.011 A 
ATOM     30  C   UNL     1      -1.674  -1.949  -0.223  0.00  0.00    +0.019 A 
ATOM     31  C   UNL     1      -0.809  -2.772   0.505  0.00  0.00    +0.011 A 
ATOM     32  C   UNL     1      -1.164  -4.079   0.767  0.00  0.00    +0.001 A 
ENDBRANCH  25  30
ENDBRANCH   1  25
BRANCH   2  33
ATOM     33  C   UNL     1       1.648  -1.703  -0.896  0.00  0.00    +0.170 C 
ATOM     34  O   UNL     1       2.543  -1.964  -0.119  0.00  0.00    -0.292 OA
BRANCH  33  35
ATOM     35  C   UNL     1       1.055  -2.768  -1.718  0.00  0.00    +0.018 A 
ATOM     36  C   UNL     1       0.019  -2.471  -2.611  0.00  0.00    +0.014 A 
ATOM     37  C   UNL     1      -0.528  -3.472  -3.383  0.00  0.00    +0.039 A 
ATOM     38  C   UNL     1      -0.062  -4.774  -3.269  0.00  0.00    +0.123 A 
ATOM     39  C   UNL     1       0.961  -5.075  -2.382  0.00  0.00    +0.039 A 
ATOM     40  C   UNL     1       1.521  -4.083  -1.608  0.00  0.00    +0.014 A 
ATOM     41  F   UNL     1      -0.607  -5.752  -4.025  0.00  0.00    -0.205 F 
ENDBRANCH  33  35
ENDBRANCH   2  33
TORSDOF 4
