REMARK  Name = ZINC04539056
REMARK  2 active torsions:
REMARK  status: ('A' for Active; 'I' for Inactive)
REMARK    1  A    between atoms: C_1  and  N_38
REMARK    2  A    between atoms: C_12  and  C_15
REMARK                            x       y       z     vdW  Elec       q    Type
REMARK                         _______ _______ _______ _____ _____    ______ ____
ROOT
ATOM      1  C   UNL     1      -0.244   0.811   2.403  0.00  0.00    -0.096 C 
ATOM      2  C   UNL     1      -0.013   1.086   0.008  0.00  0.00    -0.074 C 
ATOM      3  C   UNL     1      -0.748   1.591  -1.236  0.00  0.00    +0.018 C 
ATOM      4  C   UNL     1      -0.933   3.098  -1.102  0.00  0.00    -0.027 A 
ATOM      5  C   UNL     1      -0.806   3.689   0.109  0.00  0.00    -0.021 A 
ATOM      6  S   UNL     1      -1.093   5.412  -0.192  0.00  0.00    -0.080 S 
ATOM      7  C   UNL     1      -1.374   5.346  -1.880  0.00  0.00    +0.080 A 
ATOM      8  C   UNL     1      -1.248   3.986  -2.207  0.00  0.00    +0.068 A 
ATOM      9  C   UNL     1      -1.435   3.604  -3.625  0.00  0.00    +0.248 C 
ATOM     10  O   UNL     1      -1.221   2.469  -4.009  0.00  0.00    -0.270 OA
ATOM     11  N   UNL     1      -1.853   4.565  -4.474  0.00  0.00    -0.289 N 
ATOM     12  C   UNL     1      -2.345   5.868  -4.037  0.00  0.00    +0.190 C 
ATOM     13  N   UNL     1      -1.660   6.312  -2.809  0.00  0.00    -0.316 N 
ATOM     14  C   UNL     1      -0.491   3.007   1.403  0.00  0.00    -0.036 C 
ATOM     15  H   UNL     1      -1.825   4.381  -5.426  0.00  0.00    +0.151 HD
ATOM     16  H   UNL     1      -1.425   7.242  -2.665  0.00  0.00    +0.149 HD
ATOM     17  N   UNL     1      -0.721   1.554   1.217  0.00  0.00    +0.381 N 
ATOM     18  H   UNL     1      -1.728   1.387   1.101  0.00  0.00    -0.082 HD
ENDROOT
BRANCH  12  19
ATOM     19  C   UNL     1      -3.825   5.773  -3.771  0.00  0.00    -0.009 A 
ATOM     20  C   UNL     1      -4.413   6.604  -2.836  0.00  0.00    +0.008 A 
ATOM     21  C   UNL     1      -5.772   6.521  -2.595  0.00  0.00    +0.015 A 
ATOM     22  C   UNL     1      -6.541   5.598  -3.281  0.00  0.00    +0.018 A 
ATOM     23  C   UNL     1      -5.950   4.764  -4.213  0.00  0.00    +0.015 A 
ATOM     24  C   UNL     1      -4.593   4.851  -4.457  0.00  0.00    +0.008 A 
ATOM     25 BR   UNL     1      -8.398   5.480  -2.947  0.00  0.00    -0.050 Br
ENDBRANCH  12  19
TORSDOF 1
