REMARK  Name = ZINC22934965
REMARK  10 active torsions:
REMARK  status: ('A' for Active; 'I' for Inactive)
REMARK    1  A    between atoms: C_1  and  C_2
REMARK    2  A    between atoms: C_2  and  N_3
REMARK    3  A    between atoms: N_3  and  C_4
REMARK    4  A    between atoms: C_4  and  C_5
REMARK    5  A    between atoms: C_6  and  C_8
REMARK    6  A    between atoms: C_12  and  N_14
REMARK    7  A    between atoms: C_15  and  C_17
REMARK    8  A    between atoms: C_17  and  N_18
REMARK    9  A    between atoms: N_21  and  C_24
REMARK   10  A    between atoms: C_24  and  C_25
REMARK                            x       y       z     vdW  Elec       q    Type
REMARK                         _______ _______ _______ _____ _____    ______ ____
ROOT
ATOM      1  N   UNL     1       1.722  -1.753  -4.686  0.00  0.00    -0.287 N 
ATOM      2  C   UNL     1       1.881  -1.425  -5.984  0.00  0.00    +0.201 C 
ATOM      3  O   UNL     1       1.783  -0.268  -6.334  0.00  0.00    -0.278 OA
ATOM      4  H   UNL     1       1.883  -2.790  -4.357  0.00  0.00    +0.155 HD
ENDROOT
BRANCH   1   9
ATOM      5  C   UNL     1       1.460   1.492  -2.956  0.00  0.00    +0.039 A 
ATOM      6  C   UNL     1       0.607   1.154  -1.903  0.00  0.00    +0.013 A 
ATOM      7  C   UNL     1       0.128  -0.135  -1.789  0.00  0.00    +0.003 A 
ATOM      8  C   UNL     1       0.498  -1.098  -2.710  0.00  0.00    +0.023 A 
ATOM      9  C   UNL     1       1.350  -0.774  -3.758  0.00  0.00    +0.034 A 
ATOM     10  C   UNL     1       1.833   0.520  -3.884  0.00  0.00    +0.036 A 
BRANCH   5  12
ATOM     11  N   UNL     1       2.433   3.524  -1.997  0.00  0.00    -0.298 N 
ATOM     12  C   UNL     1       1.971   2.874  -3.083  0.00  0.00    +0.247 C 
ATOM     13  O   UNL     1       1.974   3.423  -4.167  0.00  0.00    -0.270 OA
BRANCH  11  15
ATOM     14  C   UNL     1       4.382   4.959  -2.347  0.00  0.00    +0.024 C 
ATOM     15  C   UNL     1       2.871   4.917  -2.108  0.00  0.00    +0.104 C 
ENDBRANCH  11  15
BRANCH  11  16
ATOM     16  C   UNL     1       2.497   2.837  -0.704  0.00  0.00    +0.104 C 
ATOM     17  C   UNL     1       1.296   3.247   0.151  0.00  0.00    +0.024 C 
ENDBRANCH  11  16
ENDBRANCH   5  12
ENDBRANCH   1   9
BRANCH   2  18
ATOM     18  C   UNL     1       2.182  -2.496  -7.000  0.00  0.00    +0.019 C 
BRANCH  18  19
ATOM     19  N   UNL     1       2.310  -1.887  -8.331  0.00  0.00    +0.387 N 
ATOM     20  C   UNL     1       1.026  -1.333  -8.781  0.00  0.00    -0.063 C 
ATOM     21  C   UNL     1       1.218  -0.640 -10.132  0.00  0.00    +0.066 C 
ATOM     22  N   UNL     1       1.742  -1.607 -11.106  0.00  0.00    -0.301 NA
ATOM     23  C   UNL     1       3.026  -2.161 -10.656  0.00  0.00    +0.066 C 
ATOM     24  C   UNL     1       2.834  -2.855  -9.305  0.00  0.00    -0.063 C 
ATOM     25  H   UNL     1       3.029  -1.059  -8.254  0.00  0.00    -0.081 HD
BRANCH  22  26
ATOM     26  C   UNL     1       1.870  -0.998 -12.437  0.00  0.00    +0.126 C 
BRANCH  26  27
ATOM     27  C   UNL     1       0.614  -0.231 -12.761  0.00  0.00    +0.005 A 
ATOM     28  C   UNL     1       0.318   1.067 -12.509  0.00  0.00    +0.013 A 
ATOM     29  C   UNL     1      -0.912   1.563 -12.901  0.00  0.00    +0.023 A 
ATOM     30  C   UNL     1      -1.785   0.735 -13.526  0.00  0.00    +0.055 A 
ATOM     31  S   UNL     1      -0.867  -0.795 -13.583  0.00  0.00    -0.085 S 
ATOM     32 BR   UNL     1      -3.522   1.107 -14.176  0.00  0.00    -0.043 Br
ENDBRANCH  26  27
ENDBRANCH  22  26
ENDBRANCH  18  19
ENDBRANCH   2  18
TORSDOF 8
