REMARK  Name = ZINC60036458
REMARK  10 active torsions:
REMARK  status: ('A' for Active; 'I' for Inactive)
REMARK    1  A    between atoms: C_1  and  C_2
REMARK    2  A    between atoms: C_5  and  O_29
REMARK    3  A    between atoms: C_6  and  C_8
REMARK    4  A    between atoms: C_8  and  C_14
REMARK    5  A    between atoms: C_14  and  N_15
REMARK    6  A    between atoms: N_15  and  C_16
REMARK    7  A    between atoms: C_16  and  C_18
REMARK    8  A    between atoms: C_16  and  C_19
REMARK    9  A    between atoms: N_21  and  C_22
REMARK   10  A    between atoms: O_29  and  C_30
REMARK                            x       y       z     vdW  Elec       q    Type
REMARK                         _______ _______ _______ _____ _____    ______ ____
ROOT
ATOM      1  C   UNL     1       0.171  -1.848   3.651  0.00  0.00    -0.070 C 
ENDROOT
BRANCH   1   2
ATOM      2  C   UNL     1       0.054  -2.838   2.490  0.00  0.00    -0.012 C 
ATOM      3  C   UNL     1      -1.234  -3.654   2.637  0.00  0.00    +0.038 C 
ATOM      4  C   UNL     1      -1.163  -4.477   3.926  0.00  0.00    +0.160 C 
ATOM      5  O   UNL     1      -0.009  -5.318   3.889  0.00  0.00    -0.380 OA
ATOM      6  C   UNL     1       1.228  -4.608   3.800  0.00  0.00    +0.160 C 
ATOM      7  C   UNL     1       1.254  -3.790   2.506  0.00  0.00    +0.038 C 
BRANCH   2  13
ATOM      8  C   UNL     1       0.356   1.476  -0.026  0.00  0.00    +0.044 C 
ATOM      9  C   UNL     1       0.172  -0.019  -0.019  0.00  0.00    -0.050 A 
ATOM     10  C   UNL     1      -0.023  -0.696  -1.209  0.00  0.00    +0.007 A 
ATOM     11  C   UNL     1      -0.193  -2.067  -1.206  0.00  0.00    +0.046 A 
ATOM     12  C   UNL     1      -0.168  -2.765  -0.006  0.00  0.00    +0.124 A 
ATOM     13  C   UNL     1       0.027  -2.083   1.186  0.00  0.00    -0.001 A 
ATOM     14  C   UNL     1       0.202  -0.713   1.176  0.00  0.00    +0.011 A 
BRANCH  12  15
ATOM     15  O   UNL     1      -0.336  -4.113   0.000  0.00  0.00    -0.495 OA
ATOM     16  C   UNL     1      -0.533  -4.749  -1.265  0.00  0.00    +0.277 C 
ENDBRANCH  12  15
ENDBRANCH   2  13
ENDBRANCH   1   2
BRANCH   1  17
ATOM     17  N   UNL     1      -1.035  -1.011   3.704  0.00  0.00    +0.387 N 
ATOM     18  H   UNL     1      -1.171  -0.560   2.812  0.00  0.00    -0.085 HD
ATOM     19  H   UNL     1      -1.836  -1.588   3.915  0.00  0.00    -0.085 HD
BRANCH  17  20
ATOM     20  C   UNL     1      -0.878   0.008   4.750  0.00  0.00    +0.013 C 
ATOM     21  C   UNL     1       0.258   0.959   4.369  0.00  0.00    -0.004 C 
BRANCH  20  22
ATOM     22  C   UNL     1      -2.160   0.787   4.889  0.00  0.00    +0.203 C 
ATOM     23  O   UNL     1      -3.112   0.520   4.186  0.00  0.00    -0.277 OA
ATOM     24  N   UNL     1      -2.250   1.782   5.794  0.00  0.00    -0.287 N 
ATOM     25  H   UNL     1      -1.516   1.949   6.406  0.00  0.00    +0.155 HD
BRANCH  24  26
ATOM     26  C   UNL     1      -3.403   2.573   5.852  0.00  0.00    +0.033 A 
ATOM     27  C   UNL     1      -3.304   3.925   6.156  0.00  0.00    +0.024 A 
ATOM     28  C   UNL     1      -4.444   4.704   6.213  0.00  0.00    +0.017 A 
ATOM     29  C   UNL     1      -5.682   4.138   5.966  0.00  0.00    +0.018 A 
ATOM     30  C   UNL     1      -5.784   2.792   5.663  0.00  0.00    +0.017 A 
ATOM     31  C   UNL     1      -4.647   2.010   5.601  0.00  0.00    +0.024 A 
ATOM     32 BR   UNL     1      -7.240   5.208   6.045  0.00  0.00    -0.050 Br
ENDBRANCH  24  26
ENDBRANCH  20  22
ENDBRANCH  17  20
ENDBRANCH   1  17
TORSDOF 7
