REMARK  Name = ZINC60377239
REMARK  13 active torsions:
REMARK  status: ('A' for Active; 'I' for Inactive)
REMARK    1  A    between atoms: C_1  and  C_2
REMARK    2  A    between atoms: C_2  and  O_3
REMARK    3  A    between atoms: O_3  and  C_4
REMARK    4  A    between atoms: C_4  and  C_6
REMARK    5  A    between atoms: C_10  and  N_11
REMARK    6  A    between atoms: C_12  and  C_14
REMARK    7  A    between atoms: C_14  and  N_15
REMARK    8  A    between atoms: N_15  and  C_16
REMARK    9  A    between atoms: N_15  and  C_17
REMARK   10  A    between atoms: C_17  and  C_19
REMARK   11  A    between atoms: C_17  and  C_20
REMARK   12  A    between atoms: C_24  and  S_26
REMARK   13  A    between atoms: S_26  and  N_29
REMARK                            x       y       z     vdW  Elec       q    Type
REMARK                         _______ _______ _______ _____ _____    ______ ____
ROOT
ATOM      1  N   UNL     1       1.208  -8.432  -1.975  0.00  0.00    +0.388 N 
ATOM      2  C   UNL     1       0.483  -8.596  -3.242  0.00  0.00    -0.095 C 
ATOM      3  H   UNL     1       2.201  -8.461  -2.149  0.00  0.00    -0.081 HD
ENDROOT
BRANCH   1   4
ATOM      4  C   UNL     1       0.840  -9.517  -1.056  0.00  0.00    -0.040 C 
ATOM      5  C   UNL     1       1.595  -9.347   0.264  0.00  0.00    -0.008 C 
BRANCH   4   6
ATOM      6  C   UNL     1       1.202 -10.843  -1.674  0.00  0.00    -0.059 A 
ATOM      7  C   UNL     1       2.390 -10.980  -2.369  0.00  0.00    +0.002 A 
ATOM      8  C   UNL     1       2.722 -12.196  -2.936  0.00  0.00    +0.002 A 
ATOM      9  C   UNL     1       1.868 -13.275  -2.808  0.00  0.00    +0.028 A 
ATOM     10  C   UNL     1       0.681 -13.139  -2.112  0.00  0.00    +0.105 A 
ATOM     11  C   UNL     1       0.351 -11.924  -1.541  0.00  0.00    +0.030 A 
BRANCH  10  12
ATOM     12  S   UNL     1      -0.408 -14.514  -1.949  0.00  0.00    +0.056 S 
ATOM     13  O   UNL     1      -1.704 -13.980  -1.719  0.00  0.00    -0.153 OA
ATOM     14  O   UNL     1      -0.124 -15.387  -3.034  0.00  0.00    -0.153 OA
BRANCH  12  15
ATOM     15  N   UNL     1       0.024 -15.319  -0.568  0.00  0.00    -0.204 NA
ATOM     16  H   UNL     1       0.762 -14.995  -0.028  0.00  0.00    +0.144 HD
ATOM     17  H   UNL     1      -0.461 -16.115  -0.299  0.00  0.00    +0.144 HD
ENDBRANCH  12  15
ENDBRANCH  10  12
ENDBRANCH   4   6
ENDBRANCH   1   4
BRANCH   1  18
ATOM     18  C   UNL     1       0.854  -7.139  -1.372  0.00  0.00    +0.019 C 
BRANCH  18  20
ATOM     19  N   UNL     1       1.129  -4.739  -1.904  0.00  0.00    -0.281 N 
ATOM     20  C   UNL     1       1.342  -6.022  -2.258  0.00  0.00    +0.201 C 
ATOM     21  O   UNL     1       1.927  -6.277  -3.290  0.00  0.00    -0.278 OA
ATOM     22  H   UNL     1       0.661  -4.535  -1.079  0.00  0.00    +0.155 HD
BRANCH  19  27
ATOM     23  C   UNL     1       1.449  -2.344  -2.516  0.00  0.00    +0.087 A 
ATOM     24  C   UNL     1       2.019  -1.485  -3.530  0.00  0.00    +0.024 A 
ATOM     25  C   UNL     1       2.609  -2.111  -4.564  0.00  0.00    +0.048 A 
ATOM     26  S   UNL     1       2.398  -3.834  -4.176  0.00  0.00    -0.081 S 
ATOM     27  C   UNL     1       1.577  -3.712  -2.718  0.00  0.00    +0.086 A 
BRANCH  23  28
ATOM     28  C   UNL     1       0.776  -1.800  -1.335  0.00  0.00    +0.342 C 
ATOM     29  O   UNL     1       0.312  -2.552  -0.499  0.00  0.00    -0.245 OA
BRANCH  28  30
ATOM     30  O   UNL     1       0.671  -0.465  -1.174  0.00  0.00    -0.461 OA
BRANCH  30  32
ATOM     31  C   UNL     1      -0.019   1.526   0.010  0.00  0.00    +0.048 C 
ATOM     32  C   UNL     1       0.002  -0.004   0.002  0.00  0.00    +0.229 C 
ENDBRANCH  30  32
ENDBRANCH  28  30
ENDBRANCH  23  28
ENDBRANCH  19  27
ENDBRANCH  18  20
ENDBRANCH   1  18
TORSDOF 10
