REMARK  Name = ZINC03656022
REMARK  7 active torsions:
REMARK  status: ('A' for Active; 'I' for Inactive)
REMARK    1  A    between atoms: C_1  and  C_2
REMARK    2  A    between atoms: C_5  and  C_8
REMARK    3  A    between atoms: C_8  and  N_9
REMARK    4  A    between atoms: C_10  and  C_25
REMARK    5  A    between atoms: C_27  and  O_33
REMARK    6  A    between atoms: C_28  and  O_32
REMARK    7  A    between atoms: O_33  and  C_34
REMARK                            x       y       z     vdW  Elec       q    Type
REMARK                         _______ _______ _______ _____ _____    ______ ____
ROOT
ATOM      1  N   UNL     1      -5.910   2.808   0.070  0.00  0.00    -0.279 N 
ATOM      2  C   UNL     1      -5.196   1.525   0.057  0.00  0.00    +0.145 C 
ATOM      3  C   UNL     1      -3.728   1.867   0.047  0.00  0.00    +0.072 A 
ATOM      4  C   UNL     1      -2.517   1.042   0.031  0.00  0.00    +0.199 A 
ATOM      5  O   UNL     1      -2.571  -0.175   0.025  0.00  0.00    -0.287 OA
ATOM      6  C   UNL     1      -1.227   1.760   0.017  0.00  0.00    +0.064 A 
ATOM      7  C   UNL     1      -0.013   1.076   0.008  0.00  0.00    +0.015 A 
ATOM      8  C   UNL     1       1.160   1.779   0.001  0.00  0.00    +0.001 A 
ATOM      9  C   UNL     1       1.145   3.167   0.008  0.00  0.00    +0.004 A 
ATOM     10  C   UNL     1      -0.045   3.860   0.023  0.00  0.00    +0.047 A 
ATOM     11  C   UNL     1      -1.252   3.165   0.031  0.00  0.00    +0.139 A 
ATOM     12  O   UNL     1      -2.423   3.827   0.046  0.00  0.00    -0.450 OA
ATOM     13  C   UNL     1      -3.625   3.218   0.053  0.00  0.00    +0.199 A 
ATOM     14  C   UNL     1      -4.994   3.792   0.068  0.00  0.00    +0.283 C 
ATOM     15  O   UNL     1      -5.250   4.979   0.076  0.00  0.00    -0.267 OA
ENDROOT
BRANCH   2  16
ATOM     16  C   UNL     1      -5.534   0.730   1.292  0.00  0.00    -0.018 A 
ATOM     17  C   UNL     1      -5.729  -0.636   1.201  0.00  0.00    +0.055 A 
ATOM     18  C   UNL     1      -6.040  -1.369   2.335  0.00  0.00    +0.163 A 
ATOM     19  C   UNL     1      -6.155  -0.728   3.564  0.00  0.00    +0.173 A 
ATOM     20  C   UNL     1      -5.959   0.642   3.649  0.00  0.00    +0.063 A 
ATOM     21  C   UNL     1      -5.644   1.367   2.514  0.00  0.00    +0.025 A 
ATOM     22 BR   UNL     1      -6.116   1.518   5.317  0.00  0.00    -0.046 Br
BRANCH  19  23
ATOM     23  O   UNL     1      -6.460  -1.443   4.680  0.00  0.00    -0.503 OA
ATOM     24  H   UNL     1      -5.688  -1.782   5.153  0.00  0.00    +0.292 HD
ENDBRANCH  19  23
BRANCH  18  25
ATOM     25  O   UNL     1      -6.231  -2.713   2.246  0.00  0.00    -0.491 OA
ATOM     26  C   UNL     1      -6.096  -3.304   0.952  0.00  0.00    +0.277 C 
ENDBRANCH  18  25
ENDBRANCH   2  16
BRANCH   1  27
ATOM     27  C   UNL     1      -7.364   2.984   0.084  0.00  0.00    +0.144 C 
BRANCH  27  32
ATOM     28  C   UNL     1      -9.322   3.247  -5.347  0.00  0.00    +0.044 C 
ATOM     29  C   UNL     1      -8.812   3.179  -3.930  0.00  0.00    -0.050 A 
ATOM     30  C   UNL     1      -8.722   1.959  -3.286  0.00  0.00    +0.003 A 
ATOM     31  C   UNL     1      -8.253   1.896  -1.987  0.00  0.00    +0.005 A 
ATOM     32  C   UNL     1      -7.875   3.053  -1.332  0.00  0.00    -0.030 A 
ATOM     33  C   UNL     1      -7.970   4.273  -1.974  0.00  0.00    +0.005 A 
ATOM     34  C   UNL     1      -8.434   4.336  -3.275  0.00  0.00    +0.003 A 
ENDBRANCH  27  32
ENDBRANCH   1  27
TORSDOF 5
