REMARK  Name = ZINC30499829
REMARK  10 active torsions:
REMARK  status: ('A' for Active; 'I' for Inactive)
REMARK    1  A    between atoms: C_1  and  C_2
REMARK    2  A    between atoms: C_2  and  C_3
REMARK    3  A    between atoms: N_5  and  C_6
REMARK    4  A    between atoms: C_9  and  C_12
REMARK    5  A    between atoms: C_12  and  C_14
REMARK    6  A    between atoms: C_12  and  N_15
REMARK    7  A    between atoms: N_15  and  C_16
REMARK    8  A    between atoms: C_16  and  C_18
REMARK    9  A    between atoms: C_16  and  C_19
REMARK   10  A    between atoms: N_24  and  C_25
REMARK                            x       y       z     vdW  Elec       q    Type
REMARK                         _______ _______ _______ _____ _____    ______ ____
ROOT
ATOM      1  N   UNL     1       3.525   1.908   0.009  0.00  0.00    +0.391 N 
ATOM      2  H   UNL     1       3.700   2.862  -0.512  0.00  0.00    -0.084 HD
ATOM      3  H   UNL     1       3.144   1.164  -0.707  0.00  0.00    -0.084 HD
ENDROOT
BRANCH   1   4
ATOM      4  C   UNL     1       4.787   1.429   0.589  0.00  0.00    -0.043 C 
ATOM      5  C   UNL     1       5.624   0.754  -0.499  0.00  0.00    -0.009 C 
BRANCH   4   9
ATOM      6  C   UNL     1       6.957   4.735   2.210  0.00  0.00    +0.033 A 
ATOM      7  C   UNL     1       6.925   3.523   2.889  0.00  0.00    +0.023 A 
ATOM      8  C   UNL     1       6.222   2.457   2.362  0.00  0.00    +0.004 A 
ATOM      9  C   UNL     1       5.551   2.595   1.161  0.00  0.00    -0.062 A 
ATOM     10  C   UNL     1       5.586   3.798   0.480  0.00  0.00    +0.004 A 
ATOM     11  C   UNL     1       6.282   4.870   1.004  0.00  0.00    +0.023 A 
BRANCH   6  14
ATOM     12  C   UNL     1       8.811   5.603   3.422  0.00  0.00    +0.217 C 
ATOM     13  O   UNL     1       9.276   4.485   3.491  0.00  0.00    -0.275 OA
ATOM     14  N   UNL     1       7.667   5.817   2.741  0.00  0.00    -0.286 N 
ATOM     15  H   UNL     1       7.293   6.842   2.602  0.00  0.00    +0.155 HD
BRANCH  12  17
ATOM     16  C   UNL     1      10.774   6.243   4.795  0.00  0.00    +0.013 C 
ATOM     17  C   UNL     1       9.511   6.754   4.098  0.00  0.00    +0.093 C 
ENDBRANCH  12  17
ENDBRANCH   6  14
ENDBRANCH   4   9
ENDBRANCH   1   4
BRANCH   1  18
ATOM     18  C   UNL     1       2.513   2.120   1.052  0.00  0.00    +0.014 C 
ATOM     19  C   UNL     1       1.722   0.828   1.264  0.00  0.00    -0.004 C 
BRANCH  18  20
ATOM     20  C   UNL     1       1.574   3.219   0.626  0.00  0.00    +0.206 C 
ATOM     21  O   UNL     1       1.733   3.772  -0.442  0.00  0.00    -0.277 OA
ATOM     22  N   UNL     1       0.558   3.588   1.431  0.00  0.00    -0.242 N 
ATOM     23  C   UNL     1      -0.284   4.567   1.047  0.00  0.00    +0.306 C 
ATOM     24  O   UNL     1      -0.125   5.122  -0.023  0.00  0.00    -0.252 OA
ATOM     25  N   UNL     1      -1.303   4.933   1.850  0.00  0.00    -0.296 N 
ATOM     26  H   UNL     1       0.417   3.090   2.401  0.00  0.00    +0.159 HD
ATOM     27  H   UNL     1      -1.447   4.431   2.819  0.00  0.00    +0.151 HD
BRANCH  25  28
ATOM     28  C   UNL     1      -2.219   5.997   1.433  0.00  0.00    +0.075 C 
ATOM     29  C   UNL     1      -2.611   7.043   2.479  0.00  0.00    +0.024 C 
ATOM     30  C   UNL     1      -3.628   5.991   2.030  0.00  0.00    +0.024 C 
ENDBRANCH  25  28
ENDBRANCH  18  20
ENDBRANCH   1  18
TORSDOF 7
