REMARK  Name = ZINC48757085
REMARK  7 active torsions:
REMARK  status: ('A' for Active; 'I' for Inactive)
REMARK    1  A    between atoms: C_1  and  C_2
REMARK    2  A    between atoms: C_2  and  C_4
REMARK    3  A    between atoms: C_2  and  N_14
REMARK    4  A    between atoms: C_7  and  S_10
REMARK    5  A    between atoms: S_10  and  N_13
REMARK    6  A    between atoms: C_15  and  C_17
REMARK    7  A    between atoms: N_19  and  C_20
REMARK                            x       y       z     vdW  Elec       q    Type
REMARK                         _______ _______ _______ _____ _____    ______ ____
ROOT
ATOM      1  N   UNL     1       0.711  -0.485   1.190  0.00  0.00    -0.301 N 
ATOM      2  C   UNL     1       0.052  -0.627   2.357  0.00  0.00    +0.300 C 
ATOM      3  O   UNL     1      -1.126  -0.347   2.427  0.00  0.00    -0.265 OA
ATOM      4  H   UNL     1       1.653  -0.709   1.134  0.00  0.00    +0.150 HD
ENDROOT
BRANCH   2   5
ATOM      5  C   UNL     1       0.773  -1.130   3.565  0.00  0.00    +0.303 C 
ATOM      6  O   UNL     1       1.952  -1.411   3.495  0.00  0.00    -0.265 OA
ATOM      7  N   UNL     1       0.114  -1.272   4.732  0.00  0.00    -0.278 N 
ATOM      8  H   UNL     1      -0.810  -0.985   4.806  0.00  0.00    +0.155 HD
BRANCH   7   9
ATOM      9  C   UNL     1       0.762  -1.833   5.836  0.00  0.00    +0.037 A 
ATOM     10  C   UNL     1       0.056  -2.638   6.722  0.00  0.00    +0.025 A 
ATOM     11  C   UNL     1       0.698  -3.192   7.812  0.00  0.00    +0.025 A 
ATOM     12  C   UNL     1       2.043  -2.946   8.024  0.00  0.00    +0.076 A 
ATOM     13  C   UNL     1       2.750  -2.144   7.143  0.00  0.00    +0.143 A 
ATOM     14  C   UNL     1       2.113  -1.591   6.046  0.00  0.00    +0.063 A 
ATOM     15  F   UNL     1       4.063  -1.905   7.352  0.00  0.00    -0.204 F 
ATOM     16 CL   UNL     1       2.845  -3.643   9.397  0.00  0.00    -0.081 Cl
ENDBRANCH   7   9
ENDBRANCH   2   5
BRANCH   1  18
ATOM     17  C   UNL     1      -0.005   1.538   0.018  0.00  0.00    +0.033 C 
ATOM     18  C   UNL     1       0.004   0.008   0.005  0.00  0.00    +0.101 C 
BRANCH  18  19
ATOM     19  C   UNL     1       0.705  -0.480  -1.237  0.00  0.00    -0.027 A 
ATOM     20  C   UNL     1       2.086  -0.510  -1.285  0.00  0.00    +0.007 A 
ATOM     21  C   UNL     1       2.728  -0.958  -2.424  0.00  0.00    +0.029 A 
ATOM     22  C   UNL     1       1.989  -1.375  -3.515  0.00  0.00    +0.105 A 
ATOM     23  C   UNL     1       0.608  -1.346  -3.467  0.00  0.00    +0.029 A 
ATOM     24  C   UNL     1      -0.034  -0.902  -2.326  0.00  0.00    +0.007 A 
BRANCH  22  25
ATOM     25  S   UNL     1       2.808  -1.945  -4.968  0.00  0.00    +0.056 S 
ATOM     26  O   UNL     1       1.897  -1.764  -6.044  0.00  0.00    -0.153 OA
ATOM     27  O   UNL     1       4.103  -1.361  -4.960  0.00  0.00    -0.153 OA
BRANCH  25  28
ATOM     28  N   UNL     1       3.024  -3.578  -4.800  0.00  0.00    -0.204 NA
ATOM     29  H   UNL     1       3.040  -4.149  -5.584  0.00  0.00    +0.144 HD
ATOM     30  H   UNL     1       3.135  -3.964  -3.917  0.00  0.00    +0.144 HD
ENDBRANCH  25  28
ENDBRANCH  22  25
ENDBRANCH  18  19
ENDBRANCH   1  18
TORSDOF 6
