REMARK  Name = ZINC37280054
REMARK  11 active torsions:
REMARK  status: ('A' for Active; 'I' for Inactive)
REMARK    1  A    between atoms: C_1  and  C_2
REMARK    2  A    between atoms: C_2  and  C_3
REMARK    3  A    between atoms: C_3  and  N_4
REMARK    4  A    between atoms: C_5  and  C_7
REMARK    5  A    between atoms: C_7  and  C_9
REMARK    6  A    between atoms: C_7  and  N_10
REMARK    7  A    between atoms: N_10  and  C_11
REMARK    8  A    between atoms: N_14  and  C_17
REMARK    9  A    between atoms: C_17  and  C_18
REMARK   10  A    between atoms: N_20  and  C_21
REMARK   11  A    between atoms: N_20  and  C_22
REMARK                            x       y       z     vdW  Elec       q    Type
REMARK                         _______ _______ _______ _____ _____    ______ ____
ROOT
ATOM      1  C   UNL     1       2.012  -6.106   3.472  0.00  0.00    -0.074 C 
ATOM      2  C   UNL     1       0.555  -6.529   3.680  0.00  0.00    -0.034 C 
ATOM      3  C   UNL     1       0.486  -8.052   3.816  0.00  0.00    -0.080 C 
ATOM      4  N   UNL     1       1.291  -8.481   4.966  0.00  0.00    +0.385 N 
ATOM      5  C   UNL     1       2.701  -8.143   4.740  0.00  0.00    -0.080 C 
ATOM      6  C   UNL     1       2.856  -6.624   4.640  0.00  0.00    -0.034 C 
ATOM      7  H   UNL     1       0.963  -8.014   5.798  0.00  0.00    -0.081 HD
ENDROOT
BRANCH   1   8
ATOM      8  N   UNL     1       2.095  -4.641   3.417  0.00  0.00    +0.388 N 
ATOM      9  H   UNL     1       3.063  -4.360   3.369  0.00  0.00    -0.084 HD
ATOM     10  H   UNL     1       1.672  -4.248   4.245  0.00  0.00    -0.084 HD
BRANCH   8  11
ATOM     11  C   UNL     1       1.385  -4.154   2.227  0.00  0.00    +0.013 C 
ATOM     12  C   UNL     1       2.101  -4.647   0.968  0.00  0.00    -0.004 C 
BRANCH  11  14
ATOM     13  N   UNL     1       0.762  -1.976   1.234  0.00  0.00    -0.317 N 
ATOM     14  C   UNL     1       1.364  -2.647   2.235  0.00  0.00    +0.199 C 
ATOM     15  O   UNL     1       1.890  -2.038   3.143  0.00  0.00    -0.278 OA
ATOM     16  H   UNL     1       0.342  -2.462   0.507  0.00  0.00    +0.149 HD
BRANCH  13  17
ATOM     17  C   UNL     1       0.742  -0.511   1.242  0.00  0.00    +0.104 C 
BRANCH  17  19
ATOM     18  C   UNL     1      -0.019   1.526   0.010  0.00  0.00    +0.005 C 
ATOM     19  C   UNL     1       0.002  -0.004   0.002  0.00  0.00    +0.015 C 
ENDBRANCH  17  19
ENDBRANCH  13  17
ENDBRANCH  11  14
ENDBRANCH   8  11
ENDBRANCH   1   8
BRANCH   4  20
ATOM     20  C   UNL     1       1.159  -9.934   5.139  0.00  0.00    +0.019 C 
BRANCH  20  21
ATOM     21  C   UNL     1       1.884 -10.359   6.389  0.00  0.00    +0.199 C 
ATOM     22  O   UNL     1       2.455  -9.533   7.069  0.00  0.00    -0.278 OA
ATOM     23  N   UNL     1       1.899 -11.657   6.752  0.00  0.00    -0.309 N 
ATOM     24  C   UNL     1       2.604 -12.070   7.968  0.00  0.00    +0.131 C 
ATOM     25  C   UNL     1       1.209 -12.655   5.930  0.00  0.00    +0.131 C 
ENDBRANCH  20  21
ENDBRANCH   4  20
TORSDOF 7
