REMARK  Name = ZINC63142020
REMARK  10 active torsions:
REMARK  status: ('A' for Active; 'I' for Inactive)
REMARK    1  A    between atoms: C_1  and  C_2
REMARK    2  A    between atoms: C_2  and  O_3
REMARK    3  A    between atoms: O_3  and  C_4
REMARK    4  A    between atoms: C_7  and  C_12
REMARK    5  A    between atoms: C_9  and  O_10
REMARK    6  A    between atoms: O_10  and  C_11
REMARK    7  A    between atoms: N_31  and  C_34
REMARK    8  A    between atoms: C_34  and  C_35
REMARK    9  A    between atoms: C_35  and  C_37
REMARK   10  A    between atoms: C_35  and  O_43
REMARK                            x       y       z     vdW  Elec       q    Type
REMARK                         _______ _______ _______ _____ _____    ______ ____
ROOT
ATOM      1  C   UNL     1       1.107  -6.044  -1.844  0.00  0.00    +0.134 C 
ATOM      2  C   UNL     1       2.319  -6.567  -1.067  0.00  0.00    +0.131 C 
ATOM      3  C   UNL     1       2.217  -8.087  -1.065  0.00  0.00    -0.034 C 
ATOM      4  C   UNL     1       3.356  -8.540  -1.576  0.00  0.00    -0.001 A 
ATOM      5  C   UNL     1       3.870  -9.906  -1.762  0.00  0.00    +0.010 A 
ATOM      6  C   UNL     1       5.096 -10.011  -2.340  0.00  0.00    +0.001 A 
ATOM      7  C   UNL     1       5.852  -8.908  -2.748  0.00  0.00    +0.002 A 
ATOM      8  C   UNL     1       5.459  -7.616  -2.610  0.00  0.00    +0.026 A 
ATOM      9  C   UNL     1       4.188  -7.377  -2.010  0.00  0.00    +0.043 A 
ATOM     10  N   UNL     1       3.580  -6.239  -1.736  0.00  0.00    -0.375 N 
ATOM     11  C   UNL     1       0.971  -8.812  -0.620  0.00  0.00    +0.065 C 
ATOM     12  C   UNL     1      -0.207  -8.162  -1.369  0.00  0.00    +0.167 C 
ATOM     13  N   UNL     1      -0.098  -6.709  -1.299  0.00  0.00    -0.279 N 
ATOM     14  C   UNL     1      -1.047  -5.938  -0.755  0.00  0.00    +0.234 C 
ATOM     15  O   UNL     1      -0.853  -4.741  -0.727  0.00  0.00    -0.274 OA
ATOM     16  C   UNL     1      -2.328  -6.446  -0.182  0.00  0.00    +0.203 C 
ATOM     17  N   UNL     1      -2.442  -7.891  -0.286  0.00  0.00    -0.288 N 
ATOM     18  C   UNL     1      -1.497  -8.669  -0.812  0.00  0.00    +0.237 C 
ATOM     19  O   UNL     1      -1.699  -9.864  -0.846  0.00  0.00    -0.274 OA
ATOM     20  H   UNL     1       3.898  -5.345  -1.939  0.00  0.00    +0.160 HD
ENDROOT
BRANCH   1  24
ATOM     21  C   UNL     1       0.782  -1.810  -1.336  0.00  0.00    +0.162 A 
ATOM     22  C   UNL     1       1.289  -2.597  -0.314  0.00  0.00    +0.050 A 
ATOM     23  C   UNL     1       1.392  -3.965  -0.481  0.00  0.00    +0.009 A 
ATOM     24  C   UNL     1       0.992  -4.552  -1.667  0.00  0.00    -0.021 A 
ATOM     25  C   UNL     1       0.486  -3.773  -2.691  0.00  0.00    +0.055 A 
ATOM     26  C   UNL     1       0.374  -2.402  -2.528  0.00  0.00    +0.162 A 
BRANCH  26  27
ATOM     27  O   UNL     1      -0.129  -1.635  -3.532  0.00  0.00    -0.491 OA
ATOM     28  C   UNL     1      -0.528  -2.311  -4.726  0.00  0.00    +0.277 C 
ENDBRANCH  26  27
BRANCH  21  29
ATOM     29  O   UNL     1       0.679  -0.464  -1.173  0.00  0.00    -0.489 OA
BRANCH  29  31
ATOM     30  C   UNL     1       0.926   1.591   0.073  0.00  0.00    +0.048 C 
ATOM     31  C   UNL     1       1.118   0.073   0.076  0.00  0.00    +0.226 C 
ENDBRANCH  29  31
ENDBRANCH  21  29
ENDBRANCH   1  24
BRANCH  17  32
ATOM     32  C   UNL     1      -3.660  -8.528   0.220  0.00  0.00    +0.144 C 
BRANCH  32  33
ATOM     33  C   UNL     1      -4.697  -8.609  -0.902  0.00  0.00    +0.162 C 
BRANCH  33  34
ATOM     34  C   UNL     1      -5.950  -9.264  -0.382  0.00  0.00    -0.018 A 
ATOM     35  C   UNL     1      -6.910  -8.506   0.262  0.00  0.00    +0.006 A 
ATOM     36  C   UNL     1      -8.060  -9.107   0.740  0.00  0.00    +0.000 A 
ATOM     37  C   UNL     1      -8.250 -10.466   0.572  0.00  0.00    +0.000 A 
ATOM     38  C   UNL     1      -7.291 -11.224  -0.073  0.00  0.00    +0.000 A 
ATOM     39  C   UNL     1      -6.143 -10.622  -0.554  0.00  0.00    +0.006 A 
ENDBRANCH  33  34
BRANCH  33  40
ATOM     40  O   UNL     1      -5.004  -7.292  -1.363  0.00  0.00    -0.386 OA
ATOM     41  H   UNL     1      -5.367  -6.711  -0.680  0.00  0.00    +0.210 HD
ENDBRANCH  33  40
ENDBRANCH  32  33
ENDBRANCH  17  32
TORSDOF 8
