REMARK  Name = ZINC13097585
REMARK  8 active torsions:
REMARK  status: ('A' for Active; 'I' for Inactive)
REMARK    1  A    between atoms: C_1  and  N_54
REMARK    2  A    between atoms: C_2  and  C_3
REMARK    3  A    between atoms: C_2  and  N_54
REMARK    4  A    between atoms: N_5  and  C_6
REMARK    5  A    between atoms: C_13  and  N_14
REMARK    6  A    between atoms: C_13  and  N_54
REMARK    7  A    between atoms: N_17  and  C_26
REMARK    8  A    between atoms: C_18  and  C_20
REMARK                            x       y       z     vdW  Elec       q    Type
REMARK                         _______ _______ _______ _____ _____    ______ ____
ROOT
ATOM      1  N   UNL     1       1.647   1.652  -0.028  0.00  0.00    -0.257 N 
ATOM      2  C   UNL     1       2.483   0.596   0.041  0.00  0.00    +0.181 A 
ATOM      3  S   UNL     1       4.151   0.651   0.421  0.00  0.00    -0.011 S 
ATOM      4  N   UNL     1       1.769  -0.510  -0.245  0.00  0.00    -0.271 N 
ATOM      5  C   UNL     1       0.463  -0.130  -0.495  0.00  0.00    +0.167 A 
ATOM      6  N   UNL     1       0.378   1.165  -0.368  0.00  0.00    -0.152 NA
ENDROOT
BRANCH   4   7
ATOM      7  C   UNL     1       2.264  -1.821  -0.282  0.00  0.00    +0.051 A 
ATOM      8  C   UNL     1       1.852  -2.747   0.667  0.00  0.00    +0.028 A 
ATOM      9  C   UNL     1       2.337  -4.039   0.626  0.00  0.00    +0.022 A 
ATOM     10  C   UNL     1       3.242  -4.409  -0.354  0.00  0.00    +0.041 A 
ATOM     11  C   UNL     1       3.657  -3.486  -1.299  0.00  0.00    +0.022 A 
ATOM     12  C   UNL     1       3.171  -2.194  -1.265  0.00  0.00    +0.028 A 
ATOM     13 CL   UNL     1       3.855  -6.032  -0.400  0.00  0.00    -0.084 Cl
ENDBRANCH   4   7
BRANCH   5  14
ATOM     14  C   UNL     1      -0.649  -1.039  -0.848  0.00  0.00    +0.020 A 
ATOM     15  C   UNL     1      -0.381  -2.325  -1.320  0.00  0.00    +0.011 A 
ATOM     16  C   UNL     1      -1.423  -3.169  -1.643  0.00  0.00    +0.001 A 
ATOM     17  C   UNL     1      -2.732  -2.740  -1.510  0.00  0.00    +0.000 A 
ATOM     18  C   UNL     1      -3.004  -1.465  -1.047  0.00  0.00    +0.001 A 
ATOM     19  C   UNL     1      -1.971  -0.613  -0.716  0.00  0.00    +0.011 A 
ENDBRANCH   5  14
BRANCH   1  20
ATOM     20  C   UNL     1       2.001   3.054   0.210  0.00  0.00    +0.072 C 
BRANCH  20  22
ATOM     21  C   UNL     1       2.771   2.623   2.465  0.00  0.00    -0.093 C 
ATOM     22  N   UNL     1       1.792   3.362   1.640  0.00  0.00    +0.397 N 
ATOM     23  H   UNL     1       0.844   3.073   1.908  0.00  0.00    -0.079 HD
BRANCH  22  24
ATOM     24  C   UNL     1       1.933   4.815   1.869  0.00  0.00    +0.021 C 
BRANCH  24  25
ATOM     25  C   UNL     1       1.501   5.129   3.279  0.00  0.00    +0.201 C 
ATOM     26  O   UNL     1       1.133   4.237   4.013  0.00  0.00    -0.278 OA
ATOM     27  N   UNL     1       1.523   6.402   3.723  0.00  0.00    -0.286 N 
ATOM     28  H   UNL     1       1.745   7.124   3.114  0.00  0.00    +0.155 HD
BRANCH  27  29
ATOM     29  C   UNL     1       1.224   6.681   5.061  0.00  0.00    +0.052 A 
ATOM     30  C   UNL     1       1.357   5.691   6.025  0.00  0.00    +0.025 A 
ATOM     31  C   UNL     1       1.067   5.971   7.346  0.00  0.00    +0.002 A 
ATOM     32  C   UNL     1       0.633   7.234   7.708  0.00  0.00    +0.002 A 
ATOM     33  C   UNL     1       0.494   8.221   6.750  0.00  0.00    +0.022 A 
ATOM     34  C   UNL     1       0.787   7.949   5.427  0.00  0.00    +0.062 A 
ATOM     35 CL   UNL     1       0.611   9.188   4.225  0.00  0.00    -0.082 Cl
ENDBRANCH  27  29
ENDBRANCH  24  25
ENDBRANCH  22  24
ENDBRANCH  20  22
ENDBRANCH   1  20
TORSDOF 7
