REMARK  Name = ZINC02953150
REMARK  10 active torsions:
REMARK  status: ('A' for Active; 'I' for Inactive)
REMARK    1  A    between atoms: C_1  and  C_2
REMARK    2  A    between atoms: C_2  and  C_3
REMARK    3  A    between atoms: C_8  and  N_9
REMARK    4  A    between atoms: C_10  and  C_12
REMARK    5  A    between atoms: C_15  and  C_37
REMARK    6  A    between atoms: C_18  and  C_36
REMARK    7  A    between atoms: N_22  and  C_23
REMARK    8  A    between atoms: C_26  and  O_29
REMARK    9  A    between atoms: O_29  and  C_30
REMARK   10  A    between atoms: C_37  and  O_38
REMARK                            x       y       z     vdW  Elec       q    Type
REMARK                         _______ _______ _______ _____ _____    ______ ____
ROOT
ATOM      1  C   UNL     1       4.609   4.226   0.250  0.00  0.00    +0.098 A 
ATOM      2  C   UNL     1       3.648   3.288  -0.057  0.00  0.00    +0.030 A 
ATOM      3  C   UNL     1       2.252   3.731  -0.057  0.00  0.00    +0.027 A 
ATOM      4  C   UNL     1       1.190   2.820  -0.096  0.00  0.00    +0.007 A 
ATOM      5  C   UNL     1      -0.099   3.312  -0.096  0.00  0.00    +0.117 A 
ATOM      6  N   UNL     1      -0.336   4.610  -0.049  0.00  0.00    -0.256 NA
ATOM      7  C   UNL     1       0.630   5.506  -0.012  0.00  0.00    +0.081 A 
ATOM      8  C   UNL     1       1.959   5.107  -0.016  0.00  0.00    +0.159 A 
ATOM      9  O   UNL     1       2.968   6.008   0.016  0.00  0.00    -0.437 OA
ATOM     10  C   UNL     1       4.144   5.595   0.555  0.00  0.00    +0.212 A 
ATOM     11  N   UNL     1       4.850   6.390   1.327  0.00  0.00    -0.325 N 
ATOM     12  C   UNL     1       0.289   6.974   0.036  0.00  0.00    +0.069 C 
ATOM     13  H   UNL     1       5.758   6.014   1.822  0.00  0.00    +0.169 HD
ENDROOT
BRANCH  11  14
ATOM     14  C   UNL     1       4.456   7.687   1.516  0.00  0.00    +0.042 A 
ATOM     15  C   UNL     1       4.835   8.674   0.602  0.00  0.00    +0.029 A 
ATOM     16  C   UNL     1       4.431   9.978   0.793  0.00  0.00    +0.048 A 
ATOM     17  C   UNL     1       3.659  10.314   1.897  0.00  0.00    +0.129 A 
ATOM     18  C   UNL     1       3.285   9.337   2.811  0.00  0.00    +0.048 A 
ATOM     19  C   UNL     1       3.679   8.029   2.625  0.00  0.00    +0.029 A 
BRANCH  17  20
ATOM     20  O   UNL     1       3.268  11.602   2.084  0.00  0.00    -0.456 OA
BRANCH  20  21
ATOM     21  C   UNL     1       3.905  12.330   3.039  0.00  0.00    +0.128 A 
ATOM     22  C   UNL     1       4.846  11.727   3.860  0.00  0.00    +0.046 A 
ATOM     23  C   UNL     1       5.496  12.470   4.826  0.00  0.00    +0.004 A 
ATOM     24  C   UNL     1       5.200  13.812   4.982  0.00  0.00    +0.000 A 
ATOM     25  C   UNL     1       4.259  14.415   4.169  0.00  0.00    +0.004 A 
ATOM     26  C   UNL     1       3.610  13.677   3.197  0.00  0.00    +0.046 A 
ENDBRANCH  20  21
ENDBRANCH  17  20
ENDBRANCH  11  14
BRANCH   1  28
ATOM     27  N   UNL     1       6.957   4.818   0.579  0.00  0.00    -0.281 N 
ATOM     28  C   UNL     1       6.041   3.878   0.274  0.00  0.00    +0.253 C 
ATOM     29  O   UNL     1       6.395   2.743   0.019  0.00  0.00    -0.270 OA
ATOM     30  H   UNL     1       6.633   5.828   0.870  0.00  0.00    +0.155 HD
BRANCH  27  36
ATOM     31  C   UNL     1       9.253   5.515   0.300  0.00  0.00    -0.026 A 
ATOM     32  C   UNL     1      10.598   5.207   0.251  0.00  0.00    +0.005 A 
ATOM     33  C   UNL     1      11.017   3.899   0.412  0.00  0.00    +0.000 A 
ATOM     34  C   UNL     1      10.090   2.896   0.630  0.00  0.00    +0.002 A 
ATOM     35  C   UNL     1       8.744   3.197   0.685  0.00  0.00    +0.023 A 
ATOM     36  C   UNL     1       8.320   4.510   0.523  0.00  0.00    +0.037 A 
BRANCH  31  38
ATOM     37  C   UNL     1       8.630   7.601   1.488  0.00  0.00    +0.009 C 
ATOM     38  C   UNL     1       8.797   6.939   0.118  0.00  0.00    +0.033 C 
ENDBRANCH  31  38
ENDBRANCH  27  36
ENDBRANCH   1  28
BRANCH   4  39
ATOM     39  C   UNL     1       1.448   1.336  -0.143  0.00  0.00    +0.193 C 
BRANCH  39  40
ATOM     40  O   UNL     1       0.203   0.636  -0.177  0.00  0.00    -0.390 OA
ATOM     41  H   UNL     1       0.190  -0.463  -0.213  0.00  0.00    +0.210 HD
ENDBRANCH  39  40
ENDBRANCH   4  39
TORSDOF 8
