REMARK  Name = ZINC39653241
REMARK  11 active torsions:
REMARK  status: ('A' for Active; 'I' for Inactive)
REMARK    1  A    between atoms: C_1  and  C_2
REMARK    2  A    between atoms: C_2  and  O_3
REMARK    3  A    between atoms: O_3  and  C_4
REMARK    4  A    between atoms: C_6  and  C_12
REMARK    5  A    between atoms: C_9  and  O_10
REMARK    6  A    between atoms: O_10  and  C_11
REMARK    7  A    between atoms: C_12  and  C_13
REMARK    8  A    between atoms: C_13  and  N_14
REMARK    9  A    between atoms: C_15  and  C_17
REMARK   10  A    between atoms: C_28  and  C_30
REMARK   11  A    between atoms: C_35  and  C_36
REMARK                            x       y       z     vdW  Elec       q    Type
REMARK                         _______ _______ _______ _____ _____    ______ ____
ROOT
ATOM      1  C   UNL     1       3.617  -6.997   2.951  0.00  0.00    +0.100 C 
ATOM      2  C   UNL     1       4.775  -6.550   2.031  0.00  0.00    +0.121 C 
ATOM      3  N   UNL     1       5.798  -6.006   2.955  0.00  0.00    -0.296 N 
ATOM      4  C   UNL     1       5.767  -6.922   4.120  0.00  0.00    +0.115 C 
ATOM      5  C   UNL     1       4.273  -7.244   4.320  0.00  0.00    -0.004 C 
ATOM      6  C   UNL     1       4.098  -8.702   4.736  0.00  0.00    -0.010 C 
ATOM      7  C   UNL     1       4.706  -8.909   6.125  0.00  0.00    -0.082 C 
ATOM      8  N   UNL     1       4.044  -8.022   7.089  0.00  0.00    +0.379 N 
ATOM      9  C   UNL     1       4.296  -6.620   6.734  0.00  0.00    -0.082 C 
ATOM     10  C   UNL     1       3.670  -6.316   5.370  0.00  0.00    -0.010 C 
ATOM     11  C   UNL     1       6.581  -4.924   2.776  0.00  0.00    +0.247 C 
ATOM     12  O   UNL     1       7.448  -4.660   3.585  0.00  0.00    -0.270 OA
ATOM     13  H   UNL     1       3.050  -8.197   7.077  0.00  0.00    -0.086 HD
ATOM     14  H   UNL     1       4.404  -8.203   8.014  0.00  0.00    -0.086 HD
ENDROOT
BRANCH  11  15
ATOM     15  C   UNL     1       6.383  -4.056   1.595  0.00  0.00    +0.049 A 
ATOM     16  C   UNL     1       6.038  -4.616   0.363  0.00  0.00    +0.013 A 
ATOM     17  C   UNL     1       5.855  -3.802  -0.734  0.00  0.00    +0.001 A 
ATOM     18  C   UNL     1       6.014  -2.432  -0.617  0.00  0.00    +0.001 A 
ATOM     19  C   UNL     1       6.356  -1.871   0.600  0.00  0.00    +0.013 A 
ATOM     20  C   UNL     1       6.536  -2.674   1.707  0.00  0.00    +0.067 A 
BRANCH  20  21
ATOM     21  C   UNL     1       6.903  -2.060   3.034  0.00  0.00    +0.418 C 
ATOM     22  F   UNL     1       6.997  -0.671   2.895  0.00  0.00    -0.166 F 
ATOM     23  F   UNL     1       5.918  -2.368   3.978  0.00  0.00    -0.166 F 
ATOM     24  F   UNL     1       8.134  -2.571   3.459  0.00  0.00    -0.166 F 
ENDBRANCH  20  21
ENDBRANCH  11  15
BRANCH   1  26
ATOM     25  N   UNL     1       1.295  -6.226   3.316  0.00  0.00    -0.315 N 
ATOM     26  C   UNL     1       2.579  -5.910   3.055  0.00  0.00    +0.218 C 
ATOM     27  O   UNL     1       2.900  -4.750   2.905  0.00  0.00    -0.275 OA
ATOM     28  H   UNL     1       1.039  -7.154   3.436  0.00  0.00    +0.149 HD
BRANCH  25  29
ATOM     29  C   UNL     1       0.286  -5.168   3.417  0.00  0.00    +0.109 C 
BRANCH  29  30
ATOM     30  C   UNL     1      -1.078  -5.792   3.716  0.00  0.00    +0.054 C 
BRANCH  30  33
ATOM     31  C   UNL     1      -3.761  -3.300   2.786  0.00  0.00    +0.162 A 
ATOM     32  C   UNL     1      -2.806  -4.300   2.692  0.00  0.00    +0.053 A 
ATOM     33  C   UNL     1      -2.116  -4.704   3.820  0.00  0.00    -0.042 A 
ATOM     34  C   UNL     1      -2.376  -4.114   5.042  0.00  0.00    +0.007 A 
ATOM     35  C   UNL     1      -3.327  -3.116   5.143  0.00  0.00    +0.049 A 
ATOM     36  C   UNL     1      -4.018  -2.701   4.016  0.00  0.00    +0.162 A 
BRANCH  36  37
ATOM     37  O   UNL     1      -4.950  -1.715   4.112  0.00  0.00    -0.491 OA
ATOM     38  C   UNL     1      -5.162  -1.147   5.406  0.00  0.00    +0.277 C 
ENDBRANCH  36  37
BRANCH  31  39
ATOM     39  O   UNL     1      -4.440  -2.900   1.678  0.00  0.00    -0.489 OA
BRANCH  39  41
ATOM     40  C   UNL     1      -4.982  -2.979  -0.676  0.00  0.00    +0.048 C 
ATOM     41  C   UNL     1      -4.123  -3.559   0.450  0.00  0.00    +0.226 C 
ENDBRANCH  39  41
ENDBRANCH  31  39
ENDBRANCH  30  33
ENDBRANCH  29  30
ENDBRANCH  25  29
ENDBRANCH   1  26
TORSDOF 9
