REMARK  Name = ZINC63743913
REMARK  5 active torsions:
REMARK  status: ('A' for Active; 'I' for Inactive)
REMARK    1  A    between atoms: C_1  and  C_2
REMARK    2  A    between atoms: C_4  and  C_29
REMARK    3  A    between atoms: C_6  and  N_8
REMARK    4  A    between atoms: N_11  and  C_12
REMARK    5  A    between atoms: C_15  and  C_18
REMARK                            x       y       z     vdW  Elec       q    Type
REMARK                         _______ _______ _______ _____ _____    ______ ____
ROOT
ATOM      1  C   UNL     1       0.232  -2.224   5.988  0.00  0.00    +0.035 A 
ATOM      2  C   UNL     1       0.206  -0.836   6.008  0.00  0.00    +0.024 A 
ATOM      3  C   UNL     1       0.199  -0.164   7.215  0.00  0.00    +0.008 A 
ATOM      4  C   UNL     1       0.217  -0.872   8.402  0.00  0.00    -0.021 A 
ATOM      5  C   UNL     1       0.243  -2.255   8.386  0.00  0.00    +0.008 A 
ATOM      6  C   UNL     1       0.244  -2.933   7.183  0.00  0.00    +0.024 A 
ENDROOT
BRANCH   4   7
ATOM      7  C   UNL     1       0.210  -0.136   9.717  0.00  0.00    +0.133 C 
ATOM      8  C   UNL     1      -1.173  -0.173  10.328  0.00  0.00    +0.012 C 
ATOM      9  C   UNL     1      -1.042  -0.810  11.514  0.00  0.00    -0.001 A 
ATOM     10  C   UNL     1      -2.004  -1.159  12.566  0.00  0.00    +0.048 A 
ATOM     11  C   UNL     1      -1.564  -1.814  13.666  0.00  0.00    +0.124 A 
ATOM     12  C   UNL     1      -0.214  -2.167  13.825  0.00  0.00    +0.040 A 
ATOM     13  C   UNL     1       0.727  -1.880  12.901  0.00  0.00    +0.029 A 
ATOM     14  C   UNL     1       0.375  -1.193  11.705  0.00  0.00    +0.043 A 
ATOM     15  N   UNL     1       1.094  -0.807  10.677  0.00  0.00    -0.374 N 
ATOM     16  F   UNL     1      -2.447  -2.137  14.637  0.00  0.00    -0.205 F 
ATOM     17  H   UNL     1       2.048  -0.942  10.569  0.00  0.00    +0.161 HD
ENDBRANCH   4   7
BRANCH   1  21
ATOM     18  N   UNL     1       0.783  -2.979   2.498  0.00  0.00    -0.269 N 
ATOM     19  C   UNL     1       0.864  -2.373   3.699  0.00  0.00    +0.308 C 
ATOM     20  O   UNL     1       1.499  -1.343   3.819  0.00  0.00    -0.252 OA
ATOM     21  N   UNL     1       0.239  -2.908   4.767  0.00  0.00    -0.269 N 
ATOM     22  H   UNL     1       0.215  -3.757   2.385  0.00  0.00    +0.156 HD
ATOM     23  H   UNL     1      -0.204  -3.767   4.690  0.00  0.00    +0.156 HD
BRANCH  18  29
ATOM     24  C   UNL     1       1.180  -2.190  -2.338  0.00  0.00    +0.044 C 
ATOM     25  C   UNL     1       1.734  -2.090  -0.941  0.00  0.00    -0.048 A 
ATOM     26  C   UNL     1       2.971  -1.509  -0.728  0.00  0.00    +0.006 A 
ATOM     27  C   UNL     1       3.483  -1.416   0.553  0.00  0.00    -0.048 A 
ATOM     28  C   UNL     1       2.761  -1.902   1.625  0.00  0.00    +0.026 A 
ATOM     29  C   UNL     1       1.518  -2.485   1.415  0.00  0.00    +0.035 A 
ATOM     30  C   UNL     1       1.004  -2.573   0.128  0.00  0.00    +0.026 A 
ATOM     31  C   UNL     1       4.832  -0.783   0.780  0.00  0.00    +0.044 C 
ENDBRANCH  18  29
ENDBRANCH   1  21
TORSDOF 3
