REMARK  Name = ZINC32720218
REMARK  12 active torsions:
REMARK  status: ('A' for Active; 'I' for Inactive)
REMARK    1  A    between atoms: C_1  and  C_2
REMARK    2  A    between atoms: C_2  and  C_3
REMARK    3  A    between atoms: C_3  and  C_30
REMARK    4  A    between atoms: N_6  and  C_10
REMARK    5  A    between atoms: C_10  and  C_11
REMARK    6  A    between atoms: N_13  and  C_14
REMARK    7  A    between atoms: C_15  and  C_25
REMARK    8  A    between atoms: C_20  and  C_24
REMARK    9  A    between atoms: C_25  and  O_27
REMARK   10  A    between atoms: O_27  and  C_28
REMARK   11  A    between atoms: C_28  and  C_29
REMARK   12  A    between atoms: C_33  and  C_36
REMARK                            x       y       z     vdW  Elec       q    Type
REMARK                         _______ _______ _______ _____ _____    ______ ____
ROOT
ATOM      1  C   UNL     1       2.623   3.558   5.784  0.00  0.00    +0.236 C 
ATOM      2  O   UNL     1       3.043   3.023   6.788  0.00  0.00    -0.274 OA
ATOM      3  N   UNL     1       1.647   2.969   5.065  0.00  0.00    -0.278 N 
ATOM      4  H   UNL     1       1.266   3.454   4.154  0.00  0.00    +0.155 HD
ENDROOT
BRANCH   3   5
ATOM      5  C   UNL     1       1.123   1.753   5.474  0.00  0.00    +0.086 A 
ATOM      6  C   UNL     1       0.124   0.998   4.873  0.00  0.00    +0.091 A 
ATOM      7  C   UNL     1      -0.242  -0.258   5.508  0.00  0.00    -0.021 A 
ATOM      8  C   UNL     1       0.440  -0.552   6.635  0.00  0.00    -0.004 A 
ATOM      9  S   UNL     1       1.552   0.806   6.860  0.00  0.00    -0.077 S 
ATOM     10  C   UNL     1       0.280  -1.767   7.496  0.00  0.00    +0.046 C 
ATOM     11  C   UNL     1      -1.038  -2.458   7.118  0.00  0.00    -0.009 C 
ATOM     12  C   UNL     1      -1.111  -2.581   5.593  0.00  0.00    +0.008 C 
ATOM     13  C   UNL     1      -1.312  -1.199   4.969  0.00  0.00    +0.037 C 
ATOM     14  C   UNL     1      -1.087  -3.851   7.748  0.00  0.00    +0.008 C 
BRANCH   6  15
ATOM     15  C   UNL     1      -0.533   1.447   3.644  0.00  0.00    +0.342 C 
ATOM     16  O   UNL     1      -1.534   2.135   3.705  0.00  0.00    -0.245 OA
BRANCH  15  17
ATOM     17  O   UNL     1      -0.027   1.098   2.443  0.00  0.00    -0.461 OA
BRANCH  17  18
ATOM     18  C   UNL     1      -0.729   1.579   1.267  0.00  0.00    +0.229 C 
ATOM     19  C   UNL     1      -0.013   1.086   0.008  0.00  0.00    +0.048 C 
ENDBRANCH  17  18
ENDBRANCH  15  17
ENDBRANCH   6  15
ENDBRANCH   3   5
BRANCH   1  20
ATOM     20  C   UNL     1       3.194   4.880   5.339  0.00  0.00    +0.214 C 
BRANCH  20  24
ATOM     21  C   UNL     1       6.225   5.639   7.346  0.00  0.00    +0.138 C 
ATOM     22  C   UNL     1       5.537   4.990   6.162  0.00  0.00    +0.251 C 
ATOM     23  O   UNL     1       6.053   4.325   5.289  0.00  0.00    -0.272 OA
ATOM     24  N   UNL     1       4.232   5.305   6.281  0.00  0.00    -0.215 N 
ATOM     25  C   UNL     1       4.003   6.059   7.362  0.00  0.00    +0.310 C 
ATOM     26  O   UNL     1       2.904   6.471   7.678  0.00  0.00    -0.252 OA
ATOM     27  N   UNL     1       5.125   6.307   8.063  0.00  0.00    -0.281 N 
ATOM     28  H   UNL     1       5.330   6.868   8.986  0.00  0.00    +0.152 HD
BRANCH  21  29
ATOM     29  C   UNL     1       6.874   4.596   8.219  0.00  0.00    -0.015 A 
ATOM     30  C   UNL     1       8.183   4.218   7.988  0.00  0.00    +0.006 A 
ATOM     31  C   UNL     1       8.780   3.265   8.792  0.00  0.00    +0.004 A 
ATOM     32  C   UNL     1       8.065   2.682   9.820  0.00  0.00    -0.050 A 
ATOM     33  C   UNL     1       6.753   3.056  10.048  0.00  0.00    +0.004 A 
ATOM     34  C   UNL     1       6.158   4.013   9.248  0.00  0.00    +0.006 A 
ATOM     35  C   UNL     1       8.714   1.639  10.694  0.00  0.00    +0.044 C 
ENDBRANCH  21  29
BRANCH  21  37
ATOM     36  C   UNL     1       6.550   7.803   6.141  0.00  0.00    +0.007 C 
ATOM     37  C   UNL     1       7.259   6.662   6.874  0.00  0.00    +0.037 C 
ENDBRANCH  21  37
ENDBRANCH  20  24
ENDBRANCH   1  20
TORSDOF 8
