REMARK  Name = ZINC66978876
REMARK  6 active torsions:
REMARK  status: ('A' for Active; 'I' for Inactive)
REMARK    1  A    between atoms: C_1  and  N_2
REMARK    2  A    between atoms: C_6  and  C_9
REMARK    3  A    between atoms: C_9  and  N_10
REMARK    4  A    between atoms: N_13  and  C_14
REMARK    5  A    between atoms: C_14  and  C_15
REMARK    6  A    between atoms: C_15  and  O_25
REMARK                            x       y       z     vdW  Elec       q    Type
REMARK                         _______ _______ _______ _____ _____    ______ ____
ROOT
ATOM      1  N   UNL     1       1.590  -4.056   2.349  0.00  0.00    -0.299 N 
ATOM      2  C   UNL     1       2.017  -4.686   3.461  0.00  0.00    +0.300 C 
ATOM      3  O   UNL     1       2.537  -4.051   4.358  0.00  0.00    -0.253 OA
ATOM      4  N   UNL     1       1.870  -6.021   3.578  0.00  0.00    -0.296 N 
ATOM      5  H   UNL     1       1.175  -4.562   1.633  0.00  0.00    +0.150 HD
ATOM      6  H   UNL     1       1.455  -6.527   2.862  0.00  0.00    +0.150 HD
ENDROOT
BRANCH   1   7
ATOM      7  C   UNL     1       1.750  -2.605   2.222  0.00  0.00    +0.107 C 
BRANCH   7  13
ATOM      8  C   UNL     1       0.690   1.292  -0.546  0.00  0.00    -0.096 C 
ATOM      9  N   UNL     1       0.705  -0.176  -0.501  0.00  0.00    +0.378 N 
ATOM     10  C   UNL     1       1.541  -0.690  -1.592  0.00  0.00    -0.079 C 
ATOM     11  C   UNL     1       1.495  -2.219  -1.599  0.00  0.00    -0.018 C 
ATOM     12  C   UNL     1       2.020  -2.746  -0.260  0.00  0.00    +0.001 C 
ATOM     13  C   UNL     1       1.186  -2.146   0.876  0.00  0.00    -0.011 C 
ATOM     14  C   UNL     1       1.244  -0.619   0.791  0.00  0.00    -0.074 C 
ATOM     15  H   UNL     1      -0.236  -0.525  -0.608  0.00  0.00    -0.082 HD
ENDBRANCH   7  13
ENDBRANCH   1   7
BRANCH   4  16
ATOM     16  C   UNL     1       2.335  -6.706   4.786  0.00  0.00    +0.145 C 
BRANCH  16  17
ATOM     17  C   UNL     1       1.932  -8.181   4.723  0.00  0.00    +0.107 C 
ATOM     18  C   UNL     1       0.418  -8.283   4.551  0.00  0.00    +0.041 C 
ATOM     19  C   UNL     1       0.011  -9.752   4.709  0.00  0.00    +0.008 C 
ATOM     20  C   UNL     1       0.195 -10.149   6.172  0.00  0.00    +0.035 C 
ATOM     21  C   UNL     1       1.573  -9.776   6.653  0.00  0.00    -0.041 A 
ATOM     22  C   UNL     1       2.369  -8.869   5.989  0.00  0.00    -0.011 A 
ATOM     23  C   UNL     1       3.628  -8.565   6.490  0.00  0.00    +0.007 A 
ATOM     24  C   UNL     1       4.089  -9.166   7.643  0.00  0.00    +0.000 A 
ATOM     25  C   UNL     1       3.291 -10.079   8.307  0.00  0.00    +0.000 A 
ATOM     26  C   UNL     1       2.039 -10.381   7.813  0.00  0.00    +0.004 A 
BRANCH  17  27
ATOM     27  O   UNL     1       2.575  -8.797   3.606  0.00  0.00    -0.382 OA
ATOM     28  H   UNL     1       3.541  -8.764   3.640  0.00  0.00    +0.211 HD
ENDBRANCH  17  27
ENDBRANCH  16  17
ENDBRANCH   4  16
TORSDOF 5
