REMARK  Name = ZINC60343223
REMARK  9 active torsions:
REMARK  status: ('A' for Active; 'I' for Inactive)
REMARK    1  A    between atoms: C_3  and  C_8
REMARK    2  A    between atoms: C_5  and  O_7
REMARK    3  A    between atoms: C_8  and  N_9
REMARK    4  A    between atoms: N_9  and  C_10
REMARK    5  A    between atoms: N_9  and  C_29
REMARK    6  A    between atoms: C_10  and  C_11
REMARK    7  A    between atoms: N_13  and  C_14
REMARK    8  A    between atoms: C_14  and  C_19
REMARK    9  A    between atoms: C_32  and  O_35
REMARK                            x       y       z     vdW  Elec       q    Type
REMARK                         _______ _______ _______ _____ _____    ______ ____
ROOT
ATOM      1  C   UNL     1       5.655   3.449   1.034  0.00  0.00    +0.019 C 
ENDROOT
BRANCH   1   2
ATOM      2  C   UNL     1       5.869   3.711   2.502  0.00  0.00    +0.197 C 
ATOM      3  O   UNL     1       5.204   3.120   3.327  0.00  0.00    -0.278 OA
ATOM      4  N   UNL     1       6.799   4.602   2.899  0.00  0.00    -0.307 N 
ATOM      5  H   UNL     1       7.287   5.119   2.240  0.00  0.00    +0.149 HD
BRANCH   4   6
ATOM      6  C   UNL     1       7.071   4.790   4.327  0.00  0.00    +0.060 C 
ATOM      7  C   UNL     1       8.028   5.983   4.529  0.00  0.00    +0.030 C 
ATOM      8  C   UNL     1       7.088   7.177   4.829  0.00  0.00    +0.002 C 
ATOM      9  C   UNL     1       5.982   6.531   5.699  0.00  0.00    +0.002 C 
ATOM     10  C   UNL     1       5.770   5.138   5.070  0.00  0.00    +0.030 C 
BRANCH   6  11
ATOM     11  C   UNL     1       7.677   3.537   4.905  0.00  0.00    -0.020 A 
ATOM     12  C   UNL     1       7.525   3.254   6.250  0.00  0.00    +0.009 A 
ATOM     13  C   UNL     1       8.080   2.107   6.784  0.00  0.00    +0.050 A 
ATOM     14  C   UNL     1       8.791   1.236   5.972  0.00  0.00    +0.162 A 
ATOM     15  C   UNL     1       8.941   1.518   4.620  0.00  0.00    +0.162 A 
ATOM     16  C   UNL     1       8.378   2.669   4.089  0.00  0.00    +0.055 A 
ATOM     17  O   UNL     1       9.628   0.672   3.804  0.00  0.00    -0.485 OA
ATOM     18  C   UNL     1      10.487  -0.280   4.440  0.00  0.00    +0.270 C 
ATOM     19  C   UNL     1       9.716  -0.923   5.601  0.00  0.00    +0.270 C 
ATOM     20  O   UNL     1       9.335   0.112   6.514  0.00  0.00    -0.485 OA
ENDBRANCH   6  11
ENDBRANCH   4   6
ENDBRANCH   1   2
BRANCH   1  21
ATOM     21  N   UNL     1       4.712   2.335   0.868  0.00  0.00    +0.390 N 
ATOM     22  H   UNL     1       4.022   2.365   1.604  0.00  0.00    -0.080 HD
BRANCH  21  23
ATOM     23  C   UNL     1       5.441   1.061   0.932  0.00  0.00    -0.067 C 
ATOM     24  C   UNL     1       6.171   0.959   2.273  0.00  0.00    -0.013 C 
ATOM     25  C   UNL     1       6.930  -0.367   2.341  0.00  0.00    +0.030 C 
ATOM     26  C   UNL     1       7.948  -0.431   1.201  0.00  0.00    +0.114 C 
ATOM     27  C   UNL     1       7.219  -0.328  -0.140  0.00  0.00    +0.030 C 
ATOM     28  C   UNL     1       6.459   0.998  -0.208  0.00  0.00    -0.013 C 
BRANCH  26  29
ATOM     29  O   UNL     1       8.658  -1.669   1.264  0.00  0.00    -0.392 OA
ATOM     30  H   UNL     1       9.321  -1.778   0.569  0.00  0.00    +0.210 HD
ENDBRANCH  26  29
ENDBRANCH  21  23
BRANCH  21  31
ATOM     31  C   UNL     1       4.043   2.450  -0.435  0.00  0.00    -0.042 C 
BRANCH  31  34
ATOM     32  C   UNL     1       0.738   0.651  -0.113  0.00  0.00    +0.004 A 
ATOM     33  C   UNL     1       1.720   1.619  -0.013  0.00  0.00    +0.002 A 
ATOM     34  C   UNL     1       2.975   1.393  -0.547  0.00  0.00    -0.060 A 
ATOM     35  C   UNL     1       3.251   0.198  -1.184  0.00  0.00    +0.047 A 
ATOM     36  C   UNL     1       2.267  -0.775  -1.286  0.00  0.00    +0.117 A 
ATOM     37  C   UNL     1       1.009  -0.545  -0.749  0.00  0.00    +0.045 A 
BRANCH  36  38
ATOM     38  O   UNL     1       2.536  -1.951  -1.912  0.00  0.00    -0.507 OA
ATOM     39  H   UNL     1       2.878  -2.639  -1.326  0.00  0.00    +0.292 HD
ENDBRANCH  36  38
ENDBRANCH  31  34
ENDBRANCH  21  31
ENDBRANCH   1  21
TORSDOF 9
