REMARK  Name = ZINC44713773
REMARK  7 active torsions:
REMARK  status: ('A' for Active; 'I' for Inactive)
REMARK    1  A    between atoms: C_1  and  C_2
REMARK    2  A    between atoms: C_3  and  C_9
REMARK    3  A    between atoms: C_4  and  C_8
REMARK    4  A    between atoms: C_9  and  C_11
REMARK    5  A    between atoms: C_9  and  N_12
REMARK    6  A    between atoms: C_13  and  C_15
REMARK    7  A    between atoms: C_26  and  C_28
REMARK                            x       y       z     vdW  Elec       q    Type
REMARK                         _______ _______ _______ _____ _____    ______ ____
ROOT
ATOM      1  C   UNL     1       2.721  -0.845  -4.843  0.00  0.00    +0.100 C 
ATOM      2  C   UNL     1       4.029  -1.323  -4.174  0.00  0.00    +0.121 C 
ATOM      3  N   UNL     1       5.052  -1.229  -5.242  0.00  0.00    -0.296 N 
ATOM      4  C   UNL     1       4.717   0.022  -5.964  0.00  0.00    +0.115 C 
ATOM      5  C   UNL     1       3.176   0.038  -6.017  0.00  0.00    -0.004 C 
ATOM      6  C   UNL     1       2.658   1.461  -5.840  0.00  0.00    -0.010 C 
ATOM      7  C   UNL     1       3.074   2.305  -7.048  0.00  0.00    -0.082 C 
ATOM      8  N   UNL     1       2.526   1.712  -8.274  0.00  0.00    +0.379 N 
ATOM      9  C   UNL     1       3.103   0.379  -8.485  0.00  0.00    -0.082 C 
ATOM     10  C   UNL     1       2.687  -0.547  -7.338  0.00  0.00    -0.010 C 
ATOM     11  C   UNL     1       6.058  -2.088  -5.500  0.00  0.00    +0.247 C 
ATOM     12  O   UNL     1       6.137  -3.133  -4.885  0.00  0.00    -0.270 OA
ATOM     13  H   UNL     1       1.524   1.635  -8.190  0.00  0.00    -0.086 HD
ATOM     14  H   UNL     1       2.751   2.303  -9.061  0.00  0.00    -0.086 HD
ENDROOT
BRANCH  11  15
ATOM     15  C   UNL     1       7.065  -1.758  -6.530  0.00  0.00    +0.037 A 
ATOM     16  C   UNL     1       7.266  -0.431  -6.915  0.00  0.00    +0.014 A 
ATOM     17  C   UNL     1       8.207  -0.130  -7.877  0.00  0.00    +0.016 A 
ATOM     18  C   UNL     1       8.952  -1.140  -8.461  0.00  0.00    +0.018 A 
ATOM     19  C   UNL     1       8.758  -2.458  -8.083  0.00  0.00    +0.016 A 
ATOM     20  C   UNL     1       7.824  -2.772  -7.118  0.00  0.00    +0.014 A 
ATOM     21 BR   UNL     1      10.240  -0.718  -9.779  0.00  0.00    -0.050 Br
ENDBRANCH  11  15
BRANCH   1  23
ATOM     22  N   UNL     1       0.555  -0.014  -3.985  0.00  0.00    -0.308 N 
ATOM     23  C   UNL     1       1.897  -0.041  -3.870  0.00  0.00    +0.219 C 
ATOM     24  O   UNL     1       2.443   0.582  -2.984  0.00  0.00    -0.275 OA
ATOM     25  H   UNL     1       0.118  -0.512  -4.694  0.00  0.00    +0.149 HD
BRANCH  22  26
ATOM     26  C   UNL     1      -0.246   0.768  -3.039  0.00  0.00    +0.104 C 
ATOM     27  C   UNL     1      -0.323   2.220  -3.515  0.00  0.00    +0.033 C 
BRANCH  26  30
ATOM     28  C   UNL     1      -1.875   0.242  -0.421  0.00  0.00    +0.065 C 
ATOM     29  C   UNL     1      -2.340  -0.036  -1.828  0.00  0.00    +0.038 A 
ATOM     30  C   UNL     1      -1.636   0.191  -2.960  0.00  0.00    +0.015 A 
ATOM     31  C   UNL     1      -2.426  -0.204  -4.045  0.00  0.00    +0.065 A 
ATOM     32  N   UNL     1      -3.563  -0.652  -3.580  0.00  0.00    -0.179 NA
ATOM     33  N   UNL     1      -3.532  -0.561  -2.183  0.00  0.00    -0.281 N 
ATOM     34  H   UNL     1      -4.241  -0.827  -1.577  0.00  0.00    +0.189 HD
ATOM     35  C   UNL     1      -2.034  -0.126  -5.498  0.00  0.00    +0.068 C 
ENDBRANCH  26  30
ENDBRANCH  22  26
ENDBRANCH   1  23
TORSDOF 4
