REMARK  Name = ZINC21526718
REMARK  10 active torsions:
REMARK  status: ('A' for Active; 'I' for Inactive)
REMARK    1  A    between atoms: C_1  and  C_2
REMARK    2  A    between atoms: C_2  and  C_3
REMARK    3  A    between atoms: C_3  and  N_4
REMARK    4  A    between atoms: N_7  and  C_10
REMARK    5  A    between atoms: C_10  and  C_11
REMARK    6  A    between atoms: C_11  and  C_12
REMARK    7  A    between atoms: C_12  and  N_13
REMARK    8  A    between atoms: C_22  and  C_23
REMARK    9  A    between atoms: C_22  and  C_24
REMARK   10  A    between atoms: N_26  and  C_27
REMARK                            x       y       z     vdW  Elec       q    Type
REMARK                         _______ _______ _______ _____ _____    ______ ____
ROOT
ATOM      1  N   UNL     1       2.279   0.378  -0.135  0.00  0.00    -0.281 N 
ATOM      2  C   UNL     1       1.148  -0.275  -0.493  0.00  0.00    +0.264 C 
ATOM      3  O   UNL     1       1.182  -1.339  -1.083  0.00  0.00    -0.268 OA
ATOM      4  C   UNL     1      -0.121   0.369  -0.133  0.00  0.00    +0.109 A 
ATOM      5  C   UNL     1      -1.400  -0.101  -0.182  0.00  0.00    +0.079 A 
ATOM      6  C   UNL     1      -2.240   0.915   0.299  0.00  0.00    +0.153 A 
ATOM      7  C   UNL     1      -1.437   2.005   0.631  0.00  0.00    +0.088 A 
ATOM      8  N   UNL     1      -0.144   1.672   0.359  0.00  0.00    -0.331 N 
ATOM      9  C   UNL     1       1.083   2.461   0.506  0.00  0.00    +0.157 C 
ATOM     10  C   UNL     1       2.256   1.518   0.774  0.00  0.00    +0.128 C 
ATOM     11  C   UNL     1       2.154   1.002   2.211  0.00  0.00    +0.043 C 
ATOM     12  C   UNL     1      -2.314   3.006   1.115  0.00  0.00    +0.067 A 
ATOM     13  C   UNL     1      -3.560   2.506   1.056  0.00  0.00    +0.198 A 
ATOM     14  O   UNL     1      -3.519   1.256   0.566  0.00  0.00    -0.461 OA
ENDROOT
BRANCH  10  15
ATOM     15  C   UNL     1       3.543   2.287   0.624  0.00  0.00    +0.238 C 
ATOM     16  O   UNL     1       4.392   2.223   1.487  0.00  0.00    -0.273 OA
ATOM     17  N   UNL     1       3.750   3.046  -0.471  0.00  0.00    -0.311 N 
ATOM     18  H   UNL     1       2.950   3.168  -1.215  0.00  0.00    +0.149 HD
BRANCH  17  19
ATOM     19  C   UNL     1       5.042   3.708  -0.669  0.00  0.00    +0.073 C 
ATOM     20  C   UNL     1       5.064   5.016   0.148  0.00  0.00    +0.022 C 
ATOM     21  C   UNL     1       6.497   5.421   0.364  0.00  0.00    +0.002 C 
ATOM     22  C   UNL     1       6.996   6.415  -0.702  0.00  0.00    +0.000 C 
ATOM     23  C   UNL     1       6.525   6.053  -2.123  0.00  0.00    +0.000 C 
ATOM     24  C   UNL     1       6.611   4.576  -2.400  0.00  0.00    +0.002 C 
ATOM     25  C   UNL     1       5.240   3.939  -2.092  0.00  0.00    +0.022 C 
ENDBRANCH  17  19
ENDBRANCH  10  15
BRANCH   1  26
ATOM     26  C   UNL     1       3.563  -0.073  -0.676  0.00  0.00    +0.110 C 
BRANCH  26  27
ATOM     27  C   UNL     1       3.774   0.536  -2.064  0.00  0.00    +0.034 C 
BRANCH  27  28
ATOM     28  C   UNL     1       5.115   0.064  -2.629  0.00  0.00    +0.086 C 
BRANCH  28  32
ATOM     29  N   UNL     1       5.899   0.583  -6.748  0.00  0.00    +0.381 N 
ATOM     30  C   UNL     1       6.882   1.105  -5.788  0.00  0.00    -0.063 C 
ATOM     31  C   UNL     1       6.688   0.414  -4.437  0.00  0.00    +0.066 C 
ATOM     32  N   UNL     1       5.318   0.649  -3.962  0.00  0.00    -0.306 NA
ATOM     33  C   UNL     1       4.334   0.127  -4.921  0.00  0.00    +0.066 C 
ATOM     34  C   UNL     1       4.528   0.818  -6.273  0.00  0.00    -0.063 C 
ATOM     35  H   UNL     1       6.048  -0.503  -6.831  0.00  0.00    -0.082 HD
BRANCH  29  36
ATOM     36  C   UNL     1       6.102   1.168  -8.080  0.00  0.00    -0.079 C 
BRANCH  36  38
ATOM     37  C   UNL     1       5.134   1.410 -10.371  0.00  0.00    +0.002 C 
ATOM     38  C   UNL     1       4.923   0.801  -8.983  0.00  0.00    -0.022 C 
ENDBRANCH  36  38
ENDBRANCH  29  36
ENDBRANCH  28  32
ENDBRANCH  27  28
ENDBRANCH  26  27
ENDBRANCH   1  26
TORSDOF 8
