REMARK  Name = ZINC20922567
REMARK  9 active torsions:
REMARK  status: ('A' for Active; 'I' for Inactive)
REMARK    1  A    between atoms: C_1  and  C_2
REMARK    2  A    between atoms: N_5  and  S_8
REMARK    3  A    between atoms: S_8  and  C_11
REMARK    4  A    between atoms: C_14  and  N_17
REMARK    5  A    between atoms: C_18  and  C_20
REMARK    6  A    between atoms: C_20  and  S_21
REMARK    7  A    between atoms: S_21  and  C_22
REMARK    8  A    between atoms: N_26  and  N_27
REMARK    9  A    between atoms: N_28  and  N_29
REMARK                            x       y       z     vdW  Elec       q    Type
REMARK                         _______ _______ _______ _____ _____    ______ ____
ROOT
ATOM      1  N   UNL     1      -1.536  -5.062  -0.011  0.00  0.00    -0.285 N 
ATOM      2  C   UNL     1      -0.363  -5.353  -0.608  0.00  0.00    +0.227 C 
ATOM      3  O   UNL     1      -0.208  -6.428  -1.148  0.00  0.00    -0.275 OA
ATOM      4  H   UNL     1      -1.651  -4.119   0.544  0.00  0.00    +0.155 HD
ENDROOT
BRANCH   1   8
ATOM      5  C   UNL     1      -4.723  -7.734  -0.263  0.00  0.00    +0.106 A 
ATOM      6  C   UNL     1      -3.427  -8.211  -0.183  0.00  0.00    +0.030 A 
ATOM      7  C   UNL     1      -2.368  -7.328  -0.099  0.00  0.00    +0.025 A 
ATOM      8  C   UNL     1      -2.606  -5.959  -0.095  0.00  0.00    +0.034 A 
ATOM      9  C   UNL     1      -3.909  -5.484  -0.170  0.00  0.00    +0.025 A 
ATOM     10  C   UNL     1      -4.962  -6.372  -0.260  0.00  0.00    +0.030 A 
BRANCH   5  11
ATOM     11  S   UNL     1      -6.070  -8.863  -0.370  0.00  0.00    +0.061 S 
ATOM     12  O   UNL     1      -7.142  -8.161  -0.985  0.00  0.00    -0.153 OA
ATOM     13  O   UNL     1      -5.546 -10.071  -0.905  0.00  0.00    -0.153 OA
BRANCH  11  18
ATOM     14  C   UNL     1      -9.182 -11.287   3.792  0.00  0.00    +0.007 C 
ATOM     15  C   UNL     1      -8.073 -10.384   3.247  0.00  0.00    -0.012 C 
ATOM     16  C   UNL     1      -8.687  -9.305   2.353  0.00  0.00    +0.020 C 
ATOM     17  C   UNL     1      -7.578  -8.383   1.838  0.00  0.00    +0.110 C 
ATOM     18  N   UNL     1      -6.551  -9.200   1.178  0.00  0.00    -0.177 NA
ATOM     19  C   UNL     1      -5.963 -10.326   1.916  0.00  0.00    +0.110 C 
ATOM     20  C   UNL     1      -7.086 -11.224   2.433  0.00  0.00    +0.020 C 
ENDBRANCH  11  18
ENDBRANCH   5  11
ENDBRANCH   1   8
BRANCH   2  21
ATOM     21  C   UNL     1       0.755  -4.343  -0.606  0.00  0.00    +0.173 C 
BRANCH  21  22
ATOM     22  S   UNL     1       2.189  -5.026  -1.483  0.00  0.00    -0.075 S 
BRANCH  22  23
ATOM     23  C   UNL     1       3.393  -3.743  -1.394  0.00  0.00    +0.210 A 
ATOM     24  N   UNL     1       3.237  -2.578  -0.814  0.00  0.00    -0.119 NA
ATOM     25  N   UNL     1       4.427  -1.855  -0.968  0.00  0.00    -0.110 NA
ATOM     26  C   UNL     1       5.271  -2.601  -1.637  0.00  0.00    +0.248 A 
ATOM     27  N   UNL     1       4.655  -3.788  -1.918  0.00  0.00    -0.211 N 
ATOM     28  N   UNL     1       6.565  -2.248  -1.997  0.00  0.00    -0.251 N 
ATOM     29  H   UNL     1       7.191  -2.955  -2.561  0.00  0.00    +0.169 HD
BRANCH  27  30
ATOM     30  N   UNL     1       5.205  -4.837  -2.598  0.00  0.00    -0.294 N 
ATOM     31  H   UNL     1       6.234  -4.766  -2.979  0.00  0.00    +0.163 HD
ATOM     32  H   UNL     1       4.618  -5.752  -2.765  0.00  0.00    +0.163 HD
ENDBRANCH  27  30
BRANCH  28  33
ATOM     33  N   UNL     1       7.061  -1.023  -1.650  0.00  0.00    -0.254 NA
ATOM     34  H   UNL     1       8.092  -0.927  -2.019  0.00  0.00    +0.140 HD
ATOM     35  H   UNL     1       6.436  -0.236  -2.097  0.00  0.00    +0.140 HD
ENDBRANCH  28  33
ENDBRANCH  22  23
ENDBRANCH  21  22
ENDBRANCH   2  21
TORSDOF 8
