REMARK  Name = ZINC43291175
REMARK  6 active torsions:
REMARK  status: ('A' for Active; 'I' for Inactive)
REMARK    1  A    between atoms: C_5  and  C_6
REMARK    2  A    between atoms: C_6  and  C_8
REMARK    3  A    between atoms: C_6  and  S_10
REMARK    4  A    between atoms: C_8  and  N_9
REMARK    5  A    between atoms: S_10  and  C_11
REMARK    6  A    between atoms: C_15  and  N_17
REMARK                            x       y       z     vdW  Elec       q    Type
REMARK                         _______ _______ _______ _____ _____    ______ ____
ROOT
ATOM      1  S   UNL     1      -1.053  -2.013  -1.515  0.00  0.00    -0.079 S 
ENDROOT
BRANCH   1   2
ATOM      2  C   UNL     1      -1.146  -0.836  -2.823  0.00  0.00    +0.192 A 
ATOM      3  N   UNL     1      -1.347   0.441  -2.530  0.00  0.00    -0.207 NA
ATOM      4  C   UNL     1      -1.423   1.357  -3.492  0.00  0.00    +0.122 A 
ATOM      5  C   UNL     1      -1.287   0.959  -4.819  0.00  0.00    +0.086 A 
ATOM      6  C   UNL     1      -1.077  -0.390  -5.088  0.00  0.00    +0.122 A 
ATOM      7  N   UNL     1      -1.008  -1.250  -4.075  0.00  0.00    -0.207 NA
ATOM      8  N   UNL     1      -1.634   2.690  -3.177  0.00  0.00    -0.343 N 
ATOM      9  H   UNL     1      -1.728   2.961  -2.250  0.00  0.00    +0.144 HD
ATOM     10  H   UNL     1      -1.688   3.353  -3.883  0.00  0.00    +0.144 HD
BRANCH   6  11
ATOM     11  N   UNL     1      -0.937  -0.832  -6.395  0.00  0.00    -0.343 N 
ATOM     12  H   UNL     1      -0.986  -0.199  -7.128  0.00  0.00    +0.144 HD
ATOM     13  H   UNL     1      -0.791  -1.774  -6.575  0.00  0.00    +0.144 HD
ENDBRANCH   6  11
ENDBRANCH   1   2
BRANCH   1  14
ATOM     14  C   UNL     1      -1.133  -1.003  -0.010  0.00  0.00    +0.073 C 
BRANCH  14  19
ATOM     15  C   UNL     1       0.253   1.172   0.151  0.00  0.00    +0.027 A 
ATOM     16  C   UNL     1       1.519   1.718   0.264  0.00  0.00    +0.025 A 
ATOM     17  C   UNL     1       2.589   0.889   0.327  0.00  0.00    +0.060 A 
ATOM     18  S   UNL     1       1.818  -0.718   0.227  0.00  0.00    -0.099 S 
ATOM     19  C   UNL     1       0.121  -0.176   0.108  0.00  0.00    +0.002 A 
ATOM     20 BR   UNL     1       1.752   3.594   0.328  0.00  0.00    -0.050 Br
ENDBRANCH  14  19
BRANCH  14  21
ATOM     21  C   UNL     1      -1.258  -1.917   1.211  0.00  0.00    -0.066 C 
BRANCH  21  22
ATOM     22  N   UNL     1      -2.542  -2.629   1.160  0.00  0.00    +0.379 N 
ATOM     23  H   UNL     1      -2.553  -3.247   0.363  0.00  0.00    -0.090 HD
ATOM     24  H   UNL     1      -2.662  -3.167   2.005  0.00  0.00    -0.090 HD
ATOM     25  H   UNL     1      -3.294  -1.961   1.077  0.00  0.00    -0.090 HD
ENDBRANCH  21  22
ENDBRANCH  14  21
ENDBRANCH   1  14
TORSDOF 6
