REMARK  Name = ZINC35806813
REMARK  6 active torsions:
REMARK  status: ('A' for Active; 'I' for Inactive)
REMARK    1  A    between atoms: C_1  and  C_2
REMARK    2  A    between atoms: C_2  and  O_3
REMARK    3  A    between atoms: O_3  and  C_4
REMARK    4  A    between atoms: C_9  and  C_10
REMARK    5  A    between atoms: C_10  and  C_12
REMARK    6  A    between atoms: C_35  and  C_40
REMARK                            x       y       z     vdW  Elec       q    Type
REMARK                         _______ _______ _______ _____ _____    ______ ____
ROOT
ATOM      1  C   UNL     1      -5.349  -2.138   0.042  0.00  0.00    +0.066 C 
ATOM      2  C   UNL     1      -5.838  -2.380   1.492  0.00  0.00    -0.055 C 
ATOM      3  C   UNL     1      -4.630  -2.724   2.378  0.00  0.00    -0.016 C 
ATOM      4  C   UNL     1      -4.506  -1.547   3.371  0.00  0.00    -0.020 C 
ATOM      5  C   UNL     1      -5.222  -0.392   2.630  0.00  0.00    -0.076 C 
ATOM      6  N   UNL     1      -6.375  -1.068   1.942  0.00  0.00    +0.395 N 
ATOM      7  C   UNL     1      -6.753  -0.297   0.748  0.00  0.00    +0.060 C 
ATOM      8  C   UNL     1      -6.395  -1.133  -0.478  0.00  0.00    +0.085 C 
ATOM      9  C   UNL     1      -5.842  -0.301  -1.598  0.00  0.00    -0.011 A 
ATOM     10  C   UNL     1      -4.771   0.558  -1.704  0.00  0.00    +0.006 A 
ATOM     11  C   UNL     1      -4.507   1.192  -2.905  0.00  0.00    +0.000 A 
ATOM     12  C   UNL     1      -5.323   0.962  -3.997  0.00  0.00    +0.002 A 
ATOM     13  C   UNL     1      -6.399   0.105  -3.896  0.00  0.00    +0.023 A 
ATOM     14  C   UNL     1      -6.672  -0.538  -2.691  0.00  0.00    +0.038 A 
ATOM     15  N   UNL     1      -7.684  -1.436  -2.342  0.00  0.00    -0.285 N 
ATOM     16  C   UNL     1      -7.590  -1.835  -1.059  0.00  0.00    +0.228 C 
ATOM     17  O   UNL     1      -8.325  -2.610  -0.484  0.00  0.00    -0.275 OA
ATOM     18  C   UNL     1      -8.221   0.042   0.766  0.00  0.00    -0.026 A 
ATOM     19  C   UNL     1      -9.366  -0.723   0.795  0.00  0.00    +0.004 A 
ATOM     20  C   UNL     1     -10.607  -0.111   0.801  0.00  0.00    +0.001 A 
ATOM     21  C   UNL     1     -10.693   1.270   0.779  0.00  0.00    +0.005 A 
ATOM     22  C   UNL     1      -9.548   2.039   0.753  0.00  0.00    -0.029 A 
ATOM     23  C   UNL     1      -8.295   1.430   0.747  0.00  0.00    +0.039 A 
ATOM     24  N   UNL     1      -7.013   1.982   0.724  0.00  0.00    -0.286 N 
ATOM     25  C   UNL     1      -6.053   1.038   0.723  0.00  0.00    +0.212 C 
ATOM     26  O   UNL     1      -4.855   1.225   0.705  0.00  0.00    -0.277 OA
ATOM     27  C   UNL     1      -9.654   3.542   0.732  0.00  0.00    +0.045 C 
ATOM     28  H   UNL     1      -8.374  -1.737  -2.954  0.00  0.00    +0.155 HD
ATOM     29  H   UNL     1      -6.834   2.935   0.710  0.00  0.00    +0.155 HD
ATOM     30  H   UNL     1      -7.155  -1.192   2.570  0.00  0.00    -0.079 HD
ENDROOT
BRANCH   1  31
ATOM     31  C   UNL     1      -3.969  -1.533   0.032  0.00  0.00    +0.169 C 
ATOM     32  O   UNL     1      -3.531  -1.005   1.032  0.00  0.00    -0.292 OA
BRANCH  31  38
ATOM     33  C   UNL     1      -1.867  -1.023  -1.202  0.00  0.00    +0.131 A 
ATOM     34  C   UNL     1      -1.104  -1.083  -2.359  0.00  0.00    +0.046 A 
ATOM     35  C   UNL     1      -1.612  -1.688  -3.492  0.00  0.00    +0.004 A 
ATOM     36  C   UNL     1      -2.884  -2.238  -3.485  0.00  0.00    +0.001 A 
ATOM     37  C   UNL     1      -3.657  -2.188  -2.346  0.00  0.00    +0.015 A 
ATOM     38  C   UNL     1      -3.154  -1.585  -1.188  0.00  0.00    +0.059 A 
BRANCH  33  39
ATOM     39  O   UNL     1      -1.370  -0.429  -0.089  0.00  0.00    -0.492 OA
BRANCH  39  41
ATOM     40  C   UNL     1       0.333   0.742   1.164  0.00  0.00    +0.048 C 
ATOM     41  C   UNL     1      -0.053   0.120  -0.179  0.00  0.00    +0.226 C 
ENDBRANCH  39  41
ENDBRANCH  33  39
ENDBRANCH  31  38
ENDBRANCH   1  31
TORSDOF 4
