REMARK  Name = ZINC25149386
REMARK  10 active torsions:
REMARK  status: ('A' for Active; 'I' for Inactive)
REMARK    1  A    between atoms: C_4  and  C_7
REMARK    2  A    between atoms: C_7  and  C_8
REMARK    3  A    between atoms: C_7  and  O_14
REMARK    4  A    between atoms: O_14  and  C_15
REMARK    5  A    between atoms: C_15  and  C_16
REMARK    6  A    between atoms: C_16  and  N_17
REMARK    7  A    between atoms: N_20  and  S_23
REMARK    8  A    between atoms: S_23  and  C_26
REMARK    9  A    between atoms: C_29  and  O_32
REMARK   10  A    between atoms: O_32  and  C_33
REMARK                            x       y       z     vdW  Elec       q    Type
REMARK                         _______ _______ _______ _____ _____    ______ ____
ROOT
ATOM      1  N   UNL     1      -1.252   2.844  -1.103  0.00  0.00    +0.383 N 
ATOM      2  C   UNL     1      -0.842   1.448  -1.304  0.00  0.00    -0.061 C 
ATOM      3  C   UNL     1      -0.153   0.932  -0.037  0.00  0.00    +0.091 C 
ATOM      4  N   UNL     1      -1.045   1.159   1.110  0.00  0.00    -0.180 NA
ATOM      5  C   UNL     1      -1.611   2.504   1.296  0.00  0.00    +0.091 C 
ATOM      6  C   UNL     1      -2.243   2.958  -0.024  0.00  0.00    -0.061 C 
ATOM      7  H   UNL     1      -0.361   3.413  -0.799  0.00  0.00    -0.082 HD
ENDROOT
BRANCH   4   8
ATOM      8  S   UNL     1      -1.408  -0.070   2.160  0.00  0.00    +0.061 S 
ATOM      9  O   UNL     1      -2.648   0.268   2.766  0.00  0.00    -0.153 OA
ATOM     10  O   UNL     1      -1.214  -1.284   1.447  0.00  0.00    -0.153 OA
BRANCH   8  11
ATOM     11  C   UNL     1      -0.197  -0.037   3.439  0.00  0.00    +0.106 A 
ATOM     12  C   UNL     1       0.965  -0.775   3.308  0.00  0.00    +0.032 A 
ATOM     13  C   UNL     1       1.919  -0.746   4.307  0.00  0.00    +0.048 A 
ATOM     14  C   UNL     1       1.705   0.015   5.447  0.00  0.00    +0.129 A 
ATOM     15  C   UNL     1       0.536   0.750   5.579  0.00  0.00    +0.048 A 
ATOM     16  C   UNL     1      -0.413   0.722   4.574  0.00  0.00    +0.032 A 
BRANCH  14  17
ATOM     17  O   UNL     1       2.640   0.041   6.433  0.00  0.00    -0.456 OA
BRANCH  17  18
ATOM     18  C   UNL     1       2.412  -0.702   7.548  0.00  0.00    +0.128 A 
ATOM     19  C   UNL     1       1.303  -1.534   7.614  0.00  0.00    +0.046 A 
ATOM     20  C   UNL     1       1.077  -2.292   8.747  0.00  0.00    +0.004 A 
ATOM     21  C   UNL     1       1.948  -2.215   9.818  0.00  0.00    +0.000 A 
ATOM     22  C   UNL     1       3.050  -1.382   9.756  0.00  0.00    +0.004 A 
ATOM     23  C   UNL     1       3.284  -0.626   8.624  0.00  0.00    +0.046 A 
ENDBRANCH  17  18
ENDBRANCH  14  17
ENDBRANCH   8  11
ENDBRANCH   4   8
BRANCH   1  24
ATOM     24  C   UNL     1      -1.762   3.429  -2.350  0.00  0.00    -0.050 C 
BRANCH  24  25
ATOM     25  C   UNL     1      -2.247   4.855  -2.083  0.00  0.00    +0.142 C 
BRANCH  25  26
ATOM     26  O   UNL     1      -1.143   5.667  -1.681  0.00  0.00    -0.369 OA
BRANCH  26  27
ATOM     27  C   UNL     1      -1.490   7.026  -1.406  0.00  0.00    +0.178 C 
BRANCH  27  31
ATOM     28  C   UNL     1      -2.534   7.421   2.717  0.00  0.00    +0.000 A 
ATOM     29  C   UNL     1      -3.257   8.099   1.753  0.00  0.00    +0.000 A 
ATOM     30  C   UNL     1      -2.919   7.971   0.419  0.00  0.00    +0.006 A 
ATOM     31  C   UNL     1      -1.858   7.165   0.049  0.00  0.00    -0.015 A 
ATOM     32  C   UNL     1      -1.139   6.483   1.012  0.00  0.00    +0.006 A 
ATOM     33  C   UNL     1      -1.474   6.615   2.347  0.00  0.00    +0.000 A 
ENDBRANCH  27  31
BRANCH  27  34
ATOM     34  C   UNL     1      -0.314   7.917  -1.714  0.00  0.00    -0.015 A 
ATOM     35  C   UNL     1       0.972   7.471  -1.477  0.00  0.00    +0.006 A 
ATOM     36  C   UNL     1       2.051   8.286  -1.764  0.00  0.00    +0.000 A 
ATOM     37  C   UNL     1       1.842   9.552  -2.280  0.00  0.00    +0.000 A 
ATOM     38  C   UNL     1       0.555  10.000  -2.512  0.00  0.00    +0.000 A 
ATOM     39  C   UNL     1      -0.523   9.182  -2.229  0.00  0.00    +0.006 A 
ENDBRANCH  27  34
ENDBRANCH  26  27
ENDBRANCH  25  26
ENDBRANCH  24  25
ENDBRANCH   1  24
TORSDOF 10
