REMARK  Name = ZINC10211296
REMARK  10 active torsions:
REMARK  status: ('A' for Active; 'I' for Inactive)
REMARK    1  A    between atoms: C_1  and  C_2
REMARK    2  A    between atoms: C_6  and  N_9
REMARK    3  A    between atoms: C_7  and  C_8
REMARK    4  A    between atoms: C_13  and  S_15
REMARK    5  A    between atoms: S_15  and  C_16
REMARK    6  A    between atoms: C_16  and  C_18
REMARK    7  A    between atoms: C_16  and  C_19
REMARK    8  A    between atoms: N_21  and  C_22
REMARK    9  A    between atoms: C_22  and  C_23
REMARK   10  A    between atoms: N_25  and  C_26
REMARK                            x       y       z     vdW  Elec       q    Type
REMARK                         _______ _______ _______ _____ _____    ______ ____
ROOT
ATOM      1  C   UNL     1       3.017   8.794  -0.433  0.00  0.00    +0.136 C 
ATOM      2  C   UNL     1       2.203   8.458  -1.684  0.00  0.00    +0.029 C 
ENDROOT
BRANCH   1   3
ATOM      3  C   UNL     1       3.354  10.263  -0.433  0.00  0.00    +0.227 C 
ATOM      4  O   UNL     1       4.419  10.641  -0.875  0.00  0.00    -0.275 OA
ATOM      5  N   UNL     1       2.473  11.156   0.058  0.00  0.00    -0.306 N 
ATOM      6  H   UNL     1       1.622  10.854   0.411  0.00  0.00    +0.149 HD
BRANCH   5   7
ATOM      7  C   UNL     1       2.800  12.584   0.058  0.00  0.00    +0.200 C 
BRANCH   7   8
ATOM      8  C   UNL     1       1.656  13.362   0.656  0.00  0.00    +0.234 C 
ATOM      9  O   UNL     1       0.665  12.781   1.043  0.00  0.00    -0.274 OA
ATOM     10  N   UNL     1       1.735  14.704   0.759  0.00  0.00    -0.282 N 
ATOM     11  H   UNL     1       2.491  15.176   0.377  0.00  0.00    +0.155 HD
BRANCH  10  12
ATOM     12  C   UNL     1       0.725  15.416   1.420  0.00  0.00    +0.072 A 
ATOM     13  C   UNL     1      -0.053  14.787   2.382  0.00  0.00    +0.029 A 
ATOM     14  C   UNL     1      -1.046  15.491   3.036  0.00  0.00    +0.043 A 
ATOM     15  C   UNL     1      -1.274  16.821   2.727  0.00  0.00    +0.161 A 
ATOM     16  C   UNL     1      -0.502  17.452   1.763  0.00  0.00    +0.195 A 
ATOM     17  C   UNL     1       0.497  16.751   1.109  0.00  0.00    +0.182 A 
ATOM     18  F   UNL     1       1.249  17.364   0.169  0.00  0.00    -0.200 F 
ATOM     19  F   UNL     1      -0.726  18.749   1.462  0.00  0.00    -0.199 F 
ATOM     20  F   UNL     1      -2.248  17.505   3.365  0.00  0.00    -0.202 F 
ENDBRANCH  10  12
ENDBRANCH   7   8
ENDBRANCH   5   7
ENDBRANCH   1   3
BRANCH   1  21
ATOM     21  S   UNL     1       4.549   7.822  -0.429  0.00  0.00    -0.084 S 
BRANCH  21  26
ATOM     22  N   UNL     1       3.600   2.121   0.035  0.00  0.00    -0.292 N 
ATOM     23  C   UNL     1       3.584   3.508  -0.067  0.00  0.00    +0.187 A 
ATOM     24  N   UNL     1       2.555   4.332  -0.088  0.00  0.00    -0.125 NA
ATOM     25  N   UNL     1       2.766   5.688  -0.192  0.00  0.00    -0.133 NA
ATOM     26  C   UNL     1       3.996   6.156  -0.281  0.00  0.00    +0.161 A 
ATOM     27  S   UNL     1       4.952   4.648  -0.212  0.00  0.00    -0.024 S 
ATOM     28  H   UNL     1       4.445   1.650   0.107  0.00  0.00    +0.154 HD
BRANCH  22  34
ATOM     29  C   UNL     1       1.245  -2.192   0.017  0.00  0.00    +0.044 C 
ATOM     30  C   UNL     1       1.228  -0.685   0.026  0.00  0.00    -0.046 A 
ATOM     31  C   UNL     1       0.022  -0.008   0.034  0.00  0.00    +0.004 A 
ATOM     32  C   UNL     1       0.002   1.374   0.043  0.00  0.00    +0.002 A 
ATOM     33  C   UNL     1       1.187   2.084   0.043  0.00  0.00    +0.023 A 
ATOM     34  C   UNL     1       2.400   1.407   0.035  0.00  0.00    +0.036 A 
ATOM     35  C   UNL     1       2.416   0.017   0.026  0.00  0.00    -0.026 A 
ATOM     36  C   UNL     1       3.730  -0.721   0.018  0.00  0.00    +0.046 C 
ENDBRANCH  22  34
ENDBRANCH  21  26
ENDBRANCH   1  21
TORSDOF 7
