REMARK  Name = ZINC54615292
REMARK  11 active torsions:
REMARK  status: ('A' for Active; 'I' for Inactive)
REMARK    1  A    between atoms: C_1  and  C_2
REMARK    2  A    between atoms: C_2  and  O_3
REMARK    3  A    between atoms: O_3  and  C_4
REMARK    4  A    between atoms: C_9  and  N_10
REMARK    5  A    between atoms: C_11  and  C_13
REMARK    6  A    between atoms: C_14  and  C_38
REMARK    7  A    between atoms: C_21  and  C_23
REMARK    8  A    between atoms: C_26  and  O_29
REMARK    9  A    between atoms: O_29  and  C_30
REMARK   10  A    between atoms: C_30  and  C_31
REMARK   11  A    between atoms: C_36  and  C_37
REMARK                            x       y       z     vdW  Elec       q    Type
REMARK                         _______ _______ _______ _____ _____    ______ ____
ROOT
ATOM      1  C   UNL     1       3.304  -1.326   5.507  0.00  0.00    +0.060 C 
ATOM      2  C   UNL     1       3.963  -1.961   6.487  0.00  0.00    +0.018 C 
ATOM      3  N   UNL     1       4.584  -1.286   7.509  0.00  0.00    -0.287 N 
ATOM      4  C   UNL     1       4.739   0.086   7.367  0.00  0.00    +0.218 A 
ATOM      5  N   UNL     1       5.463   0.928   8.052  0.00  0.00    -0.201 NA
ATOM      6  C   UNL     1       5.308   2.159   7.555  0.00  0.00    +0.247 A 
ATOM      7  N   UNL     1       4.477   2.114   6.543  0.00  0.00    -0.156 NA
ATOM      8  N   UNL     1       4.089   0.783   6.401  0.00  0.00    -0.221 N 
ATOM      9  C   UNL     1       3.178   0.173   5.438  0.00  0.00    +0.177 C 
ATOM     10  C   UNL     1       4.023  -3.467   6.466  0.00  0.00    +0.061 C 
ATOM     11  H   UNL     1       4.903  -1.750   8.299  0.00  0.00    +0.155 HD
ENDROOT
BRANCH   9  12
ATOM     12  C   UNL     1       1.763   0.574   5.769  0.00  0.00    -0.018 A 
ATOM     13  C   UNL     1       1.225   0.254   7.002  0.00  0.00    +0.009 A 
ATOM     14  C   UNL     1      -0.071   0.620   7.307  0.00  0.00    +0.046 A 
ATOM     15  C   UNL     1      -0.833   1.310   6.375  0.00  0.00    +0.121 A 
ATOM     16  C   UNL     1      -0.291   1.631   5.139  0.00  0.00    +0.046 A 
ATOM     17  C   UNL     1       1.008   1.266   4.841  0.00  0.00    +0.009 A 
BRANCH  15  18
ATOM     18  O   UNL     1      -2.109   1.671   6.673  0.00  0.00    -0.487 OA
BRANCH  18  19
ATOM     19  C   UNL     1      -2.835   2.379   5.666  0.00  0.00    +0.264 C 
BRANCH  19  20
ATOM     20  C   UNL     1      -4.219   2.693   6.172  0.00  0.00    -0.007 A 
ATOM     21  C   UNL     1      -4.597   2.301   7.443  0.00  0.00    +0.007 A 
ATOM     22  C   UNL     1      -5.867   2.589   7.906  0.00  0.00    +0.000 A 
ATOM     23  C   UNL     1      -6.759   3.269   7.099  0.00  0.00    +0.000 A 
ATOM     24  C   UNL     1      -6.382   3.663   5.829  0.00  0.00    +0.004 A 
ATOM     25  C   UNL     1      -5.110   3.378   5.367  0.00  0.00    -0.044 A 
ATOM     26  C   UNL     1      -4.697   3.811   3.984  0.00  0.00    +0.044 C 
ENDBRANCH  19  20
ENDBRANCH  18  19
ENDBRANCH  15  18
ENDBRANCH   9  12
BRANCH   1  28
ATOM     27  N   UNL     1       1.472  -2.618   4.670  0.00  0.00    -0.279 N 
ATOM     28  C   UNL     1       2.703  -2.100   4.487  0.00  0.00    +0.248 C 
ATOM     29  O   UNL     1       3.297  -2.299   3.443  0.00  0.00    -0.270 OA
ATOM     30  H   UNL     1       0.965  -2.394   5.466  0.00  0.00    +0.155 HD
BRANCH  27  36
ATOM     31  C   UNL     1      -0.457  -3.616   3.602  0.00  0.00    +0.142 A 
ATOM     32  C   UNL     1      -0.993  -4.466   2.648  0.00  0.00    +0.047 A 
ATOM     33  C   UNL     1      -0.156  -5.182   1.812  0.00  0.00    +0.004 A 
ATOM     34  C   UNL     1       1.216  -5.053   1.924  0.00  0.00    +0.002 A 
ATOM     35  C   UNL     1       1.758  -4.207   2.873  0.00  0.00    +0.027 A 
ATOM     36  C   UNL     1       0.925  -3.481   3.712  0.00  0.00    +0.076 A 
BRANCH  31  37
ATOM     37  O   UNL     1      -1.279  -2.911   4.424  0.00  0.00    -0.490 OA
BRANCH  37  39
ATOM     38  C   UNL     1      -3.442  -2.230   5.260  0.00  0.00    +0.048 C 
ATOM     39  C   UNL     1      -2.685  -3.099   4.254  0.00  0.00    +0.226 C 
ENDBRANCH  37  39
ENDBRANCH  31  37
ENDBRANCH  27  36
ENDBRANCH   1  28
TORSDOF 8
