REMARK  Name = ZINC04031230
REMARK  9 active torsions:
REMARK  status: ('A' for Active; 'I' for Inactive)
REMARK    1  A    between atoms: C_1  and  C_2
REMARK    2  A    between atoms: C_2  and  C_3
REMARK    3  A    between atoms: C_2  and  N_66
REMARK    4  A    between atoms: C_4  and  C_5
REMARK    5  A    between atoms: C_4  and  N_66
REMARK    6  A    between atoms: C_5  and  O_30
REMARK    7  A    between atoms: C_10  and  C_29
REMARK    8  A    between atoms: C_21  and  C_28
REMARK    9  A    between atoms: C_24  and  O_27
REMARK                            x       y       z     vdW  Elec       q    Type
REMARK                         _______ _______ _______ _____ _____    ______ ____
ROOT
ATOM      1  C   UNL     1       1.286   1.562  -0.002  0.00  0.00    +0.057 C 
ATOM      2  C   UNL     1       2.062   1.170   1.272  0.00  0.00    +0.034 C 
ATOM      3  C   UNL     1       2.361   2.488   2.023  0.00  0.00    +0.007 C 
ATOM      4  C   UNL     1       1.254   3.462   1.523  0.00  0.00    +0.001 C 
ATOM      5  C   UNL     1       1.164   3.091   0.034  0.00  0.00    -0.002 C 
ATOM      6  C   UNL     1      -0.107   3.589  -0.618  0.00  0.00    +0.010 C 
ATOM      7  C   UNL     1      -1.334   3.104   0.151  0.00  0.00    +0.005 C 
ATOM      8  C   UNL     1      -1.263   3.643   1.587  0.00  0.00    -0.001 C 
ATOM      9  C   UNL     1      -0.030   3.079   2.275  0.00  0.00    -0.004 C 
ATOM     10  C   UNL     1       0.103   3.591   3.711  0.00  0.00    +0.004 C 
ATOM     11  C   UNL     1      -1.258   3.651   4.402  0.00  0.00    +0.004 C 
ATOM     12  C   UNL     1      -2.193   2.674   3.700  0.00  0.00    -0.002 C 
ATOM     13  C   UNL     1      -2.534   3.227   2.315  0.00  0.00    -0.026 C 
ATOM     14  C   UNL     1      -3.310   2.150   1.558  0.00  0.00    +0.010 C 
ATOM     15  C   UNL     1      -4.634   1.912   2.303  0.00  0.00    +0.032 C 
ATOM     16  C   UNL     1      -4.340   1.425   3.721  0.00  0.00    +0.115 C 
ATOM     17  C   UNL     1      -3.490   2.455   4.474  0.00  0.00    +0.035 C 
ATOM     18  C   UNL     1      -3.432   4.455   2.483  0.00  0.00    +0.012 C 
ATOM     19  C   UNL     1       2.367   3.703  -0.685  0.00  0.00    +0.014 C 
ENDROOT
BRANCH  16  20
ATOM     20  O   UNL     1      -5.572   1.229   4.418  0.00  0.00    -0.392 OA
ATOM     21  H   UNL     1      -6.163   0.588   3.999  0.00  0.00    +0.210 HD
ENDBRANCH  16  20
BRANCH   1  22
ATOM     22  O   UNL     1      -0.011   0.963   0.007  0.00  0.00    -0.390 OA
ATOM     23  H   UNL     1       0.002  -0.004   0.002  0.00  0.00    +0.210 HD
ENDBRANCH   1  22
BRANCH   1  24
ATOM     24  C   UNL     1       2.060   1.123  -1.247  0.00  0.00    -0.047 C 
BRANCH  24  25
ATOM     25  N   UNL     1       2.187  -0.346  -1.245  0.00  0.00    +0.382 N 
ATOM     26  H   UNL     1       2.689  -0.642  -0.400  0.00  0.00    -0.085 HD
ATOM     27  H   UNL     1       1.250  -0.766  -1.251  0.00  0.00    -0.085 HD
BRANCH  25  29
ATOM     28  C   UNL     1       4.433  -0.731  -2.156  0.00  0.00    -0.014 C 
ATOM     29  C   UNL     1       2.930  -0.798  -2.436  0.00  0.00    -0.078 C 
ATOM     30  C   UNL     1       2.535  -2.240  -2.758  0.00  0.00    -0.014 C 
ENDBRANCH  25  29
ENDBRANCH  24  25
ENDBRANCH   1  24
TORSDOF 5
