REMARK  Name = ZINC35415640
REMARK  12 active torsions:
REMARK  status: ('A' for Active; 'I' for Inactive)
REMARK    1  A    between atoms: C_1  and  C_2
REMARK    2  A    between atoms: C_2  and  C_3
REMARK    3  A    between atoms: N_9  and  C_10
REMARK    4  A    between atoms: C_10  and  C_11
REMARK    5  A    between atoms: N_13  and  C_14
REMARK    6  A    between atoms: C_15  and  C_28
REMARK    7  A    between atoms: C_20  and  C_24
REMARK    8  A    between atoms: C_24  and  C_25
REMARK    9  A    between atoms: C_24  and  C_26
REMARK   10  A    between atoms: C_24  and  C_27
REMARK   11  A    between atoms: N_30  and  C_31
REMARK   12  A    between atoms: C_35  and  N_37
REMARK                            x       y       z     vdW  Elec       q    Type
REMARK                         _______ _______ _______ _____ _____    ______ ____
ROOT
ATOM      1  C   UNL     1       5.589   3.030  -0.717  0.00  0.00    +0.084 A 
ATOM      2  C   UNL     1       6.187   4.275  -0.600  0.00  0.00    +0.069 A 
ATOM      3  C   UNL     1       7.636   4.309  -0.506  0.00  0.00    -0.023 A 
ATOM      4  C   UNL     1       8.221   3.093  -0.546  0.00  0.00    -0.004 A 
ATOM      5  S   UNL     1       6.877   1.953  -0.696  0.00  0.00    -0.077 S 
ATOM      6  C   UNL     1       9.687   2.797  -0.474  0.00  0.00    +0.046 C 
ATOM      7  C   UNL     1      10.456   4.102  -0.726  0.00  0.00    -0.000 C 
ATOM      8  C   UNL     1       9.854   5.208   0.145  0.00  0.00    +0.009 C 
ATOM      9  C   UNL     1       8.462   5.580  -0.372  0.00  0.00    +0.037 C 
ENDROOT
BRANCH   1  12
ATOM     10  C   UNL     1       3.827   1.461  -0.921  0.00  0.00    +0.201 C 
ATOM     11  O   UNL     1       4.642   0.562  -0.921  0.00  0.00    -0.278 OA
ATOM     12  N   UNL     1       4.237   2.741  -0.820  0.00  0.00    -0.281 N 
ATOM     13  H   UNL     1       3.585   3.460  -0.820  0.00  0.00    +0.155 HD
BRANCH  10  14
ATOM     14  C   UNL     1       2.358   1.146  -1.033  0.00  0.00    +0.019 C 
BRANCH  14  20
ATOM     15  C   UNL     1       0.742  -0.624  -1.077  0.00  0.00    -0.068 C 
ATOM     16  C   UNL     1       0.550  -2.142  -1.095  0.00  0.00    -0.015 C 
ATOM     17  C   UNL     1       1.153  -2.712  -2.382  0.00  0.00    -0.003 C 
ATOM     18  C   UNL     1       2.630  -2.313  -2.463  0.00  0.00    -0.019 C 
ATOM     19  C   UNL     1       2.745  -0.789  -2.394  0.00  0.00    -0.078 C 
ATOM     20  N   UNL     1       2.175  -0.308  -1.129  0.00  0.00    +0.387 N 
ATOM     21  H   UNL     1       2.645  -0.757  -0.357  0.00  0.00    -0.081 HD
BRANCH  15  23
ATOM     22  C   UNL     1      -1.362  -0.338   0.240  0.00  0.00    +0.002 C 
ATOM     23  C   UNL     1       0.141  -0.050   0.207  0.00  0.00    -0.019 C 
ENDBRANCH  15  23
ENDBRANCH  14  20
ENDBRANCH  10  14
ENDBRANCH   1  12
BRANCH   7  24
ATOM     24  C   UNL     1      11.930   3.907  -0.365  0.00  0.00    -0.035 C 
ATOM     25  C   UNL     1      12.523   2.793  -1.229  0.00  0.00    +0.011 C 
ATOM     26  C   UNL     1      12.693   5.209  -0.617  0.00  0.00    +0.011 C 
ATOM     27  C   UNL     1      12.047   3.526   1.112  0.00  0.00    +0.011 C 
ENDBRANCH   7  24
BRANCH   2  28
ATOM     28  C   UNL     1       5.391   5.506  -0.574  0.00  0.00    +0.251 C 
ATOM     29  O   UNL     1       4.994   5.951   0.487  0.00  0.00    -0.270 OA
ATOM     30  N   UNL     1       5.098   6.144  -1.724  0.00  0.00    -0.281 N 
ATOM     31  H   UNL     1       5.474   5.831  -2.562  0.00  0.00    +0.155 HD
BRANCH  30  32
ATOM     32  C   UNL     1       4.254   7.260  -1.710  0.00  0.00    +0.036 A 
ATOM     33  C   UNL     1       3.377   7.482  -2.764  0.00  0.00    +0.023 A 
ATOM     34  C   UNL     1       2.545   8.583  -2.747  0.00  0.00    +0.004 A 
ATOM     35  C   UNL     1       2.584   9.465  -1.682  0.00  0.00    +0.033 A 
ATOM     36  C   UNL     1       3.456   9.247  -0.632  0.00  0.00    +0.128 A 
ATOM     37  C   UNL     1       4.287   8.144  -0.640  0.00  0.00    +0.056 A 
BRANCH  36  38
ATOM     38  N   UNL     1       3.495  10.194   0.505  0.00  0.00    +0.056 N 
ATOM     39  O   UNL     1       2.765  11.157   0.515  0.00  0.00    -0.126 OA
ATOM     40  O   UNL     1       4.258  10.004   1.424  0.00  0.00    -0.126 OA
ENDBRANCH  36  38
ENDBRANCH  30  32
ENDBRANCH   2  28
TORSDOF 8
