REMARK  Name = ZINC15933597
REMARK  13 active torsions:
REMARK  status: ('A' for Active; 'I' for Inactive)
REMARK    1  A    between atoms: C_1  and  C_2
REMARK    2  A    between atoms: C_2  and  O_3
REMARK    3  A    between atoms: O_3  and  C_4
REMARK    4  A    between atoms: C_7  and  S_10
REMARK    5  A    between atoms: S_10  and  N_13
REMARK    6  A    between atoms: N_13  and  C_14
REMARK    7  A    between atoms: C_17  and  C_20
REMARK    8  A    between atoms: N_22  and  C_23
REMARK    9  A    between atoms: C_23  and  C_24
REMARK   10  A    between atoms: C_24  and  C_26
REMARK   11  A    between atoms: C_24  and  N_31
REMARK   12  A    between atoms: N_31  and  C_32
REMARK   13  A    between atoms: N_31  and  C_33
REMARK                            x       y       z     vdW  Elec       q    Type
REMARK                         _______ _______ _______ _____ _____    ______ ____
ROOT
ATOM      1  C   UNL     1       4.009  -6.049   1.223  0.00  0.00    +0.048 A 
ATOM      2  C   UNL     1       4.024  -4.811   1.860  0.00  0.00    +0.025 A 
ATOM      3  C   UNL     1       5.141  -4.407   2.554  0.00  0.00    +0.015 A 
ATOM      4  C   UNL     1       6.262  -5.240   2.619  0.00  0.00    +0.037 A 
ATOM      5  C   UNL     1       6.244  -6.482   1.978  0.00  0.00    +0.015 A 
ATOM      6  C   UNL     1       5.121  -6.883   1.290  0.00  0.00    +0.025 A 
ENDROOT
BRANCH   4   7
ATOM      7  C   UNL     1       7.461  -4.809   3.361  0.00  0.00    +0.244 C 
ATOM      8  O   UNL     1       7.476  -3.728   3.918  0.00  0.00    -0.270 OA
ATOM      9  N   UNL     1       8.541  -5.613   3.423  0.00  0.00    -0.312 N 
ATOM     10  H   UNL     1       8.529  -6.476   2.978  0.00  0.00    +0.149 HD
BRANCH   9  11
ATOM     11  C   UNL     1       9.732  -5.186   4.160  0.00  0.00    +0.097 C 
BRANCH  11  12
ATOM     12  C   UNL     1      10.755  -6.323   4.181  0.00  0.00    +0.016 C 
BRANCH  12  13
ATOM     13  C   UNL     1      11.239  -6.589   2.779  0.00  0.00    +0.093 A 
ATOM     14  C   UNL     1      12.398  -6.156   2.251  0.00  0.00    +0.043 A 
ATOM     15  C   UNL     1      12.446  -6.632   0.921  0.00  0.00    +0.041 A 
ATOM     16  C   UNL     1      11.314  -7.328   0.715  0.00  0.00    +0.195 A 
ATOM     17  O   UNL     1      10.589  -7.303   1.846  0.00  0.00    -0.469 OA
ENDBRANCH  12  13
BRANCH  12  18
ATOM     18  N   UNL     1      10.127  -7.537   4.721  0.00  0.00    +0.384 N 
ATOM     19  C   UNL     1      11.135  -8.599   4.837  0.00  0.00    -0.096 C 
ATOM     20  C   UNL     1       9.564  -7.248   6.046  0.00  0.00    -0.096 C 
ATOM     21  H   UNL     1       9.391  -7.838   4.100  0.00  0.00    -0.082 HD
ENDBRANCH  12  18
ENDBRANCH  11  12
ENDBRANCH   9  11
ENDBRANCH   4   7
BRANCH   1  22
ATOM     22  N   UNL     1       2.878  -6.455   0.522  0.00  0.00    -0.216 N 
ATOM     23  H   UNL     1       2.969  -6.843  -0.362  0.00  0.00    +0.174 HD
BRANCH  22  24
ATOM     24  S   UNL     1       1.377  -6.275   1.198  0.00  0.00    +0.072 S 
ATOM     25  O   UNL     1       0.452  -6.864   0.294  0.00  0.00    -0.150 OA
ATOM     26  O   UNL     1       1.278  -4.920   1.614  0.00  0.00    -0.150 OA
BRANCH  24  30
ATOM     27  C   UNL     1       1.291  -8.794   4.960  0.00  0.00    +0.121 A 
ATOM     28  C   UNL     1       1.793  -7.501   5.001  0.00  0.00    +0.047 A 
ATOM     29  C   UNL     1       1.819  -6.735   3.852  0.00  0.00    +0.032 A 
ATOM     30  C   UNL     1       1.344  -7.255   2.662  0.00  0.00    +0.109 A 
ATOM     31  C   UNL     1       0.843  -8.543   2.619  0.00  0.00    +0.032 A 
ATOM     32  C   UNL     1       0.821  -9.316   3.764  0.00  0.00    +0.047 A 
BRANCH  27  33
ATOM     33  O   UNL     1       1.266  -9.550   6.090  0.00  0.00    -0.492 OA
BRANCH  33  35
ATOM     34  C   UNL     1       1.657  -9.943   8.442  0.00  0.00    +0.048 C 
ATOM     35  C   UNL     1       1.766  -8.948   7.285  0.00  0.00    +0.225 C 
ENDBRANCH  33  35
ENDBRANCH  27  33
ENDBRANCH  24  30
ENDBRANCH  22  24
ENDBRANCH   1  22
TORSDOF 10
