REMARK  Name = ZINC13811162
REMARK  6 active torsions:
REMARK  status: ('A' for Active; 'I' for Inactive)
REMARK    1  A    between atoms: C_1  and  O_2
REMARK    2  A    between atoms: O_2  and  C_3
REMARK    3  A    between atoms: C_6  and  C_11
REMARK    4  A    between atoms: C_7  and  O_9
REMARK    5  A    between atoms: O_9  and  C_10
REMARK    6  A    between atoms: C_28  and  C_30
REMARK                            x       y       z     vdW  Elec       q    Type
REMARK                         _______ _______ _______ _____ _____    ______ ____
ROOT
ATOM      1  C   UNL     1       2.674  -2.204  -4.381  0.00  0.00    +0.238 C 
ATOM      2  C   UNL     1       4.075  -2.553  -3.969  0.00  0.00    +0.027 C 
ATOM      3  C   UNL     1       5.096  -1.709  -4.221  0.00  0.00    +0.083 C 
ATOM      4  C   UNL     1       4.778  -0.442  -4.926  0.00  0.00    +0.042 A 
ATOM      5  C   UNL     1       5.670   0.622  -4.946  0.00  0.00    +0.013 A 
ATOM      6  C   UNL     1       5.332   1.784  -5.613  0.00  0.00    +0.001 A 
ATOM      7  C   UNL     1       4.112   1.887  -6.258  0.00  0.00    +0.004 A 
ATOM      8  C   UNL     1       3.219   0.832  -6.245  0.00  0.00    +0.046 A 
ATOM      9  C   UNL     1       3.543  -0.338  -5.580  0.00  0.00    +0.131 A 
ATOM     10  O   UNL     1       2.692  -1.388  -5.553  0.00  0.00    -0.479 OA
ATOM     11  N   UNL     1       6.367  -2.003  -3.850  0.00  0.00    -0.214 NA
ATOM     12  C   UNL     1       6.722  -3.107  -3.235  0.00  0.00    +0.215 C 
ATOM     13  N   UNL     1       7.922  -3.552  -2.803  0.00  0.00    -0.320 N 
ATOM     14  C   UNL     1       7.796  -4.723  -2.241  0.00  0.00    +0.176 C 
ATOM     15  N   UNL     1       6.490  -5.106  -2.277  0.00  0.00    -0.252 N 
ATOM     16  N   UNL     1       5.793  -4.075  -2.911  0.00  0.00    -0.210 N 
ATOM     17  C   UNL     1       4.385  -3.854  -3.262  0.00  0.00    +0.159 C 
ATOM     18  H   UNL     1       6.117  -5.931  -1.930  0.00  0.00    +0.171 HD
ATOM     19  H   UNL     1       8.759  -3.071  -2.898  0.00  0.00    +0.169 HD
ENDROOT
BRANCH  17  20
ATOM     20  C   UNL     1       3.570  -3.907  -1.996  0.00  0.00    -0.021 A 
ATOM     21  C   UNL     1       3.970  -3.186  -0.886  0.00  0.00    +0.008 A 
ATOM     22  C   UNL     1       3.224  -3.233   0.276  0.00  0.00    +0.038 A 
ATOM     23  C   UNL     1       2.074  -4.003   0.329  0.00  0.00    +0.123 A 
ATOM     24  C   UNL     1       1.674  -4.726  -0.783  0.00  0.00    +0.038 A 
ATOM     25  C   UNL     1       2.420  -4.673  -1.946  0.00  0.00    +0.008 A 
ATOM     26  F   UNL     1       1.344  -4.051   1.464  0.00  0.00    -0.205 F 
ENDBRANCH  17  20
BRANCH   1  30
ATOM     27  C   UNL     1       0.757  -0.074  -1.206  0.00  0.00    +0.124 A 
ATOM     28  C   UNL     1       2.125   0.051  -1.404  0.00  0.00    +0.046 A 
ATOM     29  C   UNL     1       2.742  -0.639  -2.430  0.00  0.00    +0.015 A 
ATOM     30  C   UNL     1       1.998  -1.454  -3.262  0.00  0.00    +0.039 A 
ATOM     31  C   UNL     1       0.631  -1.583  -3.068  0.00  0.00    +0.131 A 
ATOM     32  C   UNL     1       0.010  -0.897  -2.035  0.00  0.00    +0.091 A 
BRANCH  27  34
ATOM     33  C   UNL     1       0.982   1.433   0.619  0.00  0.00    +0.277 C 
ATOM     34  O   UNL     1       0.151   0.604  -0.196  0.00  0.00    -0.495 OA
ENDBRANCH  27  34
BRANCH  31  35
ATOM     35  O   UNL     1      -0.100  -2.385  -3.886  0.00  0.00    -0.495 OA
ATOM     36  C   UNL     1      -1.514  -2.405  -3.683  0.00  0.00    +0.277 C 
ENDBRANCH  31  35
ENDBRANCH   1  30
TORSDOF 4
