REMARK  Name = ZINC40687652
REMARK  4 active torsions:
REMARK  status: ('A' for Active; 'I' for Inactive)
REMARK    1  A    between atoms: C_3  and  N_8
REMARK    2  A    between atoms: C_10  and  N_22
REMARK    3  A    between atoms: C_11  and  N_15
REMARK    4  A    between atoms: N_15  and  C_16
REMARK                            x       y       z     vdW  Elec       q    Type
REMARK                         _______ _______ _______ _____ _____    ______ ____
ROOT
ATOM      1  N   UNL     1       3.568   2.089   0.264  0.00  0.00    -0.298 N 
ATOM      2  C   UNL     1       4.786   1.425   0.358  0.00  0.00    +0.149 A 
ATOM      3  C   UNL     1       5.987   2.136   0.308  0.00  0.00    +0.106 A 
ATOM      4  C   UNL     1       7.181   1.421   0.408  0.00  0.00    +0.149 A 
ATOM      5  N   UNL     1       7.130   0.098   0.546  0.00  0.00    -0.219 NA
ATOM      6  C   UNL     1       5.975  -0.535   0.588  0.00  0.00    +0.225 A 
ATOM      7  N   UNL     1       4.825   0.103   0.503  0.00  0.00    -0.219 NA
ATOM      8  H   UNL     1       3.548   3.043   0.089  0.00  0.00    +0.154 HD
ENDROOT
BRANCH   1  11
ATOM      9  C   UNL     1       1.130  -0.397   1.442  0.00  0.00    +0.003 A 
ATOM     10  C   UNL     1       2.313   0.300   1.289  0.00  0.00    +0.023 A 
ATOM     11  C   UNL     1       2.373   1.382   0.420  0.00  0.00    +0.033 A 
ATOM     12  C   UNL     1       1.242   1.760  -0.292  0.00  0.00    +0.038 A 
ATOM     13  C   UNL     1       0.062   1.060  -0.135  0.00  0.00    +0.020 A 
ATOM     14  C   UNL     1       0.006  -0.018   0.732  0.00  0.00    +0.015 A 
ATOM     15 BR   UNL     1      -1.479   1.573  -1.103  0.00  0.00    -0.050 Br
ENDBRANCH   1  11
BRANCH   3  16
ATOM     16  N   UNL     1       5.993   3.532   0.162  0.00  0.00    -0.353 N 
ATOM     17  H   UNL     1       5.155   4.016   0.093  0.00  0.00    +0.143 HD
ATOM     18  H   UNL     1       6.835   4.013   0.129  0.00  0.00    +0.143 HD
ENDBRANCH   3  16
BRANCH   4  19
ATOM     19  N   UNL     1       8.405   2.079   0.364  0.00  0.00    -0.298 N 
ATOM     20  H   UNL     1       8.434   3.049   0.346  0.00  0.00    +0.154 HD
BRANCH  19  21
ATOM     21  C   UNL     1       9.590   1.347   0.346  0.00  0.00    +0.035 A 
ATOM     22  C   UNL     1       9.651   0.099  -0.274  0.00  0.00    +0.041 A 
ATOM     23  C   UNL     1      10.843  -0.594  -0.270  0.00  0.00    +0.084 A 
ATOM     24  N   UNL     1      11.916  -0.090   0.311  0.00  0.00    -0.367 N 
ATOM     25  C   UNL     1      11.899   1.086   0.908  0.00  0.00    +0.084 A 
ATOM     26  C   UNL     1      10.748   1.845   0.943  0.00  0.00    +0.041 A 
ATOM     27  H   UNL     1      12.741  -0.601   0.298  0.00  0.00    +0.165 HD
ENDBRANCH  19  21
ENDBRANCH   4  19
TORSDOF 4
