REMARK  Name = ZINC63541077
REMARK  5 active torsions:
REMARK  status: ('A' for Active; 'I' for Inactive)
REMARK    1  A    between atoms: C_7  and  C_10
REMARK    2  A    between atoms: C_10  and  C_11
REMARK    3  A    between atoms: C_11  and  N_12
REMARK    4  A    between atoms: C_13  and  C_15
REMARK    5  A    between atoms: C_22  and  C_25
REMARK                            x       y       z     vdW  Elec       q    Type
REMARK                         _______ _______ _______ _____ _____    ______ ____
ROOT
ATOM      1  C   UNL     1      -1.752  -6.557  -2.622  0.00  0.00    +0.185 C 
ATOM      2  C   UNL     1      -1.132  -7.735  -1.893  0.00  0.00    +0.043 C 
ATOM      3  C   UNL     1      -0.824  -8.627  -2.817  0.00  0.00    +0.107 C 
ATOM      4  N   UNL     1      -0.233  -9.886  -2.641  0.00  0.00    -0.302 N 
ATOM      5  C   UNL     1       0.379 -10.433  -3.785  0.00  0.00    +0.033 C 
ATOM      6  C   UNL     1      -0.007  -9.936  -5.116  0.00  0.00    +0.052 C 
ATOM      7  C   UNL     1      -0.750  -8.824  -5.245  0.00  0.00    +0.133 C 
ATOM      8  N   UNL     1      -1.165  -8.172  -4.094  0.00  0.00    -0.217 N 
ATOM      9  N   UNL     1      -1.956  -7.062  -3.999  0.00  0.00    -0.219 NA
ATOM     10  C   UNL     1       1.302 -11.396  -3.664  0.00  0.00    -0.048 C 
ATOM     11  C   UNL     1       2.115 -12.312  -2.786  0.00  0.00    +0.037 C 
ATOM     12  C   UNL     1       2.273 -12.352  -4.308  0.00  0.00    +0.037 C 
ATOM     13  H   UNL     1      -2.926  -7.293  -4.159  0.00  0.00    +0.146 HD
ATOM     14  H   UNL     1      -0.244 -10.349  -1.789  0.00  0.00    +0.153 HD
ENDROOT
BRANCH   1  16
ATOM     15  N   UNL     1      -0.458  -4.798  -1.460  0.00  0.00    -0.313 N 
ATOM     16  C   UNL     1      -0.811  -5.380  -2.623  0.00  0.00    +0.236 C 
ATOM     17  O   UNL     1      -0.371  -4.957  -3.671  0.00  0.00    -0.274 OA
ATOM     18  H   UNL     1      -0.810  -5.136  -0.622  0.00  0.00    +0.149 HD
BRANCH  15  19
ATOM     19  C   UNL     1       0.457  -3.653  -1.462  0.00  0.00    +0.108 C 
BRANCH  19  20
ATOM     20  C   UNL     1       0.691  -3.186  -0.024  0.00  0.00    +0.052 C 
BRANCH  20  27
ATOM     21  C   UNL     1      -0.016   1.348   0.009  0.00  0.00    +0.001 A 
ATOM     22  C   UNL     1       1.166   2.101   0.002  0.00  0.00    +0.002 A 
ATOM     23  C   UNL     1       2.391   1.535  -0.013  0.00  0.00    +0.026 A 
ATOM     24  C   UNL     1       2.529   0.120  -0.022  0.00  0.00    +0.043 A 
ATOM     25  N   UNL     1       3.587  -0.654  -0.037  0.00  0.00    -0.380 N 
ATOM     26  C   UNL     1       3.143  -2.053  -0.041  0.00  0.00    +0.144 C 
ATOM     27  C   UNL     1       1.631  -2.008  -0.025  0.00  0.00    -0.040 C 
ATOM     28  C   UNL     1       1.295  -0.698  -0.014  0.00  0.00    -0.001 A 
ATOM     29  C   UNL     1       0.002  -0.004   0.002  0.00  0.00    +0.010 A 
ATOM     30  H   UNL     1       4.509  -0.353  -0.045  0.00  0.00    +0.160 HD
ENDBRANCH  20  27
ENDBRANCH  19  20
ENDBRANCH  15  19
ENDBRANCH   1  16
BRANCH   7  31
ATOM     31  C   UNL     1      -1.122  -8.297  -6.608  0.00  0.00    +0.432 C 
ATOM     32  F   UNL     1      -0.582  -9.131  -7.593  0.00  0.00    -0.165 F 
ATOM     33  F   UNL     1      -2.515  -8.270  -6.732  0.00  0.00    -0.165 F 
ATOM     34  F   UNL     1      -0.614  -7.003  -6.762  0.00  0.00    -0.165 F 
ENDBRANCH   7  31
TORSDOF 5
