REMARK  Name = ZINC36266871
REMARK  5 active torsions:
REMARK  status: ('A' for Active; 'I' for Inactive)
REMARK    1  A    between atoms: C_1  and  N_2
REMARK    2  A    between atoms: N_2  and  C_3
REMARK    3  A    between atoms: N_2  and  S_11
REMARK    4  A    between atoms: C_8  and  O_10
REMARK    5  A    between atoms: S_11  and  C_14
REMARK                            x       y       z     vdW  Elec       q    Type
REMARK                         _______ _______ _______ _____ _____    ______ ____
ROOT
ATOM      1  C   UNL     1      -0.018   1.461   0.010  0.00  0.00    +0.132 C 
ATOM      2  N   UNL     1       0.002  -0.004   0.002  0.00  0.00    -0.176 NA
ENDROOT
BRANCH   2   3
ATOM      3  C   UNL     1       0.024  -0.743   1.267  0.00  0.00    +0.089 C 
ATOM      4  C   UNL     1      -1.190  -0.353   2.137  0.00  0.00    -0.059 C 
ATOM      5  N   UNL     1      -0.666  -0.344   3.527  0.00  0.00    +0.382 N 
ATOM      6  C   UNL     1       0.689   0.254   3.403  0.00  0.00    -0.049 C 
ATOM      7  C   UNL     1       1.261  -0.346   2.098  0.00  0.00    +0.115 C 
ATOM      8  H   UNL     1      -1.250   0.226   4.121  0.00  0.00    -0.086 HD
ATOM      9  H   UNL     1      -0.605  -1.284   3.888  0.00  0.00    -0.086 HD
BRANCH   7  10
ATOM     10  O   UNL     1       2.056  -1.498   2.387  0.00  0.00    -0.392 OA
ATOM     11  H   UNL     1       2.849  -1.308   2.908  0.00  0.00    +0.210 HD
ENDBRANCH   7  10
ENDBRANCH   2   3
BRANCH   2  12
ATOM     12  S   UNL     1      -0.000  -0.824  -1.437  0.00  0.00    +0.061 S 
ATOM     13  O   UNL     1      -0.531  -2.115  -1.167  0.00  0.00    -0.153 OA
ATOM     14  O   UNL     1      -0.572   0.049  -2.401  0.00  0.00    -0.153 OA
BRANCH  12  15
ATOM     15  C   UNL     1       1.682  -1.059  -1.905  0.00  0.00    +0.107 A 
ATOM     16  C   UNL     1       2.324  -0.109  -2.677  0.00  0.00    +0.028 A 
ATOM     17  C   UNL     1       3.643  -0.293  -3.045  0.00  0.00    +0.003 A 
ATOM     18  C   UNL     1       4.322  -1.427  -2.641  0.00  0.00    +0.015 A 
ATOM     19  C   UNL     1       3.680  -2.378  -1.869  0.00  0.00    +0.020 A 
ATOM     20  C   UNL     1       2.361  -2.191  -1.496  0.00  0.00    +0.043 A 
ATOM     21 BR   UNL     1       4.608  -3.931  -1.316  0.00  0.00    -0.050 Br
ENDBRANCH  12  15
ENDBRANCH   2  12
TORSDOF 4
