REMARK  Name = ZINC32768643
REMARK  11 active torsions:
REMARK  status: ('A' for Active; 'I' for Inactive)
REMARK    1  A    between atoms: C_1  and  C_2
REMARK    2  A    between atoms: C_6  and  N_9
REMARK    3  A    between atoms: C_7  and  C_8
REMARK    4  A    between atoms: C_10  and  C_12
REMARK    5  A    between atoms: C_12  and  N_13
REMARK    6  A    between atoms: C_19  and  C_21
REMARK    7  A    between atoms: C_24  and  O_29
REMARK    8  A    between atoms: C_25  and  O_27
REMARK    9  A    between atoms: O_27  and  C_28
REMARK   10  A    between atoms: O_29  and  C_30
REMARK   11  A    between atoms: C_30  and  C_31
REMARK                            x       y       z     vdW  Elec       q    Type
REMARK                         _______ _______ _______ _____ _____    ______ ____
ROOT
ATOM      1  N   UNL     1      -1.420   2.655   1.165  0.00  0.00    +0.387 N 
ATOM      2  C   UNL     1      -0.731   1.362   1.278  0.00  0.00    -0.059 C 
ATOM      3  C   UNL     1       0.241   1.201   0.104  0.00  0.00    +0.089 C 
ATOM      4  N   UNL     1      -0.498   1.409  -1.151  0.00  0.00    -0.301 N 
ATOM      5  C   UNL     1      -1.320   2.622  -1.282  0.00  0.00    +0.089 C 
ATOM      6  C   UNL     1      -2.233   2.725  -0.056  0.00  0.00    -0.059 C 
ATOM      7  C   UNL     1      -0.423   0.512  -2.154  0.00  0.00    +0.247 C 
ATOM      8  O   UNL     1       0.321  -0.445  -2.060  0.00  0.00    -0.270 OA
ATOM      9  H   UNL     1      -0.650   3.438   1.096  0.00  0.00    -0.081 HD
ENDROOT
BRANCH   7  10
ATOM     10  C   UNL     1      -1.246   0.691  -3.366  0.00  0.00    +0.041 A 
ATOM     11  C   UNL     1      -1.326   1.944  -3.979  0.00  0.00    +0.017 A 
ATOM     12  C   UNL     1      -2.090   2.108  -5.114  0.00  0.00    +0.050 A 
ATOM     13  C   UNL     1      -2.790   1.034  -5.645  0.00  0.00    +0.163 A 
ATOM     14  C   UNL     1      -2.719  -0.218  -5.035  0.00  0.00    +0.162 A 
ATOM     15  C   UNL     1      -1.950  -0.391  -3.901  0.00  0.00    +0.062 A 
BRANCH  14  16
ATOM     16  O   UNL     1      -3.406  -1.269  -5.558  0.00  0.00    -0.491 OA
ATOM     17  C   UNL     1      -3.287  -2.522  -4.882  0.00  0.00    +0.277 C 
ENDBRANCH  14  16
BRANCH  13  18
ATOM     18  O   UNL     1      -3.546   1.202  -6.760  0.00  0.00    -0.479 OA
BRANCH  18  19
ATOM     19  C   UNL     1      -3.574   2.511  -7.333  0.00  0.00    +0.324 C 
BRANCH  19  20
ATOM     20  C   UNL     1      -4.458   2.506  -8.554  0.00  0.00    +0.248 C 
ATOM     21  O   UNL     1      -5.010   1.482  -8.899  0.00  0.00    -0.272 OA
ATOM     22  N   UNL     1      -4.635   3.639  -9.262  0.00  0.00    -0.327 N 
ATOM     23  H   UNL     1      -5.280   3.635 -10.153  0.00  0.00    +0.145 HD
ATOM     24  H   UNL     1      -4.135   4.567  -8.949  0.00  0.00    +0.145 HD
ENDBRANCH  19  20
ENDBRANCH  18  19
ENDBRANCH  13  18
ENDBRANCH   7  10
BRANCH   1  25
ATOM     25  C   UNL     1      -2.235   2.923   2.357  0.00  0.00    +0.019 C 
BRANCH  25  27
ATOM     26  N   UNL     1      -4.046   1.802   3.615  0.00  0.00    -0.287 N 
ATOM     27  C   UNL     1      -3.258   1.829   2.522  0.00  0.00    +0.201 C 
ATOM     28  O   UNL     1      -3.373   0.972   1.671  0.00  0.00    -0.278 OA
ATOM     29  H   UNL     1      -3.990   2.615   4.354  0.00  0.00    +0.155 HD
BRANCH  26  35
ATOM     30  C   UNL     1      -6.622  -1.053   6.678  0.00  0.00    +0.044 C 
ATOM     31  C   UNL     1      -6.202  -0.665   5.284  0.00  0.00    -0.046 A 
ATOM     32  C   UNL     1      -6.697  -1.359   4.195  0.00  0.00    +0.004 A 
ATOM     33  C   UNL     1      -6.314  -1.007   2.914  0.00  0.00    +0.002 A 
ATOM     34  C   UNL     1      -5.435   0.041   2.719  0.00  0.00    +0.023 A 
ATOM     35  C   UNL     1      -4.936   0.740   3.810  0.00  0.00    +0.036 A 
ATOM     36  C   UNL     1      -5.319   0.379   5.095  0.00  0.00    -0.026 A 
ATOM     37  C   UNL     1      -4.775   1.131   6.283  0.00  0.00    +0.046 C 
ENDBRANCH  26  35
ENDBRANCH  25  27
ENDBRANCH   1  25
TORSDOF 8
