REMARK  Name = ZINC04063084
REMARK  3 active torsions:
REMARK  status: ('A' for Active; 'I' for Inactive)
REMARK    1  A    between atoms: C_11  and  C_15
REMARK    2  A    between atoms: N_22  and  C_25
REMARK    3  A    between atoms: C_23  and  O_24
REMARK                            x       y       z     vdW  Elec       q    Type
REMARK                         _______ _______ _______ _____ _____    ______ ____
ROOT
ATOM      1  C   UNL     1       1.400   1.611  -0.003  0.00  0.00    +0.069 A 
ATOM      2  C   UNL     1       1.648   2.991   0.108  0.00  0.00    +0.260 A 
ATOM      3  O   UNL     1       0.720   3.775   0.214  0.00  0.00    -0.267 OA
ATOM      4  N   UNL     1       2.918   3.442   0.097  0.00  0.00    -0.274 N 
ATOM      5  H   UNL     1       3.097   4.422   0.176  0.00  0.00    +0.173 HD
ATOM      6  C   UNL     1       3.946   2.582  -0.019  0.00  0.00    +0.337 A 
ATOM      7  O   UNL     1       5.085   3.008  -0.027  0.00  0.00    -0.246 OA
ATOM      8  N   UNL     1       3.733   1.257  -0.127  0.00  0.00    -0.230 N 
ATOM      9  C   UNL     1       2.455   0.756  -0.114  0.00  0.00    +0.209 A 
ENDROOT
BRANCH   1  20
ATOM     10  C   UNL     1      -3.554   3.243  -4.392  0.00  0.00    +0.001 A 
ATOM     11  C   UNL     1      -2.452   2.973  -5.188  0.00  0.00    +0.002 A 
ATOM     12  C   UNL     1      -1.285   2.435  -4.674  0.00  0.00    +0.026 A 
ATOM     13  C   UNL     1      -1.260   2.171  -3.307  0.00  0.00    +0.047 A 
ATOM     14  C   UNL     1      -2.391   2.449  -2.496  0.00  0.00    +0.003 A 
ATOM     15  C   UNL     1      -3.558   2.994  -3.042  0.00  0.00    +0.010 A 
ATOM     16  C   UNL     1      -2.023   2.059  -1.153  0.00  0.00    -0.022 A 
ATOM     17  C   UNL     1      -0.751   1.590  -1.209  0.00  0.00    +0.011 A 
ATOM     18  N   UNL     1      -0.293   1.652  -2.493  0.00  0.00    -0.359 N 
ATOM     19  H   UNL     1       0.589   1.371  -2.783  0.00  0.00    +0.166 HD
ATOM     20  C   UNL     1      -0.013   1.086   0.008  0.00  0.00    +0.018 C 
ATOM     21  C   UNL     1      -2.143   1.243   1.167  0.00  0.00    -0.076 C 
ATOM     22  C   UNL     1      -2.832   2.127   0.118  0.00  0.00    +0.018 C 
ATOM     23  N   UNL     1      -0.704   1.571   1.223  0.00  0.00    +0.388 N 
ATOM     24  H   UNL     1      -0.592   2.589   1.291  0.00  0.00    -0.084 HD
ATOM     25  H   UNL     1      -0.288   1.125   2.049  0.00  0.00    -0.084 HD
ENDBRANCH   1  20
BRANCH   8  26
ATOM     26  C   UNL     1       4.823   0.384  -0.247  0.00  0.00    +0.089 A 
ATOM     27  C   UNL     1       5.415  -0.150   0.889  0.00  0.00    +0.029 A 
ATOM     28  C   UNL     1       6.486  -1.015   0.768  0.00  0.00    +0.002 A 
ATOM     29  C   UNL     1       6.976  -1.341  -0.483  0.00  0.00    +0.003 A 
ATOM     30  C   UNL     1       6.393  -0.807  -1.618  0.00  0.00    +0.040 A 
ATOM     31  C   UNL     1       5.317   0.055  -1.504  0.00  0.00    +0.147 A 
ATOM     32  F   UNL     1       4.747   0.576  -2.612  0.00  0.00    -0.203 F 
ENDBRANCH   8  26
BRANCH   9  33
ATOM     33  O   UNL     1       2.244  -0.574  -0.216  0.00  0.00    -0.493 OA
ATOM     34  H   UNL     1       3.055  -1.096  -0.290  0.00  0.00    +0.294 HD
ENDBRANCH   9  33
TORSDOF 3
