REMARK  Name = ZINC28359610
REMARK  11 active torsions:
REMARK  status: ('A' for Active; 'I' for Inactive)
REMARK    1  A    between atoms: C_1  and  C_2
REMARK    2  A    between atoms: C_2  and  C_4
REMARK    3  A    between atoms: C_2  and  N_17
REMARK    4  A    between atoms: C_4  and  C_6
REMARK    5  A    between atoms: C_7  and  N_16
REMARK    6  A    between atoms: N_8  and  C_15
REMARK    7  A    between atoms: N_11  and  C_14
REMARK    8  A    between atoms: N_17  and  C_18
REMARK    9  A    between atoms: C_21  and  O_24
REMARK   10  A    between atoms: O_24  and  C_25
REMARK   11  A    between atoms: C_25  and  C_26
REMARK                            x       y       z     vdW  Elec       q    Type
REMARK                         _______ _______ _______ _____ _____    ______ ____
ROOT
ATOM      1  C   UNL     1      -0.743   1.644  -1.267  0.00  0.00    +0.036 C 
ATOM      2  C   UNL     1      -0.024   1.115  -0.024  0.00  0.00    +0.139 C 
ENDROOT
BRANCH   2   3
ATOM      3  C   UNL     1       1.397   1.616  -0.013  0.00  0.00    +0.191 C 
ATOM      4  O   UNL     1       1.720   2.508   0.745  0.00  0.00    -0.290 OA
BRANCH   3   5
ATOM      5  C   UNL     1       2.352   1.050  -0.884  0.00  0.00    +0.122 A 
ATOM      6  C   UNL     1       3.649   1.582  -0.983  0.00  0.00    +0.116 A 
ATOM      7  N   UNL     1       4.540   0.996  -1.836  0.00  0.00    -0.284 N 
ATOM      8  C   UNL     1       4.196  -0.064  -2.584  0.00  0.00    +0.333 A 
ATOM      9  O   UNL     1       5.024  -0.546  -3.332  0.00  0.00    -0.246 OA
ATOM     10  N   UNL     1       2.971  -0.612  -2.536  0.00  0.00    -0.263 N 
ATOM     11  C   UNL     1       2.020  -0.110  -1.721  0.00  0.00    +0.269 A 
ATOM     12  O   UNL     1       0.910  -0.609  -1.681  0.00  0.00    -0.267 OA
ATOM     13  C   UNL     1       2.663  -1.769  -3.380  0.00  0.00    +0.157 C 
ATOM     14  C   UNL     1       5.896   1.540  -1.942  0.00  0.00    +0.155 C 
BRANCH   6  15
ATOM     15  N   UNL     1       4.013   2.660  -0.237  0.00  0.00    -0.344 N 
ATOM     16  H   UNL     1       5.030   3.069  -0.321  0.00  0.00    +0.144 HD
ATOM     17  H   UNL     1       3.289   3.122   0.451  0.00  0.00    +0.144 HD
ENDBRANCH   6  15
ENDBRANCH   3   5
ENDBRANCH   2   3
BRANCH   2  18
ATOM     18  N   UNL     1      -0.718   1.585   1.178  0.00  0.00    -0.334 N 
ATOM     19  H   UNL     1      -0.374   2.496   1.690  0.00  0.00    +0.147 HD
BRANCH  18  20
ATOM     20  C   UNL     1      -1.816   0.874   1.675  0.00  0.00    +0.028 A 
ATOM     21  C   UNL     1      -2.253  -0.273   1.025  0.00  0.00    +0.026 A 
ATOM     22  C   UNL     1      -3.334  -0.976   1.519  0.00  0.00    +0.047 A 
ATOM     23  C   UNL     1      -3.990  -0.531   2.658  0.00  0.00    +0.121 A 
ATOM     24  C   UNL     1      -3.558   0.618   3.304  0.00  0.00    +0.047 A 
ATOM     25  C   UNL     1      -2.474   1.319   2.814  0.00  0.00    +0.026 A 
BRANCH  23  26
ATOM     26  O   UNL     1      -5.058  -1.221   3.141  0.00  0.00    -0.483 OA
BRANCH  26  27
ATOM     27  C   UNL     1      -5.449  -2.395   2.426  0.00  0.00    +0.324 C 
BRANCH  27  28
ATOM     28  C   UNL     1      -6.640  -3.022   3.103  0.00  0.00    +0.248 C 
ATOM     29  O   UNL     1      -7.108  -2.514   4.099  0.00  0.00    -0.272 OA
ATOM     30  N   UNL     1      -7.185  -4.148   2.601  0.00  0.00    -0.327 N 
ATOM     31  H   UNL     1      -8.054  -4.606   3.095  0.00  0.00    +0.145 HD
ATOM     32  H   UNL     1      -6.760  -4.609   1.697  0.00  0.00    +0.145 HD
ENDBRANCH  27  28
ENDBRANCH  26  27
ENDBRANCH  23  26
ENDBRANCH  18  20
ENDBRANCH   2  18
TORSDOF 8
