REMARK  Name = ZINC03386395
REMARK  8 active torsions:
REMARK  status: ('A' for Active; 'I' for Inactive)
REMARK    1  A    between atoms: C_1  and  C_2
REMARK    2  A    between atoms: C_12  and  C_14
REMARK    3  A    between atoms: C_14  and  C_16
REMARK    4  A    between atoms: C_14  and  N_48
REMARK    5  A    between atoms: C_17  and  C_18
REMARK    6  A    between atoms: C_17  and  N_48
REMARK    7  A    between atoms: C_21  and  S_24
REMARK    8  A    between atoms: S_24  and  N_27
REMARK                            x       y       z     vdW  Elec       q    Type
REMARK                         _______ _______ _______ _____ _____    ______ ____
ROOT
ATOM      1  N   UNL     1       3.561  -0.069  -1.816  0.00  0.00    +0.389 N 
ATOM      2  H   UNL     1       3.447   0.488  -2.670  0.00  0.00    -0.084 HD
ATOM      3  H   UNL     1       2.969  -0.906  -1.872  0.00  0.00    -0.084 HD
ENDROOT
BRANCH   1   4
ATOM      4  C   UNL     1       3.154   0.737  -0.650  0.00  0.00    +0.014 C 
ATOM      5  C   UNL     1       3.535   2.201  -0.883  0.00  0.00    -0.004 C 
BRANCH   4  16
ATOM      6  C   UNL     1       2.859   0.881   2.342  0.00  0.00    +0.029 C 
ATOM      7  C   UNL     1       1.786   1.788   1.736  0.00  0.00    +0.083 C 
ATOM      8  C   UNL     1       0.704   2.108   2.780  0.00  0.00    +0.059 C 
ATOM      9  C   UNL     1      -0.571   1.550   2.191  0.00  0.00    -0.024 A 
ATOM     10  C   UNL     1      -1.865   1.540   2.675  0.00  0.00    +0.005 A 
ATOM     11  C   UNL     1      -2.878   0.957   1.937  0.00  0.00    +0.000 A 
ATOM     12  C   UNL     1      -2.595   0.384   0.711  0.00  0.00    +0.002 A 
ATOM     13  C   UNL     1      -1.305   0.392   0.224  0.00  0.00    +0.024 A 
ATOM     14  C   UNL     1      -0.276   0.978   0.963  0.00  0.00    +0.040 A 
ATOM     15  N   UNL     1       1.083   1.092   0.656  0.00  0.00    -0.269 N 
ATOM     16  C   UNL     1       1.662   0.629  -0.470  0.00  0.00    +0.206 C 
ATOM     17  O   UNL     1       0.981   0.126  -1.339  0.00  0.00    -0.277 OA
ENDBRANCH   4  16
ENDBRANCH   1   4
BRANCH   1  18
ATOM     18  C   UNL     1       4.972  -0.479  -1.688  0.00  0.00    -0.046 C 
BRANCH  18  19
ATOM     19  C   UNL     1       5.359  -1.300  -2.891  0.00  0.00    -0.064 A 
ATOM     20  C   UNL     1       5.201  -2.674  -2.870  0.00  0.00    +0.003 A 
ATOM     21  C   UNL     1       5.552  -3.426  -3.975  0.00  0.00    +0.029 A 
ATOM     22  C   UNL     1       6.070  -2.807  -5.097  0.00  0.00    +0.105 A 
ATOM     23  C   UNL     1       6.233  -1.434  -5.116  0.00  0.00    +0.029 A 
ATOM     24  C   UNL     1       5.878  -0.681  -4.012  0.00  0.00    +0.003 A 
BRANCH  22  25
ATOM     25  S   UNL     1       6.521  -3.767  -6.504  0.00  0.00    +0.056 S 
ATOM     26  O   UNL     1       5.763  -4.966  -6.438  0.00  0.00    -0.153 OA
ATOM     27  O   UNL     1       6.471  -2.894  -7.624  0.00  0.00    -0.153 OA
BRANCH  25  28
ATOM     28  N   UNL     1       8.108  -4.199  -6.312  0.00  0.00    -0.204 NA
ATOM     29  H   UNL     1       8.597  -3.915  -5.524  0.00  0.00    +0.144 HD
ATOM     30  H   UNL     1       8.550  -4.737  -6.988  0.00  0.00    +0.144 HD
ENDBRANCH  25  28
ENDBRANCH  22  25
ENDBRANCH  18  19
ENDBRANCH   1  18
TORSDOF 6
