REMARK  Name = ZINC63514814
REMARK  11 active torsions:
REMARK  status: ('A' for Active; 'I' for Inactive)
REMARK    1  A    between atoms: C_1  and  C_2
REMARK    2  A    between atoms: C_4  and  C_12
REMARK    3  A    between atoms: C_12  and  C_13
REMARK    4  A    between atoms: C_13  and  N_14
REMARK    5  A    between atoms: C_15  and  C_17
REMARK    6  A    between atoms: C_17  and  N_28
REMARK    7  A    between atoms: C_18  and  C_19
REMARK    8  A    between atoms: C_23  and  N_25
REMARK    9  A    between atoms: C_29  and  C_31
REMARK   10  A    between atoms: C_36  and  O_37
REMARK   11  A    between atoms: O_37  and  C_38
REMARK                            x       y       z     vdW  Elec       q    Type
REMARK                         _______ _______ _______ _____ _____    ______ ____
ROOT
ATOM      1  C   UNL     1      -7.248  -0.863  -2.127  0.00  0.00    +0.097 C 
ATOM      2  C   UNL     1      -6.952  -0.566  -3.413  0.00  0.00    +0.036 C 
ENDROOT
BRANCH   2   3
ATOM      3  C   UNL     1      -8.014  -0.569  -4.431  0.00  0.00    -0.021 A 
ATOM      4  C   UNL     1      -9.357  -0.493  -4.046  0.00  0.00    +0.008 A 
ATOM      5  C   UNL     1     -10.347  -0.496  -5.007  0.00  0.00    +0.003 A 
ATOM      6  C   UNL     1     -10.014  -0.575  -6.348  0.00  0.00    +0.033 A 
ATOM      7  C   UNL     1      -8.688  -0.651  -6.736  0.00  0.00    +0.127 A 
ATOM      8  C   UNL     1      -7.686  -0.643  -5.788  0.00  0.00    +0.040 A 
BRANCH   7   9
ATOM      9  N   UNL     1      -8.343  -0.736  -8.174  0.00  0.00    +0.056 N 
ATOM     10  O   UNL     1      -9.220  -0.738  -9.006  0.00  0.00    -0.126 OA
ATOM     11  O   UNL     1      -7.186  -0.802  -8.514  0.00  0.00    -0.126 OA
ENDBRANCH   7   9
ENDBRANCH   2   3
BRANCH   1  13
ATOM     12  N   UNL     1      -4.990  -0.274  -1.408  0.00  0.00    -0.310 N 
ATOM     13  C   UNL     1      -6.223  -0.710  -1.083  0.00  0.00    +0.258 C 
ATOM     14  O   UNL     1      -6.489  -0.978   0.074  0.00  0.00    -0.269 OA
ATOM     15  H   UNL     1      -4.778  -0.061  -2.330  0.00  0.00    +0.149 HD
BRANCH  12  16
ATOM     16  C   UNL     1      -3.969  -0.122  -0.368  0.00  0.00    +0.109 C 
BRANCH  16  17
ATOM     17  C   UNL     1      -2.670   0.383  -0.999  0.00  0.00    +0.052 C 
BRANCH  17  20
ATOM     18  C   UNL     1      -0.182   2.436  -0.677  0.00  0.00    +0.035 C 
ATOM     19  C   UNL     1      -0.196   1.013  -0.115  0.00  0.00    +0.103 C 
ATOM     20  C   UNL     1      -1.620   0.540   0.071  0.00  0.00    -0.037 C 
ATOM     21  C   UNL     1      -1.761   0.285   1.392  0.00  0.00    -0.001 A 
ATOM     22  C   UNL     1      -2.890  -0.195   2.197  0.00  0.00    +0.010 A 
ATOM     23  C   UNL     1      -2.724  -0.355   3.530  0.00  0.00    +0.001 A 
ATOM     24  C   UNL     1      -1.503  -0.075   4.160  0.00  0.00    +0.002 A 
ATOM     25  C   UNL     1      -0.421   0.369   3.487  0.00  0.00    +0.026 A 
ATOM     26  C   UNL     1      -0.482   0.573   2.081  0.00  0.00    +0.043 A 
ATOM     27  N   UNL     1       0.415   0.990   1.218  0.00  0.00    -0.378 N 
ATOM     28  H   UNL     1       1.329   1.240   1.427  0.00  0.00    +0.160 HD
ENDBRANCH  17  20
ENDBRANCH  16  17
ENDBRANCH  12  16
ENDBRANCH   1  13
BRANCH   1  29
ATOM     29  N   UNL     1      -8.527  -1.315  -1.790  0.00  0.00    -0.277 N 
ATOM     30  C   UNL     1      -9.257  -0.649  -0.873  0.00  0.00    +0.252 C 
ATOM     31  O   UNL     1      -8.765   0.278  -0.260  0.00  0.00    -0.270 OA
ATOM     32  H   UNL     1      -8.889  -2.108  -2.215  0.00  0.00    +0.155 HD
BRANCH  30  33
ATOM     33  C   UNL     1     -10.654  -1.046  -0.614  0.00  0.00    +0.079 A 
ATOM     34  C   UNL     1     -11.191  -2.175  -1.238  0.00  0.00    +0.017 A 
ATOM     35  C   UNL     1     -12.497  -2.540  -0.991  0.00  0.00    +0.001 A 
ATOM     36  C   UNL     1     -13.281  -1.793  -0.127  0.00  0.00    +0.004 A 
ATOM     37  C   UNL     1     -12.762  -0.675   0.496  0.00  0.00    +0.046 A 
ATOM     38  C   UNL     1     -11.448  -0.296   0.265  0.00  0.00    +0.132 A 
BRANCH  38  39
ATOM     39  O   UNL     1     -10.936   0.798   0.880  0.00  0.00    -0.494 OA
ATOM     40  C   UNL     1     -11.766   1.448   1.845  0.00  0.00    +0.277 C 
ENDBRANCH  38  39
ENDBRANCH  30  33
ENDBRANCH   1  29
TORSDOF 9
