REMARK  Name = ZINC67324911
REMARK  5 active torsions:
REMARK  status: ('A' for Active; 'I' for Inactive)
REMARK    1  A    between atoms: C_1  and  O_2
REMARK    2  A    between atoms: O_2  and  C_3
REMARK    3  A    between atoms: N_5  and  C_6
REMARK    4  A    between atoms: C_8  and  N_13
REMARK    5  A    between atoms: N_16  and  C_17
REMARK                            x       y       z     vdW  Elec       q    Type
REMARK                         _______ _______ _______ _____ _____    ______ ____
ROOT
ATOM      1  N   UNL     1       3.285  -1.800   5.082  0.00  0.00    -0.269 N 
ATOM      2  C   UNL     1       4.059  -2.442   5.979  0.00  0.00    +0.304 C 
ATOM      3  O   UNL     1       4.152  -3.654   5.945  0.00  0.00    -0.252 OA
ATOM      4  N   UNL     1       4.731  -1.740   6.913  0.00  0.00    -0.292 N 
ATOM      5  H   UNL     1       3.141  -0.844   5.161  0.00  0.00    +0.156 HD
ATOM      6  H   UNL     1       4.658  -0.773   6.939  0.00  0.00    +0.151 HD
ENDROOT
BRANCH   4   7
ATOM      7  C   UNL     1       5.573  -2.438   7.888  0.00  0.00    +0.108 C 
ATOM      8  C   UNL     1       4.701  -2.992   9.014  0.00  0.00    +0.030 C 
ATOM      9  C   UNL     1       3.557  -2.041   9.332  0.00  0.00    +0.043 C 
ATOM     10  C   UNL     1       4.013  -0.736   9.952  0.00  0.00    +0.229 C 
ATOM     11  O   UNL     1       4.799   0.021   9.025  0.00  0.00    -0.492 OA
ATOM     12  C   UNL     1       6.127  -0.271   9.005  0.00  0.00    +0.125 A 
ATOM     13  C   UNL     1       6.579  -1.467   8.479  0.00  0.00    +0.014 A 
ATOM     14  C   UNL     1       7.921  -1.781   8.486  0.00  0.00    +0.009 A 
ATOM     15  C   UNL     1       8.832  -0.879   9.008  0.00  0.00    +0.001 A 
ATOM     16  C   UNL     1       8.395   0.330   9.517  0.00  0.00    +0.004 A 
ATOM     17  C   UNL     1       7.040   0.640   9.523  0.00  0.00    +0.046 A 
ENDBRANCH   4   7
BRANCH   1  20
ATOM     18  C   UNL     1       0.927  -2.756   2.420  0.00  0.00    +0.073 A 
ATOM     19  C   UNL     1       1.516  -2.047   3.457  0.00  0.00    +0.049 A 
ATOM     20  C   UNL     1       2.688  -2.514   4.035  0.00  0.00    +0.037 A 
ATOM     21  C   UNL     1       3.268  -3.688   3.575  0.00  0.00    +0.026 A 
ATOM     22  C   UNL     1       2.680  -4.393   2.541  0.00  0.00    +0.042 A 
ATOM     23  C   UNL     1       1.509  -3.934   1.966  0.00  0.00    +0.145 A 
ATOM     24  F   UNL     1       0.934  -4.628   0.960  0.00  0.00    -0.204 F 
BRANCH  18  27
ATOM     25  C   UNL     1      -0.468  -0.963   1.708  0.00  0.00    +0.404 C 
ATOM     26  O   UNL     1       0.328  -0.173   2.177  0.00  0.00    -0.226 OA
ATOM     27  N   UNL     1      -0.257  -2.288   1.834  0.00  0.00    -0.248 N 
ATOM     28  H   UNL     1      -0.924  -2.917   1.519  0.00  0.00    +0.158 HD
BRANCH  25  30
ATOM     29  C   UNL     1      -1.722   0.903   0.968  0.00  0.00    +0.282 C 
ATOM     30  O   UNL     1      -1.561  -0.513   1.064  0.00  0.00    -0.453 OA
ENDBRANCH  25  30
ENDBRANCH  18  27
ENDBRANCH   1  20
TORSDOF 4
