REMARK  Name = ZINC37813880
REMARK  4 active torsions:
REMARK  status: ('A' for Active; 'I' for Inactive)
REMARK    1  A    between atoms: C_10  and  C_13
REMARK    2  A    between atoms: N_15  and  C_16
REMARK    3  A    between atoms: N_15  and  C_20
REMARK    4  A    between atoms: C_16  and  C_17
REMARK                            x       y       z     vdW  Elec       q    Type
REMARK                         _______ _______ _______ _____ _____    ______ ____
ROOT
ATOM      1  C   UNL     1       2.494  -2.583  -0.996  0.00  0.00    +0.202 C 
ATOM      2  O   UNL     1       2.519  -1.838  -1.952  0.00  0.00    -0.277 OA
ATOM      3  N   UNL     1       2.483  -3.918  -1.183  0.00  0.00    -0.291 N 
ENDROOT
BRANCH   1  11
ATOM      4  C   UNL     1      -0.019   1.522   0.010  0.00  0.00    +0.000 C 
ATOM      5  C   UNL     1       1.427   2.031  -0.001  0.00  0.00    -0.002 C 
ATOM      6  C   UNL     1       2.107   1.572   1.289  0.00  0.00    -0.015 C 
ATOM      7  C   UNL     1       2.095   0.066   1.413  0.00  0.00    -0.068 C 
ATOM      8  C   UNL     1       0.694  -0.547   1.234  0.00  0.00    -0.026 C 
ATOM      9  C   UNL     1       0.002  -0.004   0.002  0.00  0.00    +0.002 C 
ATOM     10  C   UNL     1       1.036  -2.038   0.955  0.00  0.00    -0.005 C 
ATOM     11  C   UNL     1       2.474  -2.017   0.400  0.00  0.00    +0.017 C 
ATOM     12  N   UNL     1       2.895  -0.602   0.369  0.00  0.00    +0.389 N 
ATOM     13  H   UNL     1       2.706  -0.192  -0.533  0.00  0.00    -0.084 HD
ATOM     14  H   UNL     1       3.878  -0.537   0.586  0.00  0.00    -0.084 HD
ENDBRANCH   1  11
BRANCH   3  15
ATOM     15  C   UNL     1       2.452  -4.819  -0.028  0.00  0.00    +0.077 C 
ATOM     16  C   UNL     1       3.661  -5.776  -0.072  0.00  0.00    +0.022 C 
ATOM     17  C   UNL     1       3.101  -7.120   0.457  0.00  0.00    +0.002 C 
ATOM     18  C   UNL     1       1.678  -7.162  -0.154  0.00  0.00    +0.002 C 
ATOM     19  C   UNL     1       1.191  -5.700  -0.080  0.00  0.00    +0.022 C 
ENDBRANCH   3  15
BRANCH   3  20
ATOM     20  C   UNL     1       2.502  -4.468  -2.541  0.00  0.00    +0.203 C 
BRANCH  20  21
ATOM     21  C   UNL     1       3.929  -4.672  -2.980  0.00  0.00    +0.228 C 
ATOM     22  O   UNL     1       4.841  -4.386  -2.232  0.00  0.00    -0.274 OA
ATOM     23  N   UNL     1       4.193  -5.172  -4.203  0.00  0.00    -0.328 N 
ATOM     24  H   UNL     1       3.465  -5.401  -4.801  0.00  0.00    +0.145 HD
ATOM     25  H   UNL     1       5.112  -5.303  -4.486  0.00  0.00    +0.145 HD
ENDBRANCH  20  21
ENDBRANCH   3  20
TORSDOF 4
