REMARK  Name = ZINC39053944
REMARK  6 active torsions:
REMARK  status: ('A' for Active; 'I' for Inactive)
REMARK    1  A    between atoms: C_1  and  C_2
REMARK    2  A    between atoms: C_2  and  C_3
REMARK    3  A    between atoms: C_2  and  C_4
REMARK    4  A    between atoms: C_4  and  C_5
REMARK    5  A    between atoms: C_5  and  S_8
REMARK    6  A    between atoms: S_8  and  N_11
REMARK                            x       y       z     vdW  Elec       q    Type
REMARK                         _______ _______ _______ _____ _____    ______ ____
ROOT
ATOM      1  C   UNL     1       2.154   0.031  -1.268  0.00  0.00    +0.104 C 
ATOM      2  C   UNL     1       2.267   1.342  -2.048  0.00  0.00    +0.033 C 
ATOM      3  C   UNL     1       2.991   0.091  -2.548  0.00  0.00    +0.033 C 
ENDROOT
BRANCH   1   4
ATOM      4  S   UNL     1       3.043  -0.086   0.309  0.00  0.00    +0.033 S 
ATOM      5  O   UNL     1       2.395   0.706   1.295  0.00  0.00    -0.158 OA
ATOM      6  O   UNL     1       3.388  -1.438   0.578  0.00  0.00    -0.158 OA
BRANCH   4   7
ATOM      7  N   UNL     1       4.489   0.674   0.040  0.00  0.00    -0.208 NA
ATOM      8  H   UNL     1       4.712   0.992  -0.850  0.00  0.00    +0.144 HD
ATOM      9  H   UNL     1       5.114   0.802   0.771  0.00  0.00    +0.144 HD
ENDBRANCH   4   7
ENDBRANCH   1   4
BRANCH   1  10
ATOM     10  C   UNL     1       0.820  -0.716  -1.331  0.00  0.00    +0.034 C 
BRANCH  10  12
ATOM     11  C   UNL     1      -0.327   0.927   0.163  0.00  0.00    +0.007 C 
ATOM     12  C   UNL     1       0.075  -0.540  -0.006  0.00  0.00    -0.015 C 
ATOM     13  C   UNL     1      -1.180  -1.415  -0.007  0.00  0.00    +0.007 C 
ENDBRANCH  10  12
ENDBRANCH   1  10
TORSDOF 4
