REMARK  Name = ZINC08920460
REMARK  10 active torsions:
REMARK  status: ('A' for Active; 'I' for Inactive)
REMARK    1  A    between atoms: C_1  and  C_2
REMARK    2  A    between atoms: C_2  and  N_57
REMARK    3  A    between atoms: C_3  and  C_4
REMARK    4  A    between atoms: C_3  and  N_57
REMARK    5  A    between atoms: C_5  and  C_6
REMARK    6  A    between atoms: C_5  and  N_57
REMARK    7  A    between atoms: C_6  and  N_7
REMARK    8  A    between atoms: C_8  and  C_26
REMARK    9  A    between atoms: C_11  and  C_12
REMARK   10  A    between atoms: C_11  and  O_21
REMARK                            x       y       z     vdW  Elec       q    Type
REMARK                         _______ _______ _______ _____ _____    ______ ____
ROOT
ATOM      1  N   UNL     1      -0.051   2.100   6.448  0.00  0.00    -0.285 N 
ATOM      2  C   UNL     1      -1.108   1.740   7.397  0.00  0.00    +0.144 C 
ATOM      3  C   UNL     1      -1.008   2.716   8.547  0.00  0.00    +0.074 C 
ATOM      4  C   UNL     1      -1.808   2.756   9.677  0.00  0.00    +0.168 C 
ATOM      5  C   UNL     1       0.059   3.571   8.240  0.00  0.00    +0.249 C 
ATOM      6  O   UNL     1       0.453   4.496   8.929  0.00  0.00    -0.282 OA
ATOM      7  C   UNL     1       0.629   3.153   6.932  0.00  0.00    +0.288 C 
ATOM      8  O   UNL     1       1.571   3.687   6.381  0.00  0.00    -0.266 OA
ENDROOT
BRANCH   4   9
ATOM      9  C   UNL     1      -1.669   3.854  10.632  0.00  0.00    +0.171 A 
ATOM     10  C   UNL     1      -1.555   3.713  11.983  0.00  0.00    +0.061 A 
ATOM     11  C   UNL     1      -1.440   5.018  12.524  0.00  0.00    +0.021 A 
ATOM     12  C   UNL     1      -1.295   5.518  13.824  0.00  0.00    +0.011 A 
ATOM     13  C   UNL     1      -1.214   6.866  14.026  0.00  0.00    +0.001 A 
ATOM     14  C   UNL     1      -1.275   7.745  12.953  0.00  0.00    +0.004 A 
ATOM     15  C   UNL     1      -1.417   7.274  11.665  0.00  0.00    +0.047 A 
ATOM     16  C   UNL     1      -1.502   5.906  11.434  0.00  0.00    +0.136 A 
ATOM     17  O   UNL     1      -1.640   5.167  10.315  0.00  0.00    -0.452 OA
ENDBRANCH   4   9
BRANCH   2  18
ATOM     18  C   UNL     1      -2.457   1.858   6.736  0.00  0.00    -0.022 A 
ATOM     19  C   UNL     1      -2.719   2.915   5.884  0.00  0.00    +0.007 A 
ATOM     20  C   UNL     1      -3.954   3.021   5.273  0.00  0.00    +0.015 A 
ATOM     21  C   UNL     1      -4.932   2.075   5.522  0.00  0.00    +0.018 A 
ATOM     22  C   UNL     1      -4.672   1.021   6.378  0.00  0.00    +0.015 A 
ATOM     23  C   UNL     1      -3.434   0.913   6.985  0.00  0.00    +0.007 A 
ATOM     24 BR   UNL     1      -6.625   2.223   4.692  0.00  0.00    -0.050 Br
ENDBRANCH   2  18
BRANCH   4  25
ATOM     25  O   UNL     1      -2.718   1.781   9.895  0.00  0.00    -0.503 OA
ATOM     26  H   UNL     1      -3.205   1.965  10.749  0.00  0.00    +0.292 HD
ENDBRANCH   4  25
BRANCH   1  27
ATOM     27  C   UNL     1       0.225   1.418   5.181  0.00  0.00    +0.090 C 
BRANCH  27  28
ATOM     28  C   UNL     1      -0.589   2.071   4.063  0.00  0.00    -0.060 C 
BRANCH  28  29
ATOM     29  N   UNL     1      -0.285   1.387   2.789  0.00  0.00    +0.380 N 
ATOM     30  H   UNL     1       0.734   1.356   2.662  0.00  0.00    -0.082 HD
BRANCH  29  32
ATOM     31  C   UNL     1      -0.022   3.353   1.362  0.00  0.00    -0.017 C 
ATOM     32  C   UNL     1      -0.887   2.127   1.661  0.00  0.00    -0.082 C 
ENDBRANCH  29  32
BRANCH  29  33
ATOM     33  C   UNL     1      -0.806   0.004   2.821  0.00  0.00    -0.082 C 
ATOM     34  C   UNL     1      -0.106  -0.809   1.730  0.00  0.00    -0.017 C 
ENDBRANCH  29  33
ENDBRANCH  28  29
ENDBRANCH  27  28
ENDBRANCH   1  27
TORSDOF 8
