REMARK  Name = ZINC40490512
REMARK  4 active torsions:
REMARK  status: ('A' for Active; 'I' for Inactive)
REMARK    1  A    between atoms: C_1  and  N_2
REMARK    2  A    between atoms: C_6  and  C_7
REMARK    3  A    between atoms: C_7  and  C_9
REMARK    4  A    between atoms: C_7  and  N_16
REMARK                            x       y       z     vdW  Elec       q    Type
REMARK                         _______ _______ _______ _____ _____    ______ ____
ROOT
ATOM      1  C   UNL     1       0.030  -0.354   2.521  0.00  0.00    +0.169 C 
ENDROOT
BRANCH   1   2
ATOM      2  N   UNL     1      -0.742  -1.296   3.336  0.00  0.00    -0.315 N 
ATOM      3  C   UNL     1      -2.117  -1.159   3.438  0.00  0.00    +0.126 A 
ATOM      4  C   UNL     1      -2.777  -0.131   2.763  0.00  0.00    +0.083 A 
ATOM      5  C   UNL     1      -4.151  -0.033   2.893  0.00  0.00    +0.136 A 
ATOM      6  N   UNL     1      -4.795  -0.912   3.649  0.00  0.00    -0.203 NA
ATOM      7  C   UNL     1      -4.140  -1.877   4.278  0.00  0.00    +0.216 A 
ATOM      8  N   UNL     1      -2.826  -2.007   4.175  0.00  0.00    -0.200 NA
ATOM      9  N   UNL     1      -4.848  -2.774   5.059  0.00  0.00    -0.327 N 
ATOM     10 CL   UNL     1      -5.022   1.226   2.075  0.00  0.00    -0.062 Cl
ATOM     11  H   UNL     1      -0.290  -2.015   3.805  0.00  0.00    +0.148 HD
ATOM     12  H   UNL     1      -5.811  -2.692   5.140  0.00  0.00    +0.145 HD
ATOM     13  H   UNL     1      -4.381  -3.485   5.524  0.00  0.00    +0.145 HD
ENDBRANCH   1   2
BRANCH   1  19
ATOM     14  C   UNL     1      -0.018   1.461   0.010  0.00  0.00    +0.150 C 
ATOM     15  N   UNL     1       0.002  -0.004   0.002  0.00  0.00    -0.337 N 
ATOM     16  C   UNL     1       0.009  -0.810  -1.104  0.00  0.00    +0.104 A 
ATOM     17  C   UNL     1       0.029  -2.081  -0.660  0.00  0.00    +0.102 A 
ATOM     18  N   UNL     1       0.034  -2.052   0.681  0.00  0.00    -0.348 N 
ATOM     19  C   UNL     1       0.023  -0.811   1.085  0.00  0.00    +0.112 A 
ATOM     20  H   UNL     1       0.048  -2.831   1.260  0.00  0.00    +0.167 HD
ENDBRANCH   1  19
BRANCH   1  21
ATOM     21  C   UNL     1       1.449  -0.300   3.024  0.00  0.00    +0.015 A 
ATOM     22  C   UNL     1       1.984  -1.379   3.704  0.00  0.00    +0.009 A 
ATOM     23  C   UNL     1       3.285  -1.329   4.166  0.00  0.00    +0.001 A 
ATOM     24  C   UNL     1       4.055  -0.201   3.948  0.00  0.00    +0.003 A 
ATOM     25  C   UNL     1       3.523   0.878   3.268  0.00  0.00    +0.039 A 
ATOM     26  C   UNL     1       2.221   0.828   2.801  0.00  0.00    +0.129 A 
ATOM     27  F   UNL     1       1.701   1.880   2.132  0.00  0.00    -0.205 F 
ENDBRANCH   1  21
TORSDOF 3
