REMARK  Name = ZINC44019938
REMARK  13 active torsions:
REMARK  status: ('A' for Active; 'I' for Inactive)
REMARK    1  A    between atoms: C_2  and  C_3
REMARK    2  A    between atoms: C_3  and  O_4
REMARK    3  A    between atoms: O_4  and  C_5
REMARK    4  A    between atoms: C_5  and  C_7
REMARK    5  A    between atoms: C_9  and  O_39
REMARK    6  A    between atoms: C_11  and  O_38
REMARK    7  A    between atoms: C_13  and  O_37
REMARK    8  A    between atoms: C_15  and  O_18
REMARK    9  A    between atoms: O_18  and  C_19
REMARK   10  A    between atoms: C_19  and  C_21
REMARK   11  A    between atoms: C_21  and  C_22
REMARK   12  A    between atoms: C_27  and  N_28
REMARK   13  A    between atoms: N_28  and  C_29
REMARK                            x       y       z     vdW  Elec       q    Type
REMARK                         _______ _______ _______ _____ _____    ______ ____
ROOT
ATOM      1  O   UNL     1      -4.553  -5.868  -3.444  0.00  0.00    -0.432 OA
ENDROOT
BRANCH   1   6
ATOM      2  C   UNL     1      -1.777  -3.568  -2.962  0.00  0.00    +0.261 C 
ATOM      3  C   UNL     1      -0.645  -4.570  -2.720  0.00  0.00    +0.185 C 
ATOM      4  C   UNL     1      -0.807  -5.752  -3.680  0.00  0.00    +0.180 C 
ATOM      5  C   UNL     1      -2.190  -6.378  -3.476  0.00  0.00    +0.214 C 
ATOM      6  C   UNL     1      -3.262  -5.306  -3.688  0.00  0.00    +0.343 C 
ATOM      7  O   UNL     1      -3.036  -4.221  -2.786  0.00  0.00    -0.322 OA
BRANCH   2   8
ATOM      8  C   UNL     1      -1.660  -2.430  -1.981  0.00  0.00    +0.339 C 
ATOM      9  O   UNL     1      -2.520  -2.257  -1.150  0.00  0.00    -0.248 OA
BRANCH   8  10
ATOM     10  O   UNL     1      -0.599  -1.609  -2.030  0.00  0.00    -0.459 OA
BRANCH  10  11
ATOM     11  C   UNL     1      -0.553  -0.552  -1.069  0.00  0.00    +0.259 C 
BRANCH  11  13
ATOM     12  C   UNL     1       0.642   1.569  -1.264  0.00  0.00    +0.007 C 
ATOM     13  C   UNL     1       0.700   0.260  -1.276  0.00  0.00    +0.006 C 
ENDBRANCH  11  13
ENDBRANCH  10  11
ENDBRANCH   8  10
ENDBRANCH   2   8
BRANCH   5  14
ATOM     14  O   UNL     1      -2.379  -7.437  -4.415  0.00  0.00    -0.383 OA
ATOM     15  H   UNL     1      -3.236  -7.879  -4.343  0.00  0.00    +0.210 HD
ENDBRANCH   5  14
BRANCH   4  16
ATOM     16  O   UNL     1      -0.682  -5.294  -5.028  0.00  0.00    -0.386 OA
ATOM     17  H   UNL     1      -0.774  -5.992  -5.691  0.00  0.00    +0.210 HD
ENDBRANCH   4  16
BRANCH   3  18
ATOM     18  O   UNL     1      -0.702  -5.038  -1.371  0.00  0.00    -0.386 OA
ATOM     19  H   UNL     1      -0.611  -4.340  -0.708  0.00  0.00    +0.210 HD
ENDBRANCH   3  18
ENDBRANCH   1   6
BRANCH   1  20
ATOM     20  C   UNL     1      -5.617  -5.123  -3.785  0.00  0.00    +0.314 C 
ATOM     21  O   UNL     1      -5.457  -4.030  -4.274  0.00  0.00    -0.250 OA
BRANCH  20  22
ATOM     22  C   UNL     1      -7.010  -5.651  -3.557  0.00  0.00    +0.157 C 
BRANCH  22  23
ATOM     23  C   UNL     1      -8.016  -4.629  -4.022  0.00  0.00    -0.016 A 
ATOM     24  C   UNL     1      -8.557  -3.733  -3.121  0.00  0.00    +0.006 A 
ATOM     25  C   UNL     1      -9.480  -2.795  -3.547  0.00  0.00    +0.000 A 
ATOM     26  C   UNL     1      -9.864  -2.751  -4.875  0.00  0.00    +0.002 A 
ATOM     27  C   UNL     1      -9.327  -3.644  -5.780  0.00  0.00    +0.023 A 
ATOM     28  C   UNL     1      -8.395  -4.584  -5.357  0.00  0.00    +0.035 A 
BRANCH  28  29
ATOM     29  N   UNL     1      -7.845  -5.485  -6.272  0.00  0.00    -0.312 N 
ATOM     30  H   UNL     1      -7.244  -5.168  -6.965  0.00  0.00    +0.152 HD
BRANCH  29  31
ATOM     31  C   UNL     1      -8.160  -6.845  -6.190  0.00  0.00    +0.068 A 
ATOM     32  C   UNL     1      -9.369  -7.248  -5.635  0.00  0.00    +0.063 A 
ATOM     33  C   UNL     1      -9.677  -8.593  -5.555  0.00  0.00    +0.022 A 
ATOM     34  C   UNL     1      -8.783  -9.538  -6.026  0.00  0.00    +0.003 A 
ATOM     35  C   UNL     1      -7.579  -9.141  -6.578  0.00  0.00    +0.022 A 
ATOM     36  C   UNL     1      -7.267  -7.797  -6.667  0.00  0.00    +0.063 A 
ATOM     37 CL   UNL     1      -5.758  -7.300  -7.367  0.00  0.00    -0.082 Cl
ATOM     38 CL   UNL     1     -10.491  -6.063  -5.044  0.00  0.00    -0.082 Cl
ENDBRANCH  29  31
ENDBRANCH  28  29
ENDBRANCH  22  23
ENDBRANCH  20  22
ENDBRANCH   1  20
TORSDOF 13
