REMARK  Name = ZINC38806240
REMARK  11 active torsions:
REMARK  status: ('A' for Active; 'I' for Inactive)
REMARK    1  A    between atoms: C_1  and  C_2
REMARK    2  A    between atoms: C_2  and  C_32
REMARK    3  A    between atoms: C_5  and  C_28
REMARK    4  A    between atoms: C_6  and  N_13
REMARK    5  A    between atoms: C_9  and  C_11
REMARK    6  A    between atoms: C_9  and  C_12
REMARK    7  A    between atoms: C_14  and  C_16
REMARK    8  A    between atoms: C_16  and  O_17
REMARK    9  A    between atoms: O_17  and  C_18
REMARK   10  A    between atoms: C_28  and  O_30
REMARK   11  A    between atoms: O_30  and  C_31
REMARK                            x       y       z     vdW  Elec       q    Type
REMARK                         _______ _______ _______ _____ _____    ______ ____
ROOT
ATOM      1  C   UNL     1      -0.019   1.526   0.010  0.00  0.00    -0.010 C 
ATOM      2  C   UNL     1       0.002  -0.004   0.002  0.00  0.00    -0.069 C 
ATOM      3  C   UNL     1      -1.434  -0.533  -0.096  0.00  0.00    +0.024 C 
ATOM      4  C   UNL     1      -2.142  -0.140   1.192  0.00  0.00    -0.024 A 
ATOM      5  C   UNL     1      -3.546   0.163   1.355  0.00  0.00    +0.091 A 
ATOM      6  C   UNL     1      -3.972   0.504   2.633  0.00  0.00    +0.086 A 
ATOM      7  S   UNL     1      -2.578   0.424   3.566  0.00  0.00    -0.079 S 
ATOM      8  C   UNL     1      -1.411  -0.058   2.328  0.00  0.00    -0.016 A 
ATOM      9  C   UNL     1       0.050  -0.330   2.463  0.00  0.00    -0.041 C 
ATOM     10  N   UNL     1       0.699  -0.527   1.169  0.00  0.00    +0.389 N 
ATOM     11  C   UNL     1       0.226  -1.610   3.304  0.00  0.00    -0.005 C 
ATOM     12  C   UNL     1       0.717   0.826   3.222  0.00  0.00    -0.005 C 
ATOM     13  C   UNL     1       0.759  -0.459  -1.260  0.00  0.00    -0.010 C 
ATOM     14  H   UNL     1       0.852  -1.529   1.032  0.00  0.00    -0.084 HD
ATOM     15  H   UNL     1       1.631  -0.110   1.205  0.00  0.00    -0.084 HD
ENDROOT
BRANCH   6  16
ATOM     16  N   UNL     1      -5.254   0.835   3.043  0.00  0.00    -0.277 N 
ATOM     17  C   UNL     1      -5.491   1.142   4.333  0.00  0.00    +0.255 C 
ATOM     18  O   UNL     1      -4.583   1.129   5.137  0.00  0.00    -0.272 OA
ATOM     19  H   UNL     1      -5.981   0.845   2.400  0.00  0.00    +0.155 HD
BRANCH  17  20
ATOM     20  C   UNL     1      -6.885   1.502   4.778  0.00  0.00    +0.324 C 
BRANCH  20  21
ATOM     21  O   UNL     1      -6.880   1.784   6.179  0.00  0.00    -0.483 OA
BRANCH  21  22
ATOM     22  C   UNL     1      -8.068   2.128   6.743  0.00  0.00    +0.122 A 
ATOM     23  C   UNL     1      -9.218   2.184   5.950  0.00  0.00    +0.046 A 
ATOM     24  C   UNL     1     -10.421   2.525   6.486  0.00  0.00    +0.012 A 
ATOM     25  C   UNL     1     -10.513   2.826   7.856  0.00  0.00    -0.018 A 
ATOM     26  C   UNL     1     -11.740   3.181   8.443  0.00  0.00    +0.008 A 
ATOM     27  C   UNL     1     -11.793   3.466   9.773  0.00  0.00    +0.001 A 
ATOM     28  C   UNL     1     -10.648   3.410  10.565  0.00  0.00    +0.001 A 
ATOM     29  C   UNL     1      -9.443   3.070  10.032  0.00  0.00    +0.008 A 
ATOM     30  C   UNL     1      -9.348   2.769   8.662  0.00  0.00    -0.014 A 
ATOM     31  C   UNL     1      -8.123   2.409   8.079  0.00  0.00    +0.054 A 
ENDBRANCH  21  22
ENDBRANCH  20  21
ENDBRANCH  17  20
ENDBRANCH   6  16
BRANCH   5  32
ATOM     32  C   UNL     1      -4.487   0.114   0.234  0.00  0.00    +0.342 C 
ATOM     33  O   UNL     1      -5.073  -0.920  -0.025  0.00  0.00    -0.245 OA
BRANCH  32  34
ATOM     34  O   UNL     1      -4.705   1.217  -0.512  0.00  0.00    -0.464 OA
ATOM     35  C   UNL     1      -5.636   1.097  -1.590  0.00  0.00    +0.280 C 
ENDBRANCH  32  34
ENDBRANCH   5  32
TORSDOF 6
