REMARK  Name = ZINC02781104
REMARK  7 active torsions:
REMARK  status: ('A' for Active; 'I' for Inactive)
REMARK    1  A    between atoms: C_1  and  C_2
REMARK    2  A    between atoms: C_3  and  C_21
REMARK    3  A    between atoms: C_5  and  N_10
REMARK    4  A    between atoms: C_6  and  C_7
REMARK    5  A    between atoms: C_11  and  C_13
REMARK    6  A    between atoms: C_15  and  C_19
REMARK    7  A    between atoms: N_17  and  C_18
REMARK                            x       y       z     vdW  Elec       q    Type
REMARK                         _______ _______ _______ _____ _____    ______ ____
ROOT
ATOM      1  C   UNL     1      -2.520   0.851  -2.554  0.00  0.00    +0.045 C 
ATOM      2  C   UNL     1      -3.100   0.492  -1.210  0.00  0.00    -0.027 A 
ATOM      3  C   UNL     1      -4.249  -0.198  -1.104  0.00  0.00    -0.008 A 
ATOM      4  S   UNL     1      -4.477  -0.348   0.656  0.00  0.00    -0.078 S 
ATOM      5  C   UNL     1      -3.063   0.489   1.203  0.00  0.00    +0.085 A 
ATOM      6  C   UNL     1      -2.445   0.875   0.019  0.00  0.00    +0.068 A 
ATOM      7  C   UNL     1      -5.132  -0.720  -2.208  0.00  0.00    +0.052 C 
ENDROOT
BRANCH   6   8
ATOM      8  C   UNL     1      -1.188   1.629   0.017  0.00  0.00    +0.244 C 
ATOM      9  O   UNL     1      -1.208   2.846   0.024  0.00  0.00    -0.270 OA
ATOM     10  N   UNL     1      -0.010   0.975   0.009  0.00  0.00    -0.325 N 
ATOM     11  H   UNL     1       0.006   0.005   0.004  0.00  0.00    +0.145 HD
ATOM     12  H   UNL     1       0.822   1.473   0.004  0.00  0.00    +0.145 HD
ENDBRANCH   6   8
BRANCH   5  13
ATOM     13  N   UNL     1      -2.649   0.720   2.504  0.00  0.00    -0.274 N 
ATOM     14  C   UNL     1      -3.386   0.265   3.537  0.00  0.00    +0.268 C 
ATOM     15  O   UNL     1      -4.460  -0.267   3.329  0.00  0.00    -0.268 OA
ATOM     16  H   UNL     1      -1.829   1.209   2.673  0.00  0.00    +0.156 HD
BRANCH  14  17
ATOM     17  C   UNL     1      -2.892   0.410   4.913  0.00  0.00    +0.137 A 
ATOM     18  C   UNL     1      -3.259   1.381   5.831  0.00  0.00    +0.071 A 
ATOM     19  C   UNL     1      -2.523   1.096   6.985  0.00  0.00    +0.075 A 
ATOM     20  N   UNL     1      -1.784   0.045   6.740  0.00  0.00    -0.175 NA
ATOM     21  N   UNL     1      -1.972  -0.382   5.544  0.00  0.00    -0.261 N 
ATOM     22  C   UNL     1      -1.304  -1.540   4.945  0.00  0.00    +0.173 C 
ATOM     23  C   UNL     1      -2.570   1.867   8.279  0.00  0.00    +0.069 C 
ATOM     24 BR   UNL     1      -4.495   2.789   5.578  0.00  0.00    -0.046 Br
ENDBRANCH  14  17
ENDBRANCH   5  13
TORSDOF 3
