REMARK  Name = ZINC35395455
REMARK  6 active torsions:
REMARK  status: ('A' for Active; 'I' for Inactive)
REMARK    1  A    between atoms: N_6  and  O_24
REMARK    2  A    between atoms: C_7  and  C_19
REMARK    3  A    between atoms: C_12  and  O_13
REMARK    4  A    between atoms: C_12  and  O_14
REMARK    5  A    between atoms: C_19  and  O_20
REMARK    6  A    between atoms: O_20  and  C_21
REMARK                            x       y       z     vdW  Elec       q    Type
REMARK                         _______ _______ _______ _____ _____    ______ ____
ROOT
ATOM      1  C   UNL     1      -0.019   1.544   0.011  0.00  0.00    +0.088 C 
ATOM      2  C   UNL     1       1.464   1.967  -0.001  0.00  0.00    +0.115 C 
ATOM      3  N   UNL     1       2.262   0.734  -0.018  0.00  0.00    -0.274 N 
ATOM      4  C   UNL     1       3.554   0.580  -0.471  0.00  0.00    +0.191 C 
ATOM      5  N   UNL     1       4.252   1.559  -0.975  0.00  0.00    -0.371 N 
ATOM      6  N   UNL     1       4.046  -0.717  -0.341  0.00  0.00    -0.218 N 
ATOM      7  C   UNL     1       3.115  -1.791  -0.709  0.00  0.00    +0.178 C 
ATOM      8  C   UNL     1       1.847  -1.736   0.124  0.00  0.00    +0.157 C 
ATOM      9  C   UNL     1       1.416  -0.333   0.516  0.00  0.00    +0.181 C 
ATOM     10  C   UNL     1       0.002  -0.004   0.002  0.00  0.00    +0.207 C 
ATOM     11  N   UNL     1       1.436  -0.344   1.983  0.00  0.00    -0.292 N 
ATOM     12  C   UNL     1       1.822  -1.596   2.387  0.00  0.00    +0.153 C 
ATOM     13  N   UNL     1       2.064  -2.416   1.413  0.00  0.00    -0.353 N 
ATOM     14  N   UNL     1       1.942  -1.951   3.710  0.00  0.00    -0.333 N 
ATOM     15  H   UNL     1       3.865   2.445  -1.045  0.00  0.00    +0.159 HD
ATOM     16  H   UNL     1       1.216   0.401   2.563  0.00  0.00    +0.151 HD
ATOM     17  H   UNL     1       1.750  -1.302   4.405  0.00  0.00    +0.145 HD
ATOM     18  H   UNL     1       2.219  -2.850   3.948  0.00  0.00    +0.145 HD
ATOM     19  H   UNL     1       2.345  -3.338   1.517  0.00  0.00    +0.163 HD
ATOM     20  H   UNL     1       5.159   1.400  -1.281  0.00  0.00    +0.159 HD
ENDROOT
BRANCH  10  21
ATOM     21  O   UNL     1      -0.991  -0.528   0.886  0.00  0.00    -0.362 OA
ATOM     22  H   UNL     1      -1.897  -0.283   0.649  0.00  0.00    +0.213 HD
ENDBRANCH  10  21
BRANCH  10  23
ATOM     23  O   UNL     1      -0.183  -0.505  -1.323  0.00  0.00    -0.362 OA
ATOM     24  H   UNL     1      -1.029  -0.258  -1.722  0.00  0.00    +0.213 HD
ENDBRANCH  10  23
BRANCH   6  25
ATOM     25  O   UNL     1       5.359  -0.982   0.117  0.00  0.00    -0.284 OA
ATOM     26  H   UNL     1       5.871  -0.188   0.326  0.00  0.00    +0.244 HD
ENDBRANCH   6  25
BRANCH   7  27
ATOM     27  C   UNL     1       3.798  -3.142  -0.489  0.00  0.00    +0.263 C 
BRANCH  27  28
ATOM     28  O   UNL     1       4.903  -3.268  -1.387  0.00  0.00    -0.448 OA
BRANCH  28  29
ATOM     29  C   UNL     1       5.616  -4.409  -1.322  0.00  0.00    +0.398 C 
ATOM     30  O   UNL     1       5.309  -5.273  -0.525  0.00  0.00    -0.227 OA
ATOM     31  N   UNL     1       6.670  -4.592  -2.142  0.00  0.00    -0.295 N 
ATOM     32  H   UNL     1       6.915  -3.902  -2.778  0.00  0.00    +0.148 HD
ATOM     33  H   UNL     1       7.184  -5.413  -2.095  0.00  0.00    +0.148 HD
ENDBRANCH  28  29
ENDBRANCH  27  28
ENDBRANCH   7  27
TORSDOF 6
