REMARK  Name = ZINC03171299
REMARK  10 active torsions:
REMARK  status: ('A' for Active; 'I' for Inactive)
REMARK    1  A    between atoms: C_1  and  C_2
REMARK    2  A    between atoms: C_2  and  C_30
REMARK    3  A    between atoms: C_4  and  N_60
REMARK    4  A    between atoms: C_14  and  C_16
REMARK    5  A    between atoms: C_14  and  C_18
REMARK    6  A    between atoms: C_14  and  N_60
REMARK    7  A    between atoms: C_16  and  O_17
REMARK    8  A    between atoms: C_18  and  C_20
REMARK    9  A    between atoms: C_18  and  O_29
REMARK   10  A    between atoms: C_23  and  N_26
REMARK                            x       y       z     vdW  Elec       q    Type
REMARK                         _______ _______ _______ _____ _____    ______ ____
ROOT
ATOM      1  N   UNK A   1      -0.575  -0.649   0.133  0.00  0.00    -0.402 NA
ATOM      2  H   UNK A   1      -0.470  -1.162   1.016  0.00  0.00    +0.124 HD
ATOM      3  H   UNK A   1      -0.549  -1.310  -0.652  0.00  0.00    +0.124 HD
ENDROOT
BRANCH   1   7
ATOM      4  C   UNK A   0       2.550   0.874   2.039  0.00  0.00    +0.011 C 
ATOM      5  C   UNK A   0       2.910   0.571   0.583  0.00  0.00    -0.024 C 
ATOM      6  C   UNK A   0       1.891  -0.409  -0.005  0.00  0.00    +0.055 C 
ATOM      7  C   UNK A   0       0.524   0.222   0.004  0.00  0.00    -0.010 C 
ATOM      8  C   UNK A   0       0.369   1.550  -0.106  0.00  0.00    +0.038 C 
ATOM      9  C   UNK A   0       1.476   2.417  -0.229  0.00  0.00    +0.017 C 
ATOM     10  N   UNK A   0       1.284   3.699  -0.340  0.00  0.00    -0.374 N 
ATOM     11  C   UNK A   0       2.421   4.630  -0.330  0.00  0.00    +0.116 C 
ATOM     12  C   UNK A   0       2.337   5.516  -1.583  0.00  0.00    +0.021 C 
ATOM     13  C   UNK A   0       0.968   6.197  -1.628  0.00  0.00    +0.003 C 
ATOM     14  C   UNK A   0      -0.130   5.135  -1.716  0.00  0.00    +0.021 C 
ATOM     15  C   UNK A   0      -0.074   4.244  -0.471  0.00  0.00    +0.116 C 
ATOM     16  C   UNK A   0       2.879   1.867  -0.234  0.00  0.00    +0.059 C 
ATOM     17  C   UNK A   0       4.309  -0.045   0.518  0.00  0.00    +0.011 C 
ENDBRANCH   1   7
BRANCH   1  18
ATOM     18  C   UNK A   1      -1.921   0.022   0.137  0.00  0.00    +0.112 C 
BRANCH  18  19
ATOM     19  C   UNK A   1      -2.268   0.471   1.558  0.00  0.00    +0.179 C 
BRANCH  19  20
ATOM     20  O   UNK A   1      -2.349  -0.672   2.412  0.00  0.00    -0.393 OA
ATOM     21  H   UNK A   1      -2.566  -0.461   3.331  0.00  0.00    +0.209 HD
ENDBRANCH  19  20
ENDBRANCH  18  19
BRANCH  18  22
ATOM     22  C   UNK A   1      -2.945  -1.011  -0.336  0.00  0.00    +0.165 C 
BRANCH  22  23
ATOM     23  C   UNK A   1      -2.665  -1.377  -1.771  0.00  0.00    -0.017 A 
ATOM     24  C   UNK A   1      -3.089  -0.547  -2.791  0.00  0.00    +0.008 A 
ATOM     25  C   UNK A   1      -2.828  -0.880  -4.107  0.00  0.00    +0.033 A 
ATOM     26  C   UNK A   1      -2.150  -2.048  -4.403  0.00  0.00    +0.126 A 
ATOM     27  C   UNK A   1      -1.730  -2.881  -3.382  0.00  0.00    +0.033 A 
ATOM     28  C   UNK A   1      -1.987  -2.545  -2.066  0.00  0.00    +0.008 A 
BRANCH  26  29
ATOM     29  N   UNK A   1      -1.875  -2.407  -5.812  0.00  0.00    +0.056 N 
ATOM     30  O   UNK A   1      -1.279  -3.437  -6.073  0.00  0.00    -0.126 OA
ATOM     31  O   UNK A   1      -2.245  -1.674  -6.711  0.00  0.00    -0.126 OA
ENDBRANCH  26  29
ENDBRANCH  22  23
BRANCH  22  32
ATOM     32  O   UNK A   1      -4.260  -0.460  -0.233  0.00  0.00    -0.385 OA
ATOM     33  H   UNK A   1      -4.415   0.297  -0.815  0.00  0.00    +0.210 HD
ENDBRANCH  22  32
ENDBRANCH  18  22
ENDBRANCH   1  18
TORSDOF 8
