REMARK  Name = ZINC05566520
REMARK  10 active torsions:
REMARK  status: ('A' for Active; 'I' for Inactive)
REMARK    1  A    between atoms: C_4  and  O_17
REMARK    2  A    between atoms: C_10  and  O_16
REMARK    3  A    between atoms: C_13  and  C_14
REMARK    4  A    between atoms: C_14  and  O_15
REMARK    5  A    between atoms: O_17  and  C_18
REMARK    6  A    between atoms: C_20  and  O_33
REMARK    7  A    between atoms: C_22  and  O_32
REMARK    8  A    between atoms: C_24  and  O_31
REMARK    9  A    between atoms: C_26  and  C_29
REMARK   10  A    between atoms: C_29  and  O_30
REMARK                            x       y       z     vdW  Elec       q    Type
REMARK                         _______ _______ _______ _____ _____    ______ ____
ROOT
ATOM      1  O   UNL     1       1.145   3.448   0.036  0.00  0.00    -0.309 OA
ENDROOT
BRANCH   1   5
ATOM      2  C   UNL     1      -1.751   5.555   1.102  0.00  0.00    +0.018 C 
ATOM      3  C   UNL     1      -1.705   4.351   1.682  0.00  0.00    +0.186 C 
ATOM      4  O   UNL     1      -0.673   3.498   1.514  0.00  0.00    -0.471 OA
ATOM      5  C   UNL     1       0.668   3.956   1.284  0.00  0.00    +0.317 C 
ATOM      6  C   UNL     1       0.641   5.462   1.245  0.00  0.00    +0.095 C 
ATOM      7  C   UNL     1      -0.526   5.864   0.286  0.00  0.00    +0.060 C 
ATOM      8  C   UNL     1      -0.178   7.343   0.100  0.00  0.00    +0.145 C 
ATOM      9  C   UNL     1       1.357   7.314   0.109  0.00  0.00    +0.006 C 
ATOM     10  C   UNL     1       1.802   6.231   0.728  0.00  0.00    -0.036 C 
BRANCH   8  11
ATOM     11  O   UNL     1      -0.681   7.830  -1.145  0.00  0.00    -0.387 OA
ATOM     12  H   UNL     1      -0.487   8.763  -1.310  0.00  0.00    +0.210 HD
ENDBRANCH   8  11
BRANCH  10  13
ATOM     13  C   UNL     1       3.249   5.842   0.882  0.00  0.00    +0.187 C 
BRANCH  13  14
ATOM     14  O   UNL     1       4.076   6.825   0.256  0.00  0.00    -0.391 OA
ATOM     15  H   UNL     1       5.023   6.638   0.317  0.00  0.00    +0.210 HD
ENDBRANCH  13  14
ENDBRANCH  10  13
ENDBRANCH   1   5
BRANCH   1  16
ATOM     16  C   UNL     1       1.279   2.026   0.001  0.00  0.00    +0.286 C 
ATOM     17  C   UNL     1       2.022   1.615  -1.273  0.00  0.00    +0.201 C 
ATOM     18  C   UNL     1       2.108   0.087  -1.334  0.00  0.00    +0.179 C 
ATOM     19  C   UNL     1       0.693  -0.497  -1.272  0.00  0.00    +0.177 C 
ATOM     20  C   UNL     1       0.002  -0.004   0.002  0.00  0.00    +0.178 C 
ATOM     21  O   UNL     1      -0.017   1.425   0.010  0.00  0.00    -0.340 OA
BRANCH  19  22
ATOM     22  O   UNL     1      -0.050  -0.069  -2.415  0.00  0.00    -0.386 OA
ATOM     23  H   UNL     1       0.331  -0.346  -3.259  0.00  0.00    +0.210 HD
ENDBRANCH  19  22
BRANCH  18  24
ATOM     24  O   UNL     1       2.735  -0.308  -2.556  0.00  0.00    -0.386 OA
ATOM     25  H   UNL     1       3.636   0.027  -2.662  0.00  0.00    +0.210 HD
ENDBRANCH  18  24
BRANCH  17  26
ATOM     26  O   UNL     1       1.315   2.099  -2.417  0.00  0.00    -0.384 OA
ATOM     27  H   UNL     1       1.222   3.061  -2.444  0.00  0.00    +0.210 HD
ENDBRANCH  17  26
BRANCH  20  28
ATOM     28  C   UNL     1      -1.433  -0.534   0.042  0.00  0.00    +0.190 C 
BRANCH  28  29
ATOM     29  O   UNL     1      -2.040  -0.171   1.283  0.00  0.00    -0.392 OA
ATOM     30  H   UNL     1      -2.954  -0.475   1.377  0.00  0.00    +0.210 HD
ENDBRANCH  28  29
ENDBRANCH  20  28
ENDBRANCH   1  16
TORSDOF 10
