REMARK  Name = ZINC18196350
REMARK  6 active torsions:
REMARK  status: ('A' for Active; 'I' for Inactive)
REMARK    1  A    between atoms: C_1  and  O_2
REMARK    2  A    between atoms: O_2  and  C_3
REMARK    3  A    between atoms: C_7  and  C_10
REMARK    4  A    between atoms: C_8  and  O_9
REMARK    5  A    between atoms: C_17  and  O_18
REMARK    6  A    between atoms: C_25  and  C_28
REMARK                            x       y       z     vdW  Elec       q    Type
REMARK                         _______ _______ _______ _____ _____    ______ ____
ROOT
ATOM      1  C   UNL     1      -0.013   1.086   0.008  0.00  0.00    +0.096 C 
ATOM      2  C   UNL     1      -0.738   1.583  -1.210  0.00  0.00    +0.067 A 
ATOM      3  C   UNL     1      -1.687   2.569  -1.148  0.00  0.00    +0.126 A 
ATOM      4  N   UNL     1      -2.138   2.785  -2.398  0.00  0.00    -0.260 N 
ATOM      5  H   UNL     1      -2.834   3.450  -2.667  0.00  0.00    +0.190 HD
ATOM      6  N   UNL     1      -1.455   1.908  -3.257  0.00  0.00    -0.134 NA
ATOM      7  C   UNL     1      -0.618   1.190  -2.540  0.00  0.00    +0.237 A 
ATOM      8  N   UNL     1      -2.035   3.163   0.059  0.00  0.00    -0.303 N 
ATOM      9  C   UNL     1      -1.649   2.552   1.225  0.00  0.00    +0.017 C 
ATOM     10  C   UNL     1      -0.720   1.573   1.254  0.00  0.00    +0.024 C 
ATOM     11  C   UNL     1      -0.366   0.952   2.466  0.00  0.00    +0.162 C 
ATOM     12  O   UNL     1       0.477   0.076   2.459  0.00  0.00    -0.292 OA
ATOM     13  C   UNL     1      -1.005   1.346   3.768  0.00  0.00    +0.088 C 
ATOM     14  C   UNL     1      -2.416   1.874   3.489  0.00  0.00    +0.039 C 
ATOM     15  C   UNL     1      -2.309   3.031   2.498  0.00  0.00    +0.060 C 
ATOM     16  H   UNL     1      -2.541   3.991   0.076  0.00  0.00    +0.153 HD
ENDROOT
BRANCH   1  21
ATOM     17  C   UNL     1       3.771   1.204  -0.027  0.00  0.00    +0.162 A 
ATOM     18  C   UNL     1       3.999   2.571  -0.022  0.00  0.00    +0.049 A 
ATOM     19  C   UNL     1       2.932   3.450  -0.007  0.00  0.00    +0.004 A 
ATOM     20  C   UNL     1       1.636   2.969   0.002  0.00  0.00    +0.008 A 
ATOM     21  C   UNL     1       1.401   1.607  -0.003  0.00  0.00    +0.010 A 
ATOM     22  C   UNL     1       2.466   0.720  -0.012  0.00  0.00    +0.163 A 
BRANCH  17  24
ATOM     23  C   UNL     1       6.130   0.907  -0.050  0.00  0.00    +0.277 C 
ATOM     24  O   UNL     1       4.819   0.338  -0.041  0.00  0.00    -0.491 OA
ENDBRANCH  17  24
BRANCH  22  25
ATOM     25  O   UNL     1       2.237  -0.620  -0.011  0.00  0.00    -0.503 OA
ATOM     26  H   UNL     1       2.164  -1.007  -0.894  0.00  0.00    +0.292 HD
ENDBRANCH  22  25
ENDBRANCH   1  21
BRANCH  14  27
ATOM     27  C   UNL     1      -3.039   2.360   4.772  0.00  0.00    -0.006 A 
ATOM     28  C   UNL     1      -4.170   1.935   5.387  0.00  0.00    +0.011 A 
ATOM     29  C   UNL     1      -4.554   2.533   6.572  0.00  0.00    +0.008 A 
ATOM     30  C   UNL     1      -3.789   3.528   7.085  0.00  0.00    +0.045 A 
ATOM     31  S   UNL     1      -2.475   3.640   5.881  0.00  0.00    -0.101 S 
ENDBRANCH  14  27
BRANCH   7  32
ATOM     32  O   UNL     1       0.221   0.231  -3.016  0.00  0.00    -0.491 OA
ATOM     33  H   UNL     1       0.106   0.150  -4.006  0.00  0.00    +0.294 HD
ENDBRANCH   7  32
TORSDOF 5
