REMARK  Name = ZINC40734797
REMARK  7 active torsions:
REMARK  status: ('A' for Active; 'I' for Inactive)
REMARK    1  A    between atoms: C_1  and  C_2
REMARK    2  A    between atoms: C_7  and  C_9
REMARK    3  A    between atoms: C_7  and  C_10
REMARK    4  A    between atoms: C_14  and  N_27
REMARK    5  A    between atoms: C_15  and  N_19
REMARK    6  A    between atoms: N_19  and  N_20
REMARK    7  A    between atoms: N_20  and  C_21
REMARK                            x       y       z     vdW  Elec       q    Type
REMARK                         _______ _______ _______ _____ _____    ______ ____
ROOT
ATOM      1  C   UNL     1       0.396   0.171   1.989  0.00  0.00    +0.013 C 
ATOM      2  C   UNL     1      -0.004  -1.292   1.742  0.00  0.00    -0.014 C 
ATOM      3  C   UNL     1       0.959  -2.009   0.756  0.00  0.00    +0.030 C 
ATOM      4  C   UNL     1       0.064  -3.204   0.344  0.00  0.00    +0.076 C 
ATOM      5  C   UNL     1       0.065  -4.192   1.508  0.00  0.00    +0.029 C 
ATOM      6  C   UNL     1      -0.376  -3.585   2.828  0.00  0.00    -0.033 C 
ATOM      7  C   UNL     1      -0.039  -2.119   3.026  0.00  0.00    +0.014 C 
ATOM      8  C   UNL     1      -1.881  -3.813   3.029  0.00  0.00    +0.011 C 
ATOM      9  C   UNL     1       0.339  -4.374   3.954  0.00  0.00    +0.011 C 
ATOM     10  N   UNL     1      -1.290  -2.632   0.197  0.00  0.00    -0.310 N 
ATOM     11  C   UNL     1      -1.364  -1.415   1.019  0.00  0.00    +0.113 C 
ATOM     12  C   UNL     1      -2.313  -3.147  -0.590  0.00  0.00    +0.147 A 
ATOM     13  C   UNL     1      -3.585  -2.571  -0.564  0.00  0.00    +0.105 A 
ATOM     14  C   UNL     1      -4.577  -3.126  -1.374  0.00  0.00    +0.138 A 
ATOM     15  N   UNL     1      -4.275  -4.176  -2.135  0.00  0.00    -0.332 N 
ATOM     16  C   UNL     1      -3.061  -4.689  -2.130  0.00  0.00    +0.200 A 
ATOM     17  N   UNL     1      -2.095  -4.192  -1.384  0.00  0.00    -0.221 NA
ATOM     18  H   UNL     1      -4.958  -4.569  -2.700  0.00  0.00    +0.168 HD
ENDROOT
BRANCH  13  19
ATOM     19  N   UNL     1      -3.859  -1.463   0.255  0.00  0.00    -0.353 N 
ATOM     20  H   UNL     1      -3.178  -0.787   0.400  0.00  0.00    +0.143 HD
ATOM     21  H   UNL     1      -4.728  -1.374   0.676  0.00  0.00    +0.143 HD
ENDBRANCH  13  19
BRANCH  14  22
ATOM     22  N   UNL     1      -5.859  -2.592  -1.385  0.00  0.00    -0.250 N 
ATOM     23  H   UNL     1      -6.071  -1.827  -0.828  0.00  0.00    +0.171 HD
BRANCH  22  24
ATOM     24  N   UNL     1      -6.847  -3.158  -2.203  0.00  0.00    -0.265 N 
ATOM     25  H   UNL     1      -6.635  -3.923  -2.760  0.00  0.00    +0.170 HD
BRANCH  24  26
ATOM     26  C   UNL     1      -8.136  -2.621  -2.214  0.00  0.00    +0.044 A 
ATOM     27  C   UNL     1      -8.440  -1.522  -1.421  0.00  0.00    +0.024 A 
ATOM     28  C   UNL     1      -9.715  -0.993  -1.435  0.00  0.00    +0.002 A 
ATOM     29  C   UNL     1     -10.690  -1.557  -2.238  0.00  0.00    +0.000 A 
ATOM     30  C   UNL     1     -10.391  -2.651  -3.029  0.00  0.00    +0.002 A 
ATOM     31  C   UNL     1      -9.116  -3.181  -3.024  0.00  0.00    +0.024 A 
ENDBRANCH  24  26
ENDBRANCH  22  24
ENDBRANCH  14  22
TORSDOF 4
