REMARK  Name = ZINC02634355
REMARK  10 active torsions:
REMARK  status: ('A' for Active; 'I' for Inactive)
REMARK    1  A    between atoms: C_1  and  C_2
REMARK    2  A    between atoms: C_5  and  S_25
REMARK    3  A    between atoms: C_7  and  C_8
REMARK    4  A    between atoms: N_10  and  N_11
REMARK    5  A    between atoms: N_11  and  C_12
REMARK    6  A    between atoms: C_12  and  N_14
REMARK    7  A    between atoms: N_14  and  C_15
REMARK    8  A    between atoms: C_15  and  C_16
REMARK    9  A    between atoms: S_25  and  N_28
REMARK   10  A    between atoms: N_28  and  C_29
REMARK                            x       y       z     vdW  Elec       q    Type
REMARK                         _______ _______ _______ _____ _____    ______ ____
ROOT
ATOM      1  C   UNL     1       9.118  -2.224  -2.595  0.00  0.00    +0.260 C 
ATOM      2  O   UNL     1      10.323  -2.380  -2.557  0.00  0.00    -0.269 OA
ATOM      3  N   UNL     1       8.455  -1.825  -1.491  0.00  0.00    -0.231 N 
ATOM      4  H   UNL     1       7.493  -1.702  -1.522  0.00  0.00    +0.173 HD
ENDROOT
BRANCH   1  11
ATOM      5  C   UNL     1      10.581  -2.812  -5.021  0.00  0.00    +0.044 C 
ATOM      6  C   UNL     1       9.075  -2.758  -5.028  0.00  0.00    -0.038 A 
ATOM      7  C   UNL     1       8.380  -2.994  -6.196  0.00  0.00    +0.006 A 
ATOM      8  C   UNL     1       6.998  -2.940  -6.205  0.00  0.00    +0.029 A 
ATOM      9  C   UNL     1       6.303  -2.654  -5.043  0.00  0.00    +0.109 A 
ATOM     10  C   UNL     1       6.985  -2.420  -3.868  0.00  0.00    +0.042 A 
ATOM     11  C   UNL     1       8.380  -2.474  -3.851  0.00  0.00    +0.043 A 
BRANCH   9  12
ATOM     12  S   UNL     1       4.542  -2.587  -5.066  0.00  0.00    +0.072 S 
ATOM     13  O   UNL     1       4.120  -3.379  -6.168  0.00  0.00    -0.150 OA
ATOM     14  O   UNL     1       4.109  -2.838  -3.736  0.00  0.00    -0.150 OA
BRANCH  12  15
ATOM     15  N   UNL     1       4.116  -1.025  -5.415  0.00  0.00    -0.213 N 
ATOM     16  H   UNL     1       3.588  -0.513  -4.782  0.00  0.00    +0.174 HD
BRANCH  15  17
ATOM     17  C   UNL     1       4.517  -0.444  -6.622  0.00  0.00    +0.083 A 
ATOM     18  C   UNL     1       4.584  -1.213  -7.776  0.00  0.00    +0.027 A 
ATOM     19  C   UNL     1       4.977  -0.635  -8.968  0.00  0.00    +0.002 A 
ATOM     20  C   UNL     1       5.313   0.706  -9.011  0.00  0.00    +0.003 A 
ATOM     21  C   UNL     1       5.252   1.475  -7.864  0.00  0.00    +0.040 A 
ATOM     22  C   UNL     1       4.856   0.904  -6.668  0.00  0.00    +0.146 A 
ATOM     23  F   UNL     1       4.797   1.655  -5.547  0.00  0.00    -0.204 F 
ENDBRANCH  15  17
ENDBRANCH  12  15
ENDBRANCH   9  12
ENDBRANCH   1  11
BRANCH   3  24
ATOM     24  N   UNL     1       9.154  -1.589  -0.301  0.00  0.00    -0.246 N 
ATOM     25  H   UNL     1      10.116  -1.713  -0.270  0.00  0.00    +0.172 HD
BRANCH  24  26
ATOM     26  C   UNL     1       8.491  -1.190   0.802  0.00  0.00    +0.147 C 
ATOM     27  S   UNL     1       9.345  -0.901   2.258  0.00  0.00    -0.017 S 
BRANCH  26  28
ATOM     28  N   UNL     1       7.154  -1.018   0.760  0.00  0.00    -0.321 N 
ATOM     29  H   UNL     1       6.670  -1.181  -0.064  0.00  0.00    +0.148 HD
BRANCH  28  30
ATOM     30  C   UNL     1       6.433  -0.584   1.959  0.00  0.00    +0.138 C 
BRANCH  30  31
ATOM     31  C   UNL     1       4.963  -0.469   1.647  0.00  0.00    -0.027 A 
ATOM     32  C   UNL     1       4.133  -1.560   1.824  0.00  0.00    +0.009 A 
ATOM     33  C   UNL     1       2.784  -1.460   1.539  0.00  0.00    +0.050 A 
ATOM     34  C   UNL     1       2.261  -0.264   1.076  0.00  0.00    +0.166 A 
ATOM     35  C   UNL     1       3.097   0.836   0.898  0.00  0.00    +0.167 A 
ATOM     36  C   UNL     1       4.448   0.728   1.186  0.00  0.00    +0.054 A 
ATOM     37  O   UNL     1       2.350   1.882   0.438  0.00  0.00    -0.453 OA
ATOM     38  C   UNL     1       0.983   1.533   0.724  0.00  0.00    +0.466 C 
ATOM     39  O   UNL     1       0.991   0.093   0.727  0.00  0.00    -0.453 OA
ENDBRANCH  30  31
ENDBRANCH  28  30
ENDBRANCH  26  28
ENDBRANCH  24  26
ENDBRANCH   3  24
TORSDOF 9
