REMARK  Name = ZINC01751940
REMARK  6 active torsions:
REMARK  status: ('A' for Active; 'I' for Inactive)
REMARK    1  A    between atoms: C_1  and  C_2
REMARK    2  A    between atoms: C_2  and  C_3
REMARK    3  A    between atoms: C_3  and  C_12
REMARK    4  A    between atoms: C_7  and  C_10
REMARK    5  A    between atoms: C_7  and  O_11
REMARK    6  A    between atoms: C_12  and  C_13
REMARK                            x       y       z     vdW  Elec       q    Type
REMARK                         _______ _______ _______ _____ _____    ______ ____
ROOT
ATOM      1  C   UNL     1       0.889  -0.367   1.530  0.00  0.00    +0.092 C 
ATOM      2  C   UNL     1       2.112   0.490   1.692  0.00  0.00    +0.231 C 
ATOM      3  O   UNL     1       2.990   0.062   2.411  0.00  0.00    -0.274 OA
ATOM      4  N   UNL     1       2.324   1.661   1.128  0.00  0.00    -0.286 N 
ATOM      5  C   UNL     1       1.555   2.368   0.129  0.00  0.00    +0.139 C 
ATOM      6  C   UNL     1       0.085   1.949   0.116  0.00  0.00    +0.124 C 
ATOM      7  S   UNL     1       0.017   0.132   0.014  0.00  0.00    -0.140 S 
ATOM      8  C   UNL     1       1.639   3.870   0.412  0.00  0.00    +0.064 C 
ATOM      9  H   UNL     1       3.122   2.122   1.431  0.00  0.00    +0.151 HD
ENDROOT
BRANCH   1  11
ATOM     10  C   UNL     1      -1.237  -1.112   2.610  0.00  0.00    +0.006 C 
ATOM     11  C   UNL     1      -0.032  -0.178   2.738  0.00  0.00    +0.023 C 
ENDBRANCH   1  11
BRANCH   5  12
ATOM     12  O   UNL     1       2.121   2.111  -1.158  0.00  0.00    -0.371 OA
ATOM     13  H   UNL     1       3.055   2.350  -1.232  0.00  0.00    +0.212 HD
ENDBRANCH   5  12
BRANCH   1  14
ATOM     14  C   UNL     1       1.304  -1.836   1.423  0.00  0.00    +0.023 C 
ATOM     15  C   UNL     1       2.327  -1.997   0.297  0.00  0.00    +0.006 C 
ENDBRANCH   1  14
TORSDOF 3
