REMARK  Name = ZINC39296710
REMARK  8 active torsions:
REMARK  status: ('A' for Active; 'I' for Inactive)
REMARK    1  A    between atoms: C_6  and  C_31
REMARK    2  A    between atoms: C_7  and  N_9
REMARK    3  A    between atoms: C_10  and  C_12
REMARK    4  A    between atoms: C_12  and  C_13
REMARK    5  A    between atoms: C_13  and  N_14
REMARK    6  A    between atoms: C_15  and  C_16
REMARK    7  A    between atoms: N_18  and  C_19
REMARK    8  A    between atoms: C_20  and  C_28
REMARK                            x       y       z     vdW  Elec       q    Type
REMARK                         _______ _______ _______ _____ _____    ______ ____
ROOT
ATOM      1  C   UNL     1       4.170  -4.530   6.301  0.00  0.00    +0.015 C 
ATOM      2  C   UNL     1       3.621  -4.169   7.479  0.00  0.00    +0.086 C 
ENDROOT
BRANCH   2   3
ATOM      3  C   UNL     1       4.432  -4.055   8.632  0.00  0.00    +0.243 C 
ATOM      4  O   UNL     1       5.640  -4.172   8.540  0.00  0.00    -0.270 OA
ATOM      5  N   UNL     1       3.867  -3.817   9.832  0.00  0.00    -0.276 N 
ATOM      6  H   UNL     1       2.904  -3.724   9.905  0.00  0.00    +0.156 HD
BRANCH   5   7
ATOM      7  C   UNL     1       4.661  -3.705  10.962  0.00  0.00    +0.085 A 
ATOM      8  C   UNL     1       4.258  -3.470  12.267  0.00  0.00    +0.068 A 
ATOM      9  C   UNL     1       5.298  -3.396  13.280  0.00  0.00    -0.023 A 
ATOM     10  C   UNL     1       6.548  -3.570  12.801  0.00  0.00    -0.004 A 
ATOM     11  S   UNL     1       6.332  -3.831  11.065  0.00  0.00    -0.077 S 
ATOM     12  C   UNL     1       7.823  -3.549  13.586  0.00  0.00    +0.043 C 
ATOM     13  C   UNL     1       7.533  -2.924  14.959  0.00  0.00    +0.005 C 
ATOM     14  C   UNL     1       6.282  -3.582  15.548  0.00  0.00    +0.005 C 
ATOM     15  C   UNL     1       5.045  -3.147  14.759  0.00  0.00    +0.037 C 
BRANCH   8  16
ATOM     16  C   UNL     1       2.844  -3.302  12.612  0.00  0.00    +0.244 C 
ATOM     17  O   UNL     1       2.172  -4.271  12.916  0.00  0.00    -0.270 OA
ATOM     18  N   UNL     1       2.285  -2.076  12.591  0.00  0.00    -0.325 N 
ATOM     19  H   UNL     1       2.820  -1.304  12.348  0.00  0.00    +0.145 HD
ATOM     20  H   UNL     1       1.349  -1.965  12.819  0.00  0.00    +0.145 HD
ENDBRANCH   8  16
ENDBRANCH   5   7
ENDBRANCH   2   3
BRANCH   1  21
ATOM     21  N   UNL     1       5.525  -4.673   6.194  0.00  0.00    -0.361 N 
ATOM     22  H   UNL     1       5.928  -4.849   5.330  0.00  0.00    +0.142 HD
ATOM     23  H   UNL     1       6.085  -4.599   6.984  0.00  0.00    +0.142 HD
ENDBRANCH   1  21
BRANCH   1  24
ATOM     24  C   UNL     1       3.290  -4.775   5.103  0.00  0.00    +0.146 C 
BRANCH  24  26
ATOM     25  N   UNL     1       2.475  -3.505   3.143  0.00  0.00    -0.279 N 
ATOM     26  C   UNL     1       3.212  -3.521   4.272  0.00  0.00    +0.223 C 
ATOM     27  O   UNL     1       3.812  -2.525   4.618  0.00  0.00    -0.275 OA
ATOM     28  H   UNL     1       1.995  -4.301   2.866  0.00  0.00    +0.155 HD
BRANCH  25  35
ATOM     29  C   UNL     1       1.042   1.091  -0.780  0.00  0.00    +0.005 C 
ATOM     30  C   UNL     1       2.445   1.667  -0.571  0.00  0.00    +0.005 C 
ATOM     31  C   UNL     1       2.855   1.458   0.895  0.00  0.00    +0.043 C 
ATOM     32  C   UNL     1       2.565   0.037   1.266  0.00  0.00    -0.004 A 
ATOM     33  C   UNL     1       1.791  -0.837   0.588  0.00  0.00    -0.023 A 
ATOM     34  C   UNL     1       1.702  -2.151   1.200  0.00  0.00    +0.068 A 
ATOM     35  C   UNL     1       2.404  -2.350   2.378  0.00  0.00    +0.084 A 
ATOM     36  S   UNL     1       3.147  -0.873   2.667  0.00  0.00    -0.077 S 
ATOM     37  C   UNL     1       1.089  -0.436  -0.702  0.00  0.00    +0.037 C 
BRANCH  34  38
ATOM     38  C   UNL     1       0.903  -3.223   0.596  0.00  0.00    +0.244 C 
ATOM     39  O   UNL     1       1.412  -3.982  -0.208  0.00  0.00    -0.270 OA
ATOM     40  N   UNL     1      -0.394  -3.367   0.931  0.00  0.00    -0.325 N 
ATOM     41  H   UNL     1      -0.799  -2.762   1.572  0.00  0.00    +0.145 HD
ATOM     42  H   UNL     1      -0.922  -4.075   0.532  0.00  0.00    +0.145 HD
ENDBRANCH  34  38
ENDBRANCH  25  35
ENDBRANCH  24  26
ENDBRANCH   1  24
TORSDOF 8
