REMARK  Name = ZINC09103487
REMARK  11 active torsions:
REMARK  status: ('A' for Active; 'I' for Inactive)
REMARK    1  A    between atoms: C_1  and  C_2
REMARK    2  A    between atoms: C_2  and  C_4
REMARK    3  A    between atoms: C_2  and  N_53
REMARK    4  A    between atoms: C_7  and  S_16
REMARK    5  A    between atoms: N_8  and  C_9
REMARK    6  A    between atoms: S_16  and  C_17
REMARK    7  A    between atoms: C_17  and  C_18
REMARK    8  A    between atoms: N_20  and  C_21
REMARK    9  A    between atoms: C_26  and  C_27
REMARK   10  A    between atoms: C_31  and  N_53
REMARK   11  A    between atoms: C_32  and  N_53
REMARK                            x       y       z     vdW  Elec       q    Type
REMARK                         _______ _______ _______ _____ _____    ______ ____
ROOT
ATOM      1  C   UNL     1       1.205   1.745   0.051  0.00  0.00    +0.125 A 
ATOM      2  N   UNL     1      -0.013   1.280   0.057  0.00  0.00    -0.135 NA
ATOM      3  N   UNL     1       0.004  -0.005   0.041  0.00  0.00    -0.122 NA
ATOM      4  C   UNL     1       1.244  -0.435   0.023  0.00  0.00    +0.197 A 
ATOM      5  N   UNL     1       2.051   0.669   0.029  0.00  0.00    -0.275 N 
ENDROOT
BRANCH   5   6
ATOM      6  C   UNL     1       3.454   0.694   0.015  0.00  0.00    +0.050 A 
ATOM      7  C   UNL     1       4.151   1.206   1.101  0.00  0.00    +0.028 A 
ATOM      8  C   UNL     1       5.532   1.226   1.087  0.00  0.00    +0.022 A 
ATOM      9  C   UNL     1       6.221   0.745  -0.012  0.00  0.00    +0.041 A 
ATOM     10  C   UNL     1       5.528   0.238  -1.098  0.00  0.00    +0.022 A 
ATOM     11  C   UNL     1       4.147   0.212  -1.087  0.00  0.00    +0.028 A 
ATOM     12 CL   UNL     1       7.956   0.776  -0.029  0.00  0.00    -0.084 Cl
ENDBRANCH   5   6
BRANCH   1  14
ATOM     13  C   UNL     1       1.368   3.806  -1.318  0.00  0.00    -0.005 C 
ATOM     14  C   UNL     1       1.606   3.198   0.065  0.00  0.00    -0.003 C 
BRANCH  14  17
ATOM     15  C   UNL     1       0.934   3.302   2.389  0.00  0.00    -0.096 C 
ATOM     16  C   UNL     1       1.168   5.340   1.104  0.00  0.00    -0.096 C 
ATOM     17  N   UNL     1       0.775   3.916   1.054  0.00  0.00    +0.382 N 
ATOM     18  H   UNL     1      -0.210   3.852   0.772  0.00  0.00    -0.082 HD
ENDBRANCH  14  17
ENDBRANCH   1  14
BRANCH   4  19
ATOM     19  S   UNL     1       1.769  -2.117  -0.004  0.00  0.00    -0.076 S 
BRANCH  19  20
ATOM     20  C   UNL     1       0.162  -2.949   0.002  0.00  0.00    +0.173 C 
BRANCH  20  21
ATOM     21  C   UNL     1       0.368  -4.441  -0.019  0.00  0.00    +0.227 C 
ATOM     22  O   UNL     1       1.491  -4.898  -0.036  0.00  0.00    -0.275 OA
ATOM     23  N   UNL     1      -0.696  -5.269  -0.019  0.00  0.00    -0.284 N 
ATOM     24  H   UNL     1      -1.592  -4.906   0.060  0.00  0.00    +0.155 HD
BRANCH  23  25
ATOM     25  C   UNL     1      -0.508  -6.650  -0.134  0.00  0.00    +0.045 A 
ATOM     26  C   UNL     1       0.603  -7.252   0.444  0.00  0.00    +0.024 A 
ATOM     27  C   UNL     1       0.783  -8.616   0.334  0.00  0.00    +0.002 A 
ATOM     28  C   UNL     1      -0.135  -9.383  -0.360  0.00  0.00    +0.001 A 
ATOM     29  C   UNL     1      -1.239  -8.786  -0.941  0.00  0.00    +0.014 A 
ATOM     30  C   UNL     1      -1.428  -7.423  -0.830  0.00  0.00    +0.076 A 
BRANCH  30  31
ATOM     31  C   UNL     1      -2.631  -6.773  -1.465  0.00  0.00    +0.419 C 
ATOM     32  F   UNL     1      -3.404  -7.748  -2.104  0.00  0.00    -0.166 F 
ATOM     33  F   UNL     1      -3.397  -6.145  -0.477  0.00  0.00    -0.166 F 
ATOM     34  F   UNL     1      -2.208  -5.824  -2.402  0.00  0.00    -0.166 F 
ENDBRANCH  30  31
ENDBRANCH  23  25
ENDBRANCH  20  21
ENDBRANCH  19  20
ENDBRANCH   4  19
TORSDOF 8
