REMARK  Name = ZINC03773516
REMARK  12 active torsions:
REMARK  status: ('A' for Active; 'I' for Inactive)
REMARK    1  A    between atoms: C_1  and  C_2
REMARK    2  A    between atoms: C_7  and  C_8
REMARK    3  A    between atoms: C_8  and  N_9
REMARK    4  A    between atoms: N_9  and  C_10
REMARK    5  A    between atoms: C_10  and  C_12
REMARK    6  A    between atoms: C_10  and  C_17
REMARK    7  A    between atoms: N_19  and  C_20
REMARK    8  A    between atoms: C_23  and  N_26
REMARK    9  A    between atoms: N_26  and  C_27
REMARK   10  A    between atoms: N_26  and  C_28
REMARK   11  A    between atoms: C_29  and  C_31
REMARK   12  A    between atoms: C_31  and  N_32
REMARK                            x       y       z     vdW  Elec       q    Type
REMARK                         _______ _______ _______ _____ _____    ______ ____
ROOT
ATOM      1  N   UNL     1       1.568   9.607  -0.461  0.00  0.00    -0.280 N 
ATOM      2  C   UNL     1       1.178   9.318   0.797  0.00  0.00    +0.235 C 
ATOM      3  O   UNL     1       1.207   8.172   1.193  0.00  0.00    -0.274 OA
ENDROOT
BRANCH   1   4
ATOM      4  C   UNL     1       1.533  10.991  -0.939  0.00  0.00    +0.144 C 
BRANCH   4  11
ATOM      5  C   UNL     1       2.894  12.145  -3.212  0.00  0.00    +0.044 C 
ATOM      6  C   UNL     1       3.544  12.169  -1.852  0.00  0.00    -0.046 A 
ATOM      7  C   UNL     1       4.791  12.744  -1.692  0.00  0.00    +0.003 A 
ATOM      8  C   UNL     1       5.387  12.766  -0.446  0.00  0.00    +0.000 A 
ATOM      9  C   UNL     1       4.736  12.214   0.642  0.00  0.00    +0.000 A 
ATOM     10  C   UNL     1       3.487  11.644   0.483  0.00  0.00    +0.005 A 
ATOM     11  C   UNL     1       2.893  11.617  -0.765  0.00  0.00    -0.027 A 
ENDBRANCH   4  11
ENDBRANCH   1   4
BRANCH   1  12
ATOM     12  C   UNL     1       2.027   8.536  -1.349  0.00  0.00    +0.199 C 
BRANCH  12  13
ATOM     13  C   UNL     1       1.145   8.483  -2.570  0.00  0.00    +0.019 A 
ATOM     14  C   UNL     1       0.685   7.401  -3.244  0.00  0.00    +0.013 A 
ATOM     15  C   UNL     1      -0.124   7.593  -4.348  0.00  0.00    +0.008 A 
ATOM     16  C   UNL     1      -0.425   8.859  -4.730  0.00  0.00    +0.045 A 
ATOM     17  S   UNL     1       0.440   9.829  -3.507  0.00  0.00    -0.099 S 
ENDBRANCH  12  13
BRANCH  12  18
ATOM     18  C   UNL     1       3.449   8.806  -1.768  0.00  0.00    +0.243 C 
ATOM     19  O   UNL     1       4.138   9.566  -1.121  0.00  0.00    -0.273 OA
ATOM     20  N   UNL     1       3.955   8.204  -2.862  0.00  0.00    -0.284 N 
ATOM     21  H   UNL     1       3.381   7.665  -3.429  0.00  0.00    +0.155 HD
BRANCH  20  22
ATOM     22  C   UNL     1       5.312   8.354  -3.182  0.00  0.00    +0.034 A 
ATOM     23  C   UNL     1       6.260   8.415  -2.169  0.00  0.00    +0.025 A 
ATOM     24  C   UNL     1       7.597   8.559  -2.484  0.00  0.00    +0.025 A 
ATOM     25  C   UNL     1       7.992   8.653  -3.812  0.00  0.00    +0.029 A 
ATOM     26  C   UNL     1       7.042   8.598  -4.824  0.00  0.00    +0.025 A 
ATOM     27  C   UNL     1       5.706   8.449  -4.510  0.00  0.00    +0.025 A 
BRANCH  25  28
ATOM     28  N   UNL     1       9.346   8.803  -4.130  0.00  0.00    -0.336 N 
ATOM     29  C   UNL     1       9.752   9.018  -5.521  0.00  0.00    +0.129 C 
ATOM     30  C   UNL     1      10.358   8.746  -3.072  0.00  0.00    +0.129 C 
ENDBRANCH  25  28
ENDBRANCH  20  22
ENDBRANCH  12  18
ENDBRANCH   1  12
BRANCH   2  31
ATOM     31  C   UNL     1       0.706  10.420   1.710  0.00  0.00    +0.210 C 
BRANCH  31  32
ATOM     32  N   UNL     1       0.341   9.852   3.011  0.00  0.00    -0.255 N 
ATOM     33  C   UNL     1       1.224   9.704   4.078  0.00  0.00    +0.048 A 
ATOM     34  C   UNL     1       2.571  10.019   4.205  0.00  0.00    +0.024 A 
ATOM     35  C   UNL     1       3.234   9.769   5.392  0.00  0.00    +0.002 A 
ATOM     36  C   UNL     1       2.570   9.203   6.468  0.00  0.00    +0.001 A 
ATOM     37  C   UNL     1       1.233   8.877   6.361  0.00  0.00    +0.014 A 
ATOM     38  C   UNL     1       0.553   9.130   5.170  0.00  0.00    +0.048 A 
ATOM     39  C   UNL     1      -0.841   8.912   4.740  0.00  0.00    +0.250 C 
ATOM     40  O   UNL     1      -1.750   8.436   5.388  0.00  0.00    -0.282 OA
ATOM     41  C   UNL     1      -0.889   9.410   3.326  0.00  0.00    +0.292 C 
ATOM     42  O   UNL     1      -1.860   9.413   2.599  0.00  0.00    -0.266 OA
ENDBRANCH  31  32
ENDBRANCH   2  31
TORSDOF 9
