REMARK  Name = ZINC43126546
REMARK  6 active torsions:
REMARK  status: ('A' for Active; 'I' for Inactive)
REMARK    1  A    between atoms: C_1  and  C_2
REMARK    2  A    between atoms: C_2  and  C_4
REMARK    3  A    between atoms: C_2  and  N_19
REMARK    4  A    between atoms: C_4  and  C_6
REMARK    5  A    between atoms: C_4  and  N_12
REMARK    6  A    between atoms: N_9  and  C_11
REMARK                            x       y       z     vdW  Elec       q    Type
REMARK                         _______ _______ _______ _____ _____    ______ ____
ROOT
ATOM      1  C   UNL     1       0.970  -0.514   1.080  0.00  0.00    +0.076 C 
ENDROOT
BRANCH   1   2
ATOM      2  N   UNL     1       0.896  -1.980   1.148  0.00  0.00    -0.287 NA
ATOM      3  C   UNL     1       1.661  -2.493   2.296  0.00  0.00    +0.104 C 
ATOM      4  C   UNL     1       1.304  -3.967   2.504  0.00  0.00    +0.119 C 
ATOM      5  N   UNL     1       1.423  -4.692   1.242  0.00  0.00    -0.313 N 
ATOM      6  C   UNL     1       1.443  -4.083   0.052  0.00  0.00    +0.227 C 
ATOM      7  O   UNL     1       1.513  -4.765  -0.948  0.00  0.00    -0.274 OA
ATOM      8  C   UNL     1       1.382  -2.590  -0.097  0.00  0.00    +0.181 C 
ATOM      9  H   UNL     1       1.490  -5.660   1.269  0.00  0.00    +0.149 HD
ENDBRANCH   1   2
BRANCH   1  10
ATOM     10  C   UNL     1       0.385   0.077   2.337  0.00  0.00    +0.006 A 
ATOM     11  C   UNL     1      -0.751  -0.382   3.010  0.00  0.00    +0.139 A 
ATOM     12  N   UNL     1      -0.945   0.383   4.054  0.00  0.00    -0.180 NA
ATOM     13  N   UNL     1       0.064   1.355   4.077  0.00  0.00    -0.274 N 
ATOM     14  C   UNL     1       0.870   1.143   3.016  0.00  0.00    +0.113 A 
ATOM     15  C   UNL     1       0.219   2.413   5.079  0.00  0.00    +0.172 C 
ENDBRANCH   1  10
BRANCH   1  17
ATOM     16  C   UNL     1      -1.259  -0.536  -0.049  0.00  0.00    -0.012 C 
ATOM     17  C   UNL     1       0.178  -0.019  -0.133  0.00  0.00    -0.056 C 
BRANCH  17  18
ATOM     18  N   UNL     1       0.171   1.449  -0.147  0.00  0.00    +0.381 N 
ATOM     19  H   UNL     1      -0.344   1.791   0.651  0.00  0.00    -0.090 HD
ATOM     20  H   UNL     1       1.120   1.791  -0.106  0.00  0.00    -0.090 HD
ATOM     21  H   UNL     1      -0.268   1.776  -0.995  0.00  0.00    -0.090 HD
ENDBRANCH  17  18
ENDBRANCH   1  17
TORSDOF 4
