REMARK  Name = ZINC20192896
REMARK  9 active torsions:
REMARK  status: ('A' for Active; 'I' for Inactive)
REMARK    1  A    between atoms: C_1  and  C_2
REMARK    2  A    between atoms: C_3  and  C_34
REMARK    3  A    between atoms: C_5  and  N_26
REMARK    4  A    between atoms: C_6  and  C_7
REMARK    5  A    between atoms: C_7  and  C_9
REMARK    6  A    between atoms: C_7  and  N_19
REMARK    7  A    between atoms: C_12  and  C_15
REMARK    8  A    between atoms: N_22  and  C_25
REMARK    9  A    between atoms: C_27  and  C_29
REMARK                            x       y       z     vdW  Elec       q    Type
REMARK                         _______ _______ _______ _____ _____    ______ ____
ROOT
ATOM      1  C   UNL     1      -1.840   3.493   2.774  0.00  0.00    +0.120 C 
ENDROOT
BRANCH   1   2
ATOM      2  N   UNL     1      -1.430   2.889   1.500  0.00  0.00    -0.295 NA
ATOM      3  C   UNL     1      -2.456   3.089   0.468  0.00  0.00    +0.067 C 
ATOM      4  C   UNL     1      -2.028   2.379  -0.819  0.00  0.00    -0.064 C 
ATOM      5  N   UNL     1      -0.731   2.910  -1.260  0.00  0.00    +0.379 N 
ATOM      6  C   UNL     1       0.296   2.708  -0.228  0.00  0.00    -0.064 C 
ATOM      7  C   UNL     1      -0.132   3.419   1.058  0.00  0.00    +0.067 C 
ATOM      8  C   UNL     1      -0.321   2.305  -2.535  0.00  0.00    -0.096 C 
ATOM      9  H   UNL     1      -0.843   3.992  -1.421  0.00  0.00    -0.082 HD
ENDBRANCH   1   2
BRANCH   1  15
ATOM     10  C   UNL     1      -1.075   5.607   4.628  0.00  0.00    +0.045 C 
ATOM     11  C   UNL     1      -0.408   4.257   4.690  0.00  0.00    -0.034 A 
ATOM     12  C   UNL     1       0.556   4.009   5.609  0.00  0.00    -0.008 A 
ATOM     13  S   UNL     1       0.988   2.315   5.249  0.00  0.00    -0.078 S 
ATOM     14  C   UNL     1      -0.149   2.045   3.899  0.00  0.00    +0.078 A 
ATOM     15  C   UNL     1      -0.771   3.255   3.810  0.00  0.00    +0.006 A 
ATOM     16  C   UNL     1       1.120   4.927   6.663  0.00  0.00    +0.052 C 
BRANCH  14  17
ATOM     17  N   UNL     1      -0.348   0.895   3.134  0.00  0.00    -0.273 N 
ATOM     18  C   UNL     1       0.272  -0.254   3.469  0.00  0.00    +0.284 C 
ATOM     19  O   UNL     1       1.006  -0.288   4.439  0.00  0.00    -0.266 OA
ATOM     20  H   UNL     1      -1.012   0.926   2.257  0.00  0.00    +0.156 HD
BRANCH  18  21
ATOM     21  C   UNL     1       0.062  -1.462   2.665  0.00  0.00    +0.189 A 
ATOM     22  C   UNL     1       0.626  -2.684   2.892  0.00  0.00    +0.054 A 
ATOM     23  C   UNL     1       0.152  -3.541   1.885  0.00  0.00    +0.042 A 
ATOM     24  C   UNL     1      -0.669  -2.812   1.098  0.00  0.00    +0.196 A 
ATOM     25  O   UNL     1      -0.726  -1.562   1.574  0.00  0.00    -0.458 OA
ENDBRANCH  18  21
ENDBRANCH  14  17
ENDBRANCH   1  15
BRANCH   1  26
ATOM     26  C   UNL     1      -3.132   2.869   3.233  0.00  0.00    -0.026 A 
ATOM     27  C   UNL     1      -3.336   1.510   3.081  0.00  0.00    +0.006 A 
ATOM     28  C   UNL     1      -4.520   0.937   3.507  0.00  0.00    +0.013 A 
ATOM     29  C   UNL     1      -5.504   1.724   4.075  0.00  0.00    +0.055 A 
ATOM     30  C   UNL     1      -5.302   3.084   4.223  0.00  0.00    +0.013 A 
ATOM     31  C   UNL     1      -4.116   3.656   3.802  0.00  0.00    +0.006 A 
BRANCH  29  32
ATOM     32  C   UNL     1      -6.797   1.100   4.534  0.00  0.00    +0.417 C 
ATOM     33  F   UNL     1      -7.720   1.114   3.482  0.00  0.00    -0.166 F 
ATOM     34  F   UNL     1      -6.562  -0.221   4.931  0.00  0.00    -0.166 F 
ATOM     35  F   UNL     1      -7.309   1.828   5.613  0.00  0.00    -0.166 F 
ENDBRANCH  29  32
ENDBRANCH   1  26
TORSDOF 6
