REMARK  Name = ZINC39686449
REMARK  8 active torsions:
REMARK  status: ('A' for Active; 'I' for Inactive)
REMARK    1  A    between atoms: C_1  and  C_2
REMARK    2  A    between atoms: C_2  and  C_4
REMARK    3  A    between atoms: C_2  and  N_13
REMARK    4  A    between atoms: C_4  and  C_5
REMARK    5  A    between atoms: C_10  and  O_11
REMARK    6  A    between atoms: O_11  and  C_12
REMARK    7  A    between atoms: C_14  and  C_16
REMARK    8  A    between atoms: C_27  and  C_29
REMARK                            x       y       z     vdW  Elec       q    Type
REMARK                         _______ _______ _______ _____ _____    ______ ____
ROOT
ATOM      1  C   UNL     1       1.464  -2.324   0.118  0.00  0.00    +0.100 C 
ATOM      2  C   UNL     1       0.552  -3.514  -0.253  0.00  0.00    +0.121 C 
ATOM      3  N   UNL     1       0.477  -3.482  -1.733  0.00  0.00    -0.296 N 
ATOM      4  C   UNL     1       1.851  -3.127  -2.163  0.00  0.00    +0.115 C 
ATOM      5  C   UNL     1       2.318  -2.075  -1.137  0.00  0.00    -0.004 C 
ATOM      6  C   UNL     1       2.069  -0.669  -1.674  0.00  0.00    -0.010 C 
ATOM      7  C   UNL     1       2.971  -0.424  -2.888  0.00  0.00    -0.082 C 
ATOM      8  N   UNL     1       4.376  -0.579  -2.495  0.00  0.00    +0.379 N 
ATOM      9  C   UNL     1       4.628  -1.960  -2.067  0.00  0.00    -0.082 C 
ATOM     10  C   UNL     1       3.797  -2.269  -0.818  0.00  0.00    -0.010 C 
ATOM     11  C   UNL     1      -0.596  -3.723  -2.511  0.00  0.00    +0.247 C 
ATOM     12  O   UNL     1      -0.484  -3.710  -3.721  0.00  0.00    -0.270 OA
ATOM     13  H   UNL     1       4.970  -0.358  -3.280  0.00  0.00    -0.086 HD
ATOM     14  H   UNL     1       4.582   0.051  -1.734  0.00  0.00    -0.086 HD
ENDROOT
BRANCH  11  15
ATOM     15  C   UNL     1      -1.910  -4.002  -1.893  0.00  0.00    +0.038 A 
ATOM     16  C   UNL     1      -2.620  -2.978  -1.264  0.00  0.00    +0.013 A 
ATOM     17  C   UNL     1      -3.845  -3.245  -0.689  0.00  0.00    +0.002 A 
ATOM     18  C   UNL     1      -4.371  -4.524  -0.734  0.00  0.00    +0.015 A 
ATOM     19  C   UNL     1      -3.672  -5.544  -1.356  0.00  0.00    +0.019 A 
ATOM     20  C   UNL     1      -2.448  -5.289  -1.941  0.00  0.00    +0.028 A 
ATOM     21 BR   UNL     1      -4.399  -7.289  -1.412  0.00  0.00    -0.050 Br
ENDBRANCH  11  15
BRANCH   1  23
ATOM     22  N   UNL     1       1.137  -0.140   1.232  0.00  0.00    -0.312 N 
ATOM     23  C   UNL     1       0.636  -1.107   0.439  0.00  0.00    +0.218 C 
ATOM     24  O   UNL     1      -0.483  -0.998  -0.017  0.00  0.00    -0.275 OA
ATOM     25  H   UNL     1       2.059  -0.188   1.532  0.00  0.00    +0.149 HD
BRANCH  22  27
ATOM     26  C   UNL     1       0.367   2.091   0.591  0.00  0.00    +0.028 C 
ATOM     27  C   UNL     1       0.291   0.983   1.643  0.00  0.00    +0.074 C 
BRANCH  27  28
ATOM     28  C   UNL     1       0.779   1.524   2.989  0.00  0.00    +0.060 C 
BRANCH  28  29
ATOM     29  C   UNL     1       1.699   0.517   3.631  0.00  0.00    -0.004 A 
ATOM     30  C   UNL     1       1.198  -0.397   4.538  0.00  0.00    +0.007 A 
ATOM     31  C   UNL     1       2.041  -1.320   5.128  0.00  0.00    +0.000 A 
ATOM     32  C   UNL     1       3.387  -1.331   4.811  0.00  0.00    +0.004 A 
ATOM     33  C   UNL     1       3.893  -0.420   3.905  0.00  0.00    +0.046 A 
ATOM     34  C   UNL     1       3.048   0.504   3.308  0.00  0.00    +0.123 A 
BRANCH  34  35
ATOM     35  O   UNL     1       3.541   1.398   2.411  0.00  0.00    -0.495 OA
ATOM     36  C   UNL     1       4.958   1.418   2.228  0.00  0.00    +0.277 C 
ENDBRANCH  34  35
ENDBRANCH  28  29
ENDBRANCH  27  28
ENDBRANCH  22  27
ENDBRANCH   1  23
TORSDOF 6
