REMARK  Name = ZINC35695321
REMARK  14 active torsions:
REMARK  status: ('A' for Active; 'I' for Inactive)
REMARK    1  A    between atoms: C_1  and  C_2
REMARK    2  A    between atoms: C_7  and  C_8
REMARK    3  A    between atoms: N_10  and  C_11
REMARK    4  A    between atoms: N_10  and  C_16
REMARK    5  A    between atoms: C_11  and  C_12
REMARK    6  A    between atoms: C_12  and  N_13
REMARK    7  A    between atoms: N_13  and  C_14
REMARK    8  A    between atoms: N_13  and  C_15
REMARK    9  A    between atoms: C_16  and  C_17
REMARK   10  A    between atoms: C_17  and  N_19
REMARK   11  A    between atoms: C_22  and  C_32
REMARK   12  A    between atoms: N_24  and  C_25
REMARK   13  A    between atoms: C_35  and  O_38
REMARK   14  A    between atoms: O_38  and  C_39
REMARK                            x       y       z     vdW  Elec       q    Type
REMARK                         _______ _______ _______ _____ _____    ______ ____
ROOT
ATOM      1  N   UNL     1      -1.422   0.182   6.713  0.00  0.00    -0.145 NA
ATOM      2  C   UNL     1      -2.674   0.139   7.170  0.00  0.00    +0.205 A 
ATOM      3  N   UNL     1      -3.742  -0.396   6.523  0.00  0.00    -0.326 N 
ATOM      4  C   UNL     1      -4.857  -0.239   7.337  0.00  0.00    +0.066 A 
ATOM      5  C   UNL     1      -4.462   0.385   8.461  0.00  0.00    +0.120 A 
ATOM      6  N   UNL     1      -3.105   0.619   8.367  0.00  0.00    -0.287 N 
ATOM      7  H   UNL     1      -3.728  -0.815   5.647  0.00  0.00    +0.169 HD
ENDROOT
BRANCH   6   8
ATOM      8  C   UNL     1      -2.309   1.245   9.336  0.00  0.00    +0.049 A 
ATOM      9  C   UNL     1      -0.952   1.426   9.110  0.00  0.00    +0.029 A 
ATOM     10  C   UNL     1      -0.169   2.043  10.066  0.00  0.00    +0.040 A 
ATOM     11  C   UNL     1      -0.738   2.482  11.250  0.00  0.00    +0.124 A 
ATOM     12  C   UNL     1      -2.093   2.302  11.477  0.00  0.00    +0.040 A 
ATOM     13  C   UNL     1      -2.879   1.691  10.521  0.00  0.00    +0.029 A 
ATOM     14  F   UNL     1       0.029   3.085  12.184  0.00  0.00    -0.205 F 
ENDBRANCH   6   8
BRANCH   4  15
ATOM     15  C   UNL     1      -6.234  -0.679   7.022  0.00  0.00    +0.000 A 
ATOM     16  C   UNL     1      -7.266  -0.451   7.933  0.00  0.00    +0.013 A 
ATOM     17  C   UNL     1      -8.548  -0.862   7.636  0.00  0.00    +0.046 A 
ATOM     18  C   UNL     1      -8.813  -1.503   6.433  0.00  0.00    +0.120 A 
ATOM     19  C   UNL     1      -7.788  -1.733   5.525  0.00  0.00    +0.046 A 
ATOM     20  C   UNL     1      -6.505  -1.318   5.812  0.00  0.00    +0.013 A 
BRANCH  18  21
ATOM     21  O   UNL     1     -10.078  -1.908   6.144  0.00  0.00    -0.495 OA
ATOM     22  C   UNL     1     -10.279  -2.561   4.890  0.00  0.00    +0.277 C 
ENDBRANCH  18  21
ENDBRANCH   4  15
BRANCH   1  23
ATOM     23  C   UNL     1      -1.133  -0.325   5.521  0.00  0.00    +0.256 C 
ATOM     24  O   UNL     1      -2.010  -0.828   4.845  0.00  0.00    -0.272 OA
BRANCH  23  25
ATOM     25  C   UNL     1       0.282  -0.277   5.005  0.00  0.00    +0.205 C 
BRANCH  25  28
ATOM     26  C   UNL     1       0.151  -0.144   2.575  0.00  0.00    +0.247 C 
ATOM     27  O   UNL     1       0.040   1.062   2.674  0.00  0.00    -0.270 OA
ATOM     28  N   UNL     1       0.340  -0.896   3.678  0.00  0.00    -0.290 N 
BRANCH  26  35
ATOM     29  C   UNL     1       1.924   0.735   0.464  0.00  0.00    +0.044 C 
ATOM     30  C   UNL     1       0.930  -0.372   0.220  0.00  0.00    -0.038 A 
ATOM     31  C   UNL     1       0.863  -0.980  -1.016  0.00  0.00    +0.004 A 
ATOM     32  C   UNL     1      -0.049  -1.996  -1.242  0.00  0.00    +0.000 A 
ATOM     33  C   UNL     1      -0.898  -2.409  -0.231  0.00  0.00    +0.001 A 
ATOM     34  C   UNL     1      -0.841  -1.810   1.010  0.00  0.00    +0.013 A 
ATOM     35  C   UNL     1       0.080  -0.787   1.246  0.00  0.00    +0.040 A 
ENDBRANCH  26  35
BRANCH  28  36
ATOM     36  C   UNL     1       0.602  -2.331   3.550  0.00  0.00    +0.090 C 
BRANCH  36  37
ATOM     37  C   UNL     1       2.096  -2.557   3.308  0.00  0.00    -0.060 C 
BRANCH  37  38
ATOM     38  N   UNL     1       2.359  -3.997   3.179  0.00  0.00    +0.377 N 
ATOM     39  C   UNL     1       3.769  -4.207   2.828  0.00  0.00    -0.097 C 
ATOM     40  C   UNL     1       2.067  -4.663   4.456  0.00  0.00    -0.097 C 
ATOM     41  H   UNL     1       1.770  -4.383   2.456  0.00  0.00    -0.083 HD
ENDBRANCH  37  38
ENDBRANCH  36  37
ENDBRANCH  28  36
ENDBRANCH  25  28
ENDBRANCH  23  25
ENDBRANCH   1  23
TORSDOF 10
