REMARK  Name = ZINC39467410
REMARK  8 active torsions:
REMARK  status: ('A' for Active; 'I' for Inactive)
REMARK    1  A    between atoms: C_4  and  C_7
REMARK    2  A    between atoms: C_10  and  C_12
REMARK    3  A    between atoms: C_12  and  N_13
REMARK    4  A    between atoms: N_13  and  C_14
REMARK    5  A    between atoms: N_17  and  C_20
REMARK    6  A    between atoms: C_23  and  N_26
REMARK    7  A    between atoms: N_26  and  S_27
REMARK    8  A    between atoms: S_27  and  C_30
REMARK                            x       y       z     vdW  Elec       q    Type
REMARK                         _______ _______ _______ _____ _____    ______ ____
ROOT
ATOM      1  C   UNL     1       8.456  -4.420  -0.162  0.00  0.00    -0.068 C 
ATOM      2  C   UNL     1       8.220  -5.021  -1.550  0.00  0.00    +0.003 C 
ATOM      3  C   UNL     1       8.879  -6.402  -1.623  0.00  0.00    +0.103 C 
ATOM      4  N   UNL     1      10.296  -6.270  -1.256  0.00  0.00    -0.330 N 
ATOM      5  C   UNL     1      10.638  -5.623   0.019  0.00  0.00    +0.103 C 
ATOM      6  C   UNL     1       9.959  -4.251   0.073  0.00  0.00    +0.003 C 
ENDROOT
BRANCH   4   7
ATOM      7  C   UNL     1      11.300  -6.751  -2.104  0.00  0.00    +0.030 A 
ATOM      8  C   UNL     1      12.635  -6.515  -1.802  0.00  0.00    +0.025 A 
ATOM      9  C   UNL     1      13.626  -6.989  -2.639  0.00  0.00    +0.026 A 
ATOM     10  C   UNL     1      13.288  -7.703  -3.781  0.00  0.00    +0.048 A 
ATOM     11  C   UNL     1      11.953  -7.939  -4.082  0.00  0.00    +0.026 A 
ATOM     12  C   UNL     1      10.962  -7.469  -3.243  0.00  0.00    +0.025 A 
BRANCH  10  13
ATOM     13  N   UNL     1      14.293  -8.183  -4.630  0.00  0.00    -0.216 N 
ATOM     14  H   UNL     1      15.025  -7.603  -4.891  0.00  0.00    +0.174 HD
BRANCH  13  15
ATOM     15  S   UNL     1      14.230  -9.741  -5.187  0.00  0.00    +0.072 S 
ATOM     16  O   UNL     1      12.942  -9.916  -5.760  0.00  0.00    -0.150 OA
ATOM     17  O   UNL     1      15.427  -9.957  -5.923  0.00  0.00    -0.150 OA
BRANCH  15  18
ATOM     18  C   UNL     1      14.305 -10.801  -3.781  0.00  0.00    +0.108 A 
ATOM     19  C   UNL     1      15.520 -11.311  -3.364  0.00  0.00    +0.029 A 
ATOM     20  C   UNL     1      15.578 -12.142  -2.261  0.00  0.00    +0.002 A 
ATOM     21  C   UNL     1      14.421 -12.463  -1.575  0.00  0.00    +0.000 A 
ATOM     22  C   UNL     1      13.206 -11.953  -1.993  0.00  0.00    +0.002 A 
ATOM     23  C   UNL     1      13.149 -11.118  -3.093  0.00  0.00    +0.029 A 
ENDBRANCH  15  18
ENDBRANCH  13  15
ENDBRANCH  10  13
ENDBRANCH   4   7
BRANCH   1  24
ATOM     24  N   UNL     1       7.797  -3.111  -0.078  0.00  0.00    +0.384 N 
ATOM     25  H   UNL     1       8.120  -2.522  -0.831  0.00  0.00    -0.085 HD
ATOM     26  H   UNL     1       8.019  -2.678   0.806  0.00  0.00    -0.085 HD
BRANCH  24  27
ATOM     27  C   UNL     1       6.342  -3.287  -0.184  0.00  0.00    -0.028 C 
BRANCH  27  31
ATOM     28  C   UNL     1       4.093  -0.159  -0.025  0.00  0.00    +0.076 C 
ATOM     29  N   UNL     1       5.325   0.256   0.091  0.00  0.00    -0.153 NA
ATOM     30  N   UNL     1       6.239  -0.792   0.047  0.00  0.00    -0.160 NA
ATOM     31  C   UNL     1       5.666  -1.943  -0.098  0.00  0.00    +0.030 C 
ATOM     32  C   UNL     1       4.177  -1.667  -0.157  0.00  0.00    +0.108 C 
BRANCH  28  36
ATOM     33  C   UNL     1       0.581   2.219  -0.014  0.00  0.00    +0.000 A 
ATOM     34  C   UNL     1       1.820   2.821   0.114  0.00  0.00    +0.001 A 
ATOM     35  C   UNL     1       2.967   2.055   0.112  0.00  0.00    +0.010 A 
ATOM     36  C   UNL     1       2.875   0.666  -0.021  0.00  0.00    -0.002 A 
ATOM     37  C   UNL     1       1.619   0.065  -0.149  0.00  0.00    +0.010 A 
ATOM     38  C   UNL     1       0.481   0.845  -0.145  0.00  0.00    +0.001 A 
ENDBRANCH  28  36
ENDBRANCH  27  31
ENDBRANCH  24  27
ENDBRANCH   1  24
TORSDOF 8
