REMARK  Name = ZINC39632144
REMARK  11 active torsions:
REMARK  status: ('A' for Active; 'I' for Inactive)
REMARK    1  A    between atoms: C_1  and  C_2
REMARK    2  A    between atoms: C_2  and  C_4
REMARK    3  A    between atoms: C_2  and  N_11
REMARK    4  A    between atoms: C_4  and  C_5
REMARK    5  A    between atoms: C_5  and  C_6
REMARK    6  A    between atoms: C_6  and  C_7
REMARK    7  A    between atoms: C_7  and  C_8
REMARK    8  A    between atoms: C_7  and  C_9
REMARK    9  A    between atoms: C_7  and  O_10
REMARK   10  A    between atoms: C_12  and  C_14
REMARK   11  A    between atoms: C_25  and  C_27
REMARK                            x       y       z     vdW  Elec       q    Type
REMARK                         _______ _______ _______ _____ _____    ______ ____
ROOT
ATOM      1  C   UNL     1       2.783  -1.099   2.395  0.00  0.00    +0.100 C 
ATOM      2  C   UNL     1       2.274  -2.504   2.788  0.00  0.00    +0.121 C 
ATOM      3  N   UNL     1       3.225  -3.440   2.144  0.00  0.00    -0.300 N 
ATOM      4  C   UNL     1       4.548  -2.793   2.309  0.00  0.00    +0.115 C 
ATOM      5  C   UNL     1       4.277  -1.292   2.085  0.00  0.00    -0.004 C 
ATOM      6  C   UNL     1       5.126  -0.454   3.034  0.00  0.00    -0.010 C 
ATOM      7  C   UNL     1       6.604  -0.617   2.669  0.00  0.00    -0.082 C 
ATOM      8  N   UNL     1       6.818  -0.189   1.282  0.00  0.00    +0.379 N 
ATOM      9  C   UNL     1       6.069  -1.060   0.368  0.00  0.00    -0.082 C 
ATOM     10  C   UNL     1       4.569  -0.915   0.635  0.00  0.00    -0.010 C 
ATOM     11  C   UNL     1       2.949  -4.615   1.544  0.00  0.00    +0.219 C 
ATOM     12  O   UNL     1       3.844  -5.274   1.059  0.00  0.00    -0.275 OA
ATOM     13  H   UNL     1       6.500   0.763   1.173  0.00  0.00    -0.086 HD
ATOM     14  H   UNL     1       7.801  -0.239   1.063  0.00  0.00    -0.086 HD
ENDROOT
BRANCH  11  15
ATOM     15  C   UNL     1       1.527  -5.111   1.475  0.00  0.00    +0.079 C 
ATOM     16  C   UNL     1       0.979  -5.293   2.894  0.00  0.00    +0.041 C 
ATOM     17  C   UNL     1      -0.437  -5.870   2.816  0.00  0.00    +0.160 C 
ATOM     18  O   UNL     1      -0.406  -7.107   2.101  0.00  0.00    -0.380 OA
ATOM     19  C   UNL     1       0.053  -6.990   0.752  0.00  0.00    +0.160 C 
ATOM     20  C   UNL     1       1.488  -6.458   0.748  0.00  0.00    +0.041 C 
ENDBRANCH  11  15
BRANCH   1  22
ATOM     21  N   UNL     1       1.886   0.724   0.983  0.00  0.00    -0.312 N 
ATOM     22  C   UNL     1       2.054  -0.600   1.174  0.00  0.00    +0.218 C 
ATOM     23  O   UNL     1       1.618  -1.389   0.362  0.00  0.00    -0.275 OA
ATOM     24  H   UNL     1       2.234   1.355   1.632  0.00  0.00    +0.149 HD
BRANCH  21  26
ATOM     25  C   UNL     1       2.156   1.314  -1.375  0.00  0.00    +0.028 C 
ATOM     26  C   UNL     1       1.177   1.209  -0.203  0.00  0.00    +0.070 C 
BRANCH  26  27
ATOM     27  C   UNL     1       0.580   2.588   0.087  0.00  0.00    +0.022 C 
BRANCH  27  28
ATOM     28  C   UNL     1      -0.490   2.461   1.174  0.00  0.00    +0.005 C 
BRANCH  28  29
ATOM     29  C   UNL     1      -1.087   3.840   1.464  0.00  0.00    +0.034 C 
BRANCH  29  30
ATOM     30  C   UNL     1      -2.156   3.713   2.551  0.00  0.00    +0.061 C 
ATOM     31  C   UNL     1      -2.840   5.067   2.753  0.00  0.00    +0.041 C 
ATOM     32  C   UNL     1      -3.196   2.676   2.124  0.00  0.00    +0.041 C 
BRANCH  30  33
ATOM     33  O   UNL     1      -1.546   3.300   3.775  0.00  0.00    -0.389 OA
ATOM     34  H   UNL     1      -0.874   3.913   4.106  0.00  0.00    +0.210 HD
ENDBRANCH  30  33
ENDBRANCH  29  30
ENDBRANCH  28  29
ENDBRANCH  27  28
ENDBRANCH  26  27
ENDBRANCH  21  26
ENDBRANCH   1  22
TORSDOF 8
