REMARK  Name = ZINC35145045
REMARK  4 active torsions:
REMARK  status: ('A' for Active; 'I' for Inactive)
REMARK    1  A    between atoms: C_1  and  C_17
REMARK    2  A    between atoms: N_9  and  C_10
REMARK    3  A    between atoms: C_10  and  C_12
REMARK    4  A    between atoms: C_10  and  O_16
REMARK                            x       y       z     vdW  Elec       q    Type
REMARK                         _______ _______ _______ _____ _____    ______ ____
ROOT
ATOM      1  C   UNL     1      -0.013   1.086   0.008  0.00  0.00    +0.317 C 
ATOM      2  N   UNL     1      -0.654   1.572   1.242  0.00  0.00    -0.279 N 
ATOM      3  C   UNL     1      -0.472   2.894   1.569  0.00  0.00    +0.190 C 
ATOM      4  N   UNL     1       0.582   3.530   1.092  0.00  0.00    -0.166 NA
ATOM      5  C   UNL     1       1.470   2.906   0.298  0.00  0.00    +0.315 C 
ATOM      6  N   UNL     1       2.481   3.576  -0.190  0.00  0.00    -0.249 NA
ATOM      7  O   UNL     1       1.330   1.593  -0.002  0.00  0.00    -0.436 OA
ATOM      8  N   UNL     1      -1.368   3.540   2.373  0.00  0.00    -0.288 N 
ATOM      9  H   UNL     1      -1.184   0.983   1.802  0.00  0.00    +0.152 HD
ATOM     10  H   UNL     1       2.587   4.517   0.021  0.00  0.00    +0.191 HD
ATOM     11  H   UNL     1      -2.140   3.065   2.720  0.00  0.00    +0.151 HD
ENDROOT
BRANCH   1  12
ATOM     12  C   UNL     1      -0.774   1.603  -1.215  0.00  0.00    +0.244 C 
ATOM     13 CL   UNL     1       0.041   1.027  -2.717  0.00  0.00    -0.078 Cl
ATOM     14 CL   UNL     1      -2.467   0.985  -1.174  0.00  0.00    -0.078 Cl
ATOM     15 CL   UNL     1      -0.791   3.405  -1.194  0.00  0.00    -0.078 Cl
ENDBRANCH   1  12
BRANCH   8  16
ATOM     16  C   UNL     1      -1.163   4.950   2.714  0.00  0.00    +0.253 C 
BRANCH  16  17
ATOM     17  C   UNL     1      -2.518   5.654   2.812  0.00  0.00    +0.232 C 
ATOM     18 CL   UNL     1      -2.265   7.389   3.230  0.00  0.00    -0.079 Cl
ATOM     19 CL   UNL     1      -3.372   5.536   1.228  0.00  0.00    -0.079 Cl
ATOM     20 CL   UNL     1      -3.513   4.866   4.092  0.00  0.00    -0.079 Cl
ENDBRANCH  16  17
BRANCH  16  21
ATOM     21  O   UNL     1      -0.486   5.044   3.969  0.00  0.00    -0.370 OA
ATOM     22  H   UNL     1      -0.965   4.639   4.705  0.00  0.00    +0.212 HD
ENDBRANCH  16  21
ENDBRANCH   8  16
TORSDOF 4
