REMARK  Name = ZINC27527669
REMARK  9 active torsions:
REMARK  status: ('A' for Active; 'I' for Inactive)
REMARK    1  A    between atoms: C_1  and  O_2
REMARK    2  A    between atoms: O_2  and  C_3
REMARK    3  A    between atoms: C_6  and  C_9
REMARK    4  A    between atoms: N_10  and  O_11
REMARK    5  A    between atoms: O_11  and  C_12
REMARK    6  A    between atoms: C_12  and  C_13
REMARK    7  A    between atoms: N_15  and  N_16
REMARK    8  A    between atoms: N_24  and  C_27
REMARK    9  A    between atoms: C_27  and  N_28
REMARK                            x       y       z     vdW  Elec       q    Type
REMARK                         _______ _______ _______ _____ _____    ______ ____
ROOT
ATOM      1  N   UNL     1       4.578  -8.253  -7.988  0.00  0.00    -0.174 NA
ATOM      2  C   UNL     1       4.675  -9.550  -8.147  0.00  0.00    +0.153 C 
ATOM      3  C   UNL     1       5.320 -10.276  -9.266  0.00  0.00    +0.029 A 
ATOM      4  C   UNL     1       5.979  -9.859 -10.417  0.00  0.00    +0.027 A 
ATOM      5  C   UNL     1       6.486 -10.797 -11.295  0.00  0.00    +0.019 A 
ATOM      6  C   UNL     1       6.339 -12.149 -11.026  0.00  0.00    +0.017 A 
ATOM      7  C   UNL     1       5.686 -12.572  -9.886  0.00  0.00    +0.025 A 
ATOM      8  C   UNL     1       5.170 -11.641  -8.991  0.00  0.00    +0.047 A 
ATOM      9  N   UNL     1       4.482 -11.796  -7.792  0.00  0.00    -0.252 N 
ATOM     10  C   UNL     1       4.172 -10.607  -7.247  0.00  0.00    +0.272 C 
ATOM     11  O   UNL     1       3.578 -10.433  -6.199  0.00  0.00    -0.268 OA
ATOM     12 BR   UNL     1       7.382 -10.238 -12.863  0.00  0.00    -0.050 Br
ENDROOT
BRANCH   1  15
ATOM     13  C   UNL     1       3.834  -6.398  -6.693  0.00  0.00    +0.272 C 
ATOM     14  O   UNL     1       4.301  -5.649  -7.524  0.00  0.00    -0.270 OA
ATOM     15  N   UNL     1       3.934  -7.732  -6.857  0.00  0.00    -0.203 N 
ATOM     16  H   UNL     1       3.561  -8.332  -6.192  0.00  0.00    +0.177 HD
BRANCH  13  17
ATOM     17  C   UNL     1       3.142  -5.838  -5.478  0.00  0.00    +0.359 C 
BRANCH  17  18
ATOM     18  O   UNL     1       3.165  -4.410  -5.532  0.00  0.00    -0.384 OA
BRANCH  18  20
ATOM     19  C   UNL     1       2.490  -2.491  -4.361  0.00  0.00    +0.160 C 
ATOM     20  N   UNL     1       2.537  -3.782  -4.429  0.00  0.00    -0.092 NA
BRANCH  19  24
ATOM     21  C   UNL     1       0.605  -0.607  -1.055  0.00  0.00    +0.120 A 
ATOM     22  C   UNL     1       1.172   0.165  -2.061  0.00  0.00    +0.046 A 
ATOM     23  C   UNL     1       1.785  -0.442  -3.136  0.00  0.00    +0.013 A 
ATOM     24  C   UNL     1       1.836  -1.836  -3.212  0.00  0.00    -0.004 A 
ATOM     25  C   UNL     1       1.265  -2.609  -2.197  0.00  0.00    +0.013 A 
ATOM     26  C   UNL     1       0.659  -1.993  -1.124  0.00  0.00    +0.046 A 
BRANCH  21  28
ATOM     27  C   UNL     1      -0.017   1.425   0.010  0.00  0.00    +0.277 C 
ATOM     28  O   UNL     1       0.002  -0.004   0.002  0.00  0.00    -0.495 OA
ENDBRANCH  21  28
ENDBRANCH  19  24
ENDBRANCH  18  20
ENDBRANCH  17  18
ENDBRANCH  13  17
ENDBRANCH   1  15
BRANCH   9  29
ATOM     29  C   UNL     1       4.146 -13.091  -7.195  0.00  0.00    +0.201 C 
BRANCH  29  30
ATOM     30  N   UNL     1       5.235 -13.518  -6.306  0.00  0.00    -0.287 NA
ATOM     31  C   UNL     1       5.048 -12.977  -4.936  0.00  0.00    +0.086 C 
ATOM     32  C   UNL     1       5.921 -13.912  -4.063  0.00  0.00    +0.017 C 
ATOM     33  C   UNL     1       5.713 -15.295  -4.722  0.00  0.00    +0.017 C 
ATOM     34  C   UNL     1       5.253 -14.990  -6.160  0.00  0.00    +0.086 C 
ENDBRANCH  29  30
ENDBRANCH   9  29
TORSDOF 8
