REMARK  Name = ZINC13246264
REMARK  5 active torsions:
REMARK  status: ('A' for Active; 'I' for Inactive)
REMARK    1  A    between atoms: C_4  and  S_9
REMARK    2  A    between atoms: C_6  and  C_7
REMARK    3  A    between atoms: S_9  and  N_12
REMARK    4  A    between atoms: N_12  and  C_13
REMARK    5  A    between atoms: C_14  and  C_21
REMARK                            x       y       z     vdW  Elec       q    Type
REMARK                         _______ _______ _______ _____ _____    ______ ____
ROOT
ATOM      1  N   UNL     1       3.417   3.592   1.410  0.00  0.00    -0.209 N 
ATOM      2  H   UNL     1       3.533   4.231   2.131  0.00  0.00    +0.174 HD
ENDROOT
BRANCH   1   3
ATOM      3  C   UNL     1       3.856   2.291   1.564  0.00  0.00    +0.098 A 
ATOM      4  C   UNL     1       4.402   1.692   2.688  0.00  0.00    +0.069 A 
ATOM      5  C   UNL     1       4.785   0.283   2.586  0.00  0.00    -0.023 A 
ATOM      6  C   UNL     1       4.568  -0.282   1.386  0.00  0.00    -0.004 A 
ATOM      7  S   UNL     1       3.863   1.013   0.396  0.00  0.00    -0.076 S 
ATOM      8  C   UNL     1       4.987  -1.727   1.359  0.00  0.00    +0.043 C 
ATOM      9  C   UNL     1       5.106  -2.126   2.846  0.00  0.00    +0.010 C 
ATOM     10  C   UNL     1       5.398  -0.767   3.513  0.00  0.00    +0.037 C 
BRANCH   4  11
ATOM     11  C   UNL     1       4.586   2.441   3.933  0.00  0.00    +0.244 C 
ATOM     12  O   UNL     1       3.698   2.465   4.766  0.00  0.00    -0.270 OA
ATOM     13  N   UNL     1       5.737   3.105   4.157  0.00  0.00    -0.325 N 
ATOM     14  H   UNL     1       6.445   3.086   3.493  0.00  0.00    +0.145 HD
ATOM     15  H   UNL     1       5.859   3.601   4.981  0.00  0.00    +0.145 HD
ENDBRANCH   4  11
ENDBRANCH   1   3
BRANCH   1  16
ATOM     16  S   UNL     1       2.694   4.061  -0.004  0.00  0.00    +0.074 S 
ATOM     17  O   UNL     1       2.399   5.445   0.130  0.00  0.00    -0.150 OA
ATOM     18  O   UNL     1       1.694   3.093  -0.289  0.00  0.00    -0.150 OA
BRANCH  16  22
ATOM     19  C   UNL     1       5.819   3.729  -3.278  0.00  0.00    +0.016 A 
ATOM     20  C   UNL     1       5.988   4.627  -2.245  0.00  0.00    +0.023 A 
ATOM     21  C   UNL     1       5.033   4.728  -1.248  0.00  0.00    +0.068 A 
ATOM     22  C   UNL     1       3.904   3.925  -1.278  0.00  0.00    +0.127 A 
ATOM     23  C   UNL     1       3.726   3.020  -2.302  0.00  0.00    +0.045 A 
ATOM     24  C   UNL     1       4.686   2.913  -3.311  0.00  0.00    +0.065 A 
ATOM     25 CL   UNL     1       5.250   5.866   0.046  0.00  0.00    -0.082 Cl
BRANCH  24  26
ATOM     26  C   UNL     1       4.501   1.946  -4.411  0.00  0.00    +0.387 C 
ATOM     27  O   UNL     1       3.512   1.241  -4.440  0.00  0.00    -0.241 OA
ATOM     28  O   UNL     1       5.429   1.846  -5.383  0.00  0.00    -0.241 OA
ENDBRANCH  24  26
ENDBRANCH  16  22
ENDBRANCH   1  16
TORSDOF 5
