REMARK  Name = ZINC37734411
REMARK  5 active torsions:
REMARK  status: ('A' for Active; 'I' for Inactive)
REMARK    1  A    between atoms: C_1  and  C_2
REMARK    2  A    between atoms: C_5  and  O_9
REMARK    3  A    between atoms: O_9  and  C_10
REMARK    4  A    between atoms: C_13  and  C_17
REMARK    5  A    between atoms: C_15  and  C_16
REMARK                            x       y       z     vdW  Elec       q    Type
REMARK                         _______ _______ _______ _____ _____    ______ ____
ROOT
ATOM      1  C   UNL     1      -0.044  -4.761  -1.220  0.00  0.00    +0.131 A 
ATOM      2  C   UNL     1      -0.052  -4.019  -2.396  0.00  0.00    +0.047 A 
ATOM      3  C   UNL     1      -0.157  -4.656  -3.612  0.00  0.00    +0.015 A 
ATOM      4  C   UNL     1      -0.254  -6.049  -3.664  0.00  0.00    +0.013 A 
ATOM      5  C   UNL     1      -0.245  -6.790  -2.480  0.00  0.00    +0.018 A 
ATOM      6  C   UNL     1      -0.135  -6.147  -1.267  0.00  0.00    -0.008 A 
ATOM      7  C   UNL     1      -0.119  -6.946   0.010  0.00  0.00    +0.047 C 
ENDROOT
BRANCH   4   8
ATOM      8  C   UNL     1      -0.366  -6.736  -4.967  0.00  0.00    +0.094 C 
ATOM      9  N   UNL     1      -0.956  -6.124  -5.994  0.00  0.00    -0.387 N 
ATOM     10  N   UNL     1       0.122  -7.966  -5.115  0.00  0.00    -0.345 N 
ATOM     11  H   UNL     1      -1.311  -5.228  -5.885  0.00  0.00    +0.157 HD
ATOM     12  H   UNL     1       0.551  -8.412  -4.368  0.00  0.00    +0.144 HD
ATOM     13  H   UNL     1       0.048  -8.417  -5.971  0.00  0.00    +0.144 HD
ATOM     14  H   UNL     1      -1.029  -6.575  -6.849  0.00  0.00    +0.157 HD
ENDBRANCH   4   8
BRANCH   1  15
ATOM     15  O   UNL     1       0.058  -4.130  -0.022  0.00  0.00    -0.455 OA
BRANCH  15  20
ATOM     16  C   UNL     1      -0.061   1.502   0.016  0.00  0.00    +0.044 C 
ATOM     17  C   UNL     1      -0.030  -0.005   0.005  0.00  0.00    -0.049 A 
ATOM     18  C   UNL     1       1.181  -0.670   0.062  0.00  0.00    +0.007 A 
ATOM     19  C   UNL     1       1.213  -2.051   0.053  0.00  0.00    +0.047 A 
ATOM     20  C   UNL     1       0.029  -2.771  -0.013  0.00  0.00    +0.142 A 
ATOM     21  C   UNL     1      -1.185  -2.101  -0.069  0.00  0.00    +0.060 A 
ATOM     22  C   UNL     1      -1.212  -0.719  -0.054  0.00  0.00    +0.022 A 
ATOM     23 BR   UNL     1      -2.802  -3.078  -0.158  0.00  0.00    -0.046 Br
ENDBRANCH  15  20
ENDBRANCH   1  15
TORSDOF 3
