REMARK  Name = ZINC23045124
REMARK  7 active torsions:
REMARK  status: ('A' for Active; 'I' for Inactive)
REMARK    1  A    between atoms: C_3  and  C_10
REMARK    2  A    between atoms: C_6  and  C_7
REMARK    3  A    between atoms: C_10  and  O_12
REMARK    4  A    between atoms: O_12  and  C_13
REMARK    5  A    between atoms: C_13  and  C_14
REMARK    6  A    between atoms: N_16  and  C_17
REMARK    7  A    between atoms: C_18  and  C_26
REMARK                            x       y       z     vdW  Elec       q    Type
REMARK                         _______ _______ _______ _____ _____    ______ ____
ROOT
ATOM      1  C   UNL     1       3.554   2.059  -0.021  0.00  0.00    +0.255 C 
ATOM      2  O   UNL     1       3.378   3.260  -0.013  0.00  0.00    -0.272 OA
ATOM      3  N   UNL     1       4.806   1.561  -0.035  0.00  0.00    -0.277 N 
ATOM      4  H   UNL     1       4.965   0.473  -0.043  0.00  0.00    +0.155 HD
ENDROOT
BRANCH   3   5
ATOM      5  C   UNL     1       5.894   2.421  -0.041  0.00  0.00    +0.084 A 
ATOM      6  C   UNL     1       7.244   2.102  -0.050  0.00  0.00    +0.068 A 
ATOM      7  C   UNL     1       8.194   3.202  -0.058  0.00  0.00    -0.023 A 
ATOM      8  C   UNL     1       7.645   4.436  -0.046  0.00  0.00    -0.004 A 
ATOM      9  S   UNL     1       5.897   4.154  -0.031  0.00  0.00    -0.077 S 
ATOM     10  C   UNL     1       8.369   5.747  -0.044  0.00  0.00    +0.043 C 
ATOM     11  C   UNL     1       9.838   5.487   0.320  0.00  0.00    +0.005 C 
ATOM     12  C   UNL     1      10.358   4.323  -0.529  0.00  0.00    +0.005 C 
ATOM     13  C   UNL     1       9.706   3.016  -0.073  0.00  0.00    +0.037 C 
BRANCH   6  14
ATOM     14  C   UNL     1       7.697   0.708  -0.056  0.00  0.00    +0.244 C 
ATOM     15  O   UNL     1       7.878   0.131  -1.112  0.00  0.00    -0.270 OA
ATOM     16  N   UNL     1       7.911   0.064   1.109  0.00  0.00    -0.325 N 
ATOM     17  H   UNL     1       8.250  -0.982   1.105  0.00  0.00    +0.145 HD
ATOM     18  H   UNL     1       7.747   0.585   2.064  0.00  0.00    +0.145 HD
ENDBRANCH   6  14
ENDBRANCH   3   5
BRANCH   1  19
ATOM     19  C   UNL     1       2.371   1.125  -0.015  0.00  0.00    +0.328 C 
BRANCH  19  20
ATOM     20  O   UNL     1       1.143   1.899   0.001  0.00  0.00    -0.452 OA
BRANCH  20  21
ATOM     21  C   UNL     1      -0.014   1.210   0.009  0.00  0.00    +0.340 C 
ATOM     22  O   UNL     1       0.002  -0.004   0.002  0.00  0.00    -0.245 OA
BRANCH  21  25
ATOM     23  C   UNL     1      -3.707   1.891   0.030  0.00  0.00    +0.014 A 
ATOM     24  C   UNL     1      -2.505   1.218   0.021  0.00  0.00    +0.016 A 
ATOM     25  C   UNL     1      -1.305   1.932   0.019  0.00  0.00    +0.059 A 
ATOM     26  C   UNL     1      -1.324   3.328   0.032  0.00  0.00    +0.016 A 
ATOM     27  C   UNL     1      -2.527   4.001   0.035  0.00  0.00    +0.014 A 
ATOM     28  C   UNL     1      -3.726   3.287   0.037  0.00  0.00    +0.037 A 
BRANCH  28  29
ATOM     29  C   UNL     1      -5.018   4.009   0.046  0.00  0.00    +0.242 C 
ATOM     30  O   UNL     1      -6.062   3.387   0.048  0.00  0.00    -0.270 OA
ATOM     31  N   UNL     1      -5.037   5.357   0.053  0.00  0.00    -0.325 N 
ATOM     32  H   UNL     1      -5.997   5.894   0.061  0.00  0.00    +0.145 HD
ATOM     33  H   UNL     1      -4.091   5.920   0.052  0.00  0.00    +0.145 HD
ENDBRANCH  28  29
ENDBRANCH  21  25
ENDBRANCH  20  21
ENDBRANCH  19  20
ENDBRANCH   1  19
TORSDOF 7
