REMARK  Name = ZINC45101665
REMARK  9 active torsions:
REMARK  status: ('A' for Active; 'I' for Inactive)
REMARK    1  A    between atoms: C_1  and  C_2
REMARK    2  A    between atoms: C_2  and  C_4
REMARK    3  A    between atoms: C_2  and  N_13
REMARK    4  A    between atoms: C_7  and  O_11
REMARK    5  A    between atoms: O_11  and  C_12
REMARK    6  A    between atoms: N_16  and  C_17
REMARK    7  A    between atoms: C_19  and  C_25
REMARK    8  A    between atoms: C_22  and  O_23
REMARK    9  A    between atoms: O_23  and  C_24
REMARK                            x       y       z     vdW  Elec       q    Type
REMARK                         _______ _______ _______ _____ _____    ______ ____
ROOT
ATOM      1  N   UNL     1      -1.366  -0.527   0.010  0.00  0.00    -0.293 N 
ATOM      2  C   UNL     1      -2.049  -0.649  -1.146  0.00  0.00    +0.304 C 
ATOM      3  O   UNL     1      -1.522  -0.343  -2.198  0.00  0.00    -0.252 OA
ATOM      4  N   UNL     1      -3.315  -1.109  -1.135  0.00  0.00    -0.266 N 
ATOM      5  H   UNL     1      -1.786  -0.771   0.850  0.00  0.00    +0.151 HD
ATOM      6  H   UNL     1      -3.713  -1.414  -0.305  0.00  0.00    +0.156 HD
ENDROOT
BRANCH   4   7
ATOM      7  C   UNL     1      -4.057  -1.148  -2.324  0.00  0.00    +0.077 A 
ATOM      8  C   UNL     1      -3.428  -1.424  -3.524  0.00  0.00    +0.040 A 
ATOM      9  C   UNL     1      -4.171  -1.462  -4.706  0.00  0.00    +0.038 A 
ATOM     10  C   UNL     1      -5.546  -1.220  -4.671  0.00  0.00    +0.017 A 
ATOM     11  C   UNL     1      -6.168  -0.946  -3.473  0.00  0.00    +0.048 A 
ATOM     12  C   UNL     1      -5.432  -0.913  -2.296  0.00  0.00    +0.141 A 
BRANCH   9  13
ATOM     13  C   UNL     1      -3.504  -1.756  -5.990  0.00  0.00    +0.242 C 
ATOM     14  O   UNL     1      -2.307  -1.965  -6.019  0.00  0.00    -0.270 OA
ATOM     15  N   UNL     1      -4.222  -1.792  -7.130  0.00  0.00    -0.325 N 
ATOM     16  H   UNL     1      -5.177  -1.625  -7.106  0.00  0.00    +0.145 HD
ATOM     17  H   UNL     1      -3.784  -1.985  -7.973  0.00  0.00    +0.145 HD
ENDBRANCH   9  13
BRANCH  12  18
ATOM     18  O   UNL     1      -6.051  -0.647  -1.117  0.00  0.00    -0.493 OA
ATOM     19  C   UNL     1      -7.460  -0.416  -1.161  0.00  0.00    +0.277 C 
ENDBRANCH  12  18
ENDBRANCH   4   7
BRANCH   1  21
ATOM     20  C   UNL     1      -0.003   1.504   0.015  0.00  0.00    +0.033 C 
ATOM     21  C   UNL     1       0.011  -0.026  -0.002  0.00  0.00    +0.102 C 
BRANCH  21  22
ATOM     22  C   UNL     1       0.741  -0.536   1.214  0.00  0.00    -0.024 A 
ATOM     23  C   UNL     1       0.093  -0.594   2.434  0.00  0.00    +0.009 A 
ATOM     24  C   UNL     1       0.759  -1.060   3.551  0.00  0.00    +0.049 A 
ATOM     25  C   UNL     1       2.080  -1.471   3.449  0.00  0.00    +0.155 A 
ATOM     26  C   UNL     1       2.729  -1.412   2.223  0.00  0.00    +0.165 A 
ATOM     27  C   UNL     1       2.056  -0.949   1.107  0.00  0.00    +0.047 A 
ATOM     28  F   UNL     1       4.016  -1.811   2.119  0.00  0.00    -0.202 F 
BRANCH  25  29
ATOM     29  O   UNL     1       2.737  -1.929   4.547  0.00  0.00    -0.492 OA
ATOM     30  C   UNL     1       2.007  -1.962   5.774  0.00  0.00    +0.277 C 
ENDBRANCH  25  29
ENDBRANCH  21  22
ENDBRANCH   1  21
TORSDOF 6
