REMARK  Name = ZINC56710870
REMARK  10 active torsions:
REMARK  status: ('A' for Active; 'I' for Inactive)
REMARK    1  A    between atoms: C_1  and  C_2
REMARK    2  A    between atoms: C_4  and  O_22
REMARK    3  A    between atoms: C_7  and  N_8
REMARK    4  A    between atoms: N_11  and  C_12
REMARK    5  A    between atoms: C_14  and  C_20
REMARK    6  A    between atoms: C_14  and  C_21
REMARK    7  A    between atoms: C_16  and  C_18
REMARK    8  A    between atoms: C_16  and  C_19
REMARK    9  A    between atoms: O_22  and  C_23
REMARK   10  A    between atoms: C_23  and  C_24
REMARK                            x       y       z     vdW  Elec       q    Type
REMARK                         _______ _______ _______ _____ _____    ______ ____
ROOT
ATOM      1  N   UNL     1       0.034  -0.538   2.777  0.00  0.00    -0.269 N 
ATOM      2  C   UNL     1      -0.157  -1.155   3.960  0.00  0.00    +0.304 C 
ATOM      3  O   UNL     1      -0.240  -2.368   4.007  0.00  0.00    -0.253 OA
ATOM      4  N   UNL     1      -0.256  -0.429   5.091  0.00  0.00    -0.296 N 
ATOM      5  H   UNL     1       0.161   0.423   2.747  0.00  0.00    +0.156 HD
ATOM      6  H   UNL     1      -0.190   0.538   5.054  0.00  0.00    +0.151 HD
ENDROOT
BRANCH   4   7
ATOM      7  C   UNL     1      -0.463  -1.102   6.380  0.00  0.00    +0.072 C 
ATOM      8  C   UNL     1      -1.962  -1.314   6.600  0.00  0.00    +0.009 C 
ATOM      9  C   UNL     1      -2.196  -2.003   7.944  0.00  0.00    -0.072 C 
ATOM     10  N   UNL     1      -1.566  -1.287   9.044  0.00  0.00    +0.386 N 
ATOM     11  C   UNL     1      -0.191  -0.849   8.865  0.00  0.00    -0.072 C 
ATOM     12  C   UNL     1       0.065  -0.211   7.504  0.00  0.00    +0.009 C 
ATOM     13  C   UNL     1       0.802  -1.990   9.103  0.00  0.00    -0.010 C 
ATOM     14  C   UNL     1       0.096   0.229   9.938  0.00  0.00    -0.010 C 
ATOM     15  C   UNL     1      -1.747  -3.462   7.876  0.00  0.00    -0.010 C 
ATOM     16  C   UNL     1      -3.720  -2.004   8.200  0.00  0.00    -0.010 C 
ATOM     17  H   UNL     1      -2.139  -0.468   9.263  0.00  0.00    -0.084 HD
ATOM     18  H   UNL     1      -1.611  -1.877   9.879  0.00  0.00    -0.084 HD
ENDBRANCH   4   7
BRANCH   1  25
ATOM     19  C   UNL     1      -0.760   0.752   0.369  0.00  0.00    +0.046 C 
ATOM     20  C   UNL     1      -0.332  -0.693   0.394  0.00  0.00    -0.026 A 
ATOM     21  C   UNL     1      -0.313  -1.428  -0.775  0.00  0.00    +0.050 A 
ATOM     22  C   UNL     1       0.080  -2.758  -0.752  0.00  0.00    +0.122 A 
ATOM     23  C   UNL     1       0.454  -3.351   0.445  0.00  0.00    +0.047 A 
ATOM     24  C   UNL     1       0.435  -2.618   1.615  0.00  0.00    +0.027 A 
ATOM     25  C   UNL     1       0.047  -1.284   1.591  0.00  0.00    +0.038 A 
BRANCH  22  26
ATOM     26  O   UNL     1       0.099  -3.481  -1.904  0.00  0.00    -0.483 OA
BRANCH  26  27
ATOM     27  C   UNL     1       0.514  -4.845  -1.807  0.00  0.00    +0.324 C 
BRANCH  27  28
ATOM     28  C   UNL     1       0.472  -5.481  -3.173  0.00  0.00    +0.248 C 
ATOM     29  O   UNL     1       0.121  -4.830  -4.134  0.00  0.00    -0.272 OA
ATOM     30  N   UNL     1       0.825  -6.773  -3.325  0.00  0.00    -0.327 N 
ATOM     31  H   UNL     1       1.106  -7.293  -2.557  0.00  0.00    +0.145 HD
ATOM     32  H   UNL     1       0.797  -7.182  -4.204  0.00  0.00    +0.145 HD
ENDBRANCH  27  28
ENDBRANCH  26  27
ENDBRANCH  22  26
ENDBRANCH   1  25
TORSDOF 5
