REMARK  Name = ZINC09166334
REMARK  11 active torsions:
REMARK  status: ('A' for Active; 'I' for Inactive)
REMARK    1  A    between atoms: C_1  and  C_2
REMARK    2  A    between atoms: C_2  and  C_3
REMARK    3  A    between atoms: C_2  and  C_4
REMARK    4  A    between atoms: C_4  and  C_5
REMARK    5  A    between atoms: C_5  and  C_7
REMARK    6  A    between atoms: C_5  and  N_19
REMARK    7  A    between atoms: N_9  and  C_10
REMARK    8  A    between atoms: C_10  and  C_11
REMARK    9  A    between atoms: C_16  and  O_17
REMARK   10  A    between atoms: O_17  and  C_18
REMARK   11  A    between atoms: C_20  and  C_22
REMARK                            x       y       z     vdW  Elec       q    Type
REMARK                         _______ _______ _______ _____ _____    ______ ____
ROOT
ATOM      1  C   UNL     1      -5.732   3.414  -0.395  0.00  0.00    +0.159 C 
ENDROOT
BRANCH   1   2
ATOM      2  C   UNL     1      -5.790   4.823  -0.928  0.00  0.00    +0.234 C 
ATOM      3  O   UNL     1      -4.846   5.279  -1.539  0.00  0.00    -0.274 OA
ATOM      4  N   UNL     1      -6.890   5.575  -0.727  0.00  0.00    -0.310 N 
ATOM      5  H   UNL     1      -7.644   5.210  -0.238  0.00  0.00    +0.149 HD
BRANCH   4   6
ATOM      6  C   UNL     1      -6.946   6.944  -1.246  0.00  0.00    +0.143 C 
BRANCH   6   7
ATOM      7  C   UNL     1      -8.273   7.562  -0.888  0.00  0.00    +0.011 A 
ATOM      8  C   UNL     1      -9.284   7.621  -1.827  0.00  0.00    +0.009 A 
ATOM      9  C   UNL     1     -10.502   8.187  -1.499  0.00  0.00    +0.001 A 
ATOM     10  C   UNL     1     -10.711   8.697  -0.231  0.00  0.00    +0.004 A 
ATOM     11  C   UNL     1      -9.703   8.641   0.712  0.00  0.00    +0.046 A 
ATOM     12  C   UNL     1      -8.481   8.068   0.387  0.00  0.00    +0.125 A 
BRANCH  12  13
ATOM     13  O   UNL     1      -7.490   8.007   1.314  0.00  0.00    -0.495 OA
ATOM     14  C   UNL     1      -7.776   8.547   2.606  0.00  0.00    +0.277 C 
ENDBRANCH  12  13
ENDBRANCH   6   7
ENDBRANCH   4   6
ENDBRANCH   1   2
BRANCH   1  15
ATOM     15  N   UNL     1      -4.446   2.809  -0.753  0.00  0.00    -0.305 N 
ATOM     16  C   UNL     1      -3.977   1.760  -0.049  0.00  0.00    +0.200 C 
ATOM     17  O   UNL     1      -4.572   1.373   0.934  0.00  0.00    -0.278 OA
ATOM     18  H   UNL     1      -3.933   3.164  -1.496  0.00  0.00    +0.149 HD
BRANCH  16  19
ATOM     19  C   UNL     1      -2.712   1.066  -0.485  0.00  0.00    +0.021 C 
ATOM     20  C   UNL     1      -1.498   1.858   0.003  0.00  0.00    +0.028 C 
ATOM     21  C   UNL     1      -0.240   1.057  -0.213  0.00  0.00    -0.047 A 
ATOM     22  C   UNL     1       0.980   1.716  -0.172  0.00  0.00    +0.004 A 
ATOM     23  C   UNL     1       2.156   1.017  -0.355  0.00  0.00    +0.000 A 
ATOM     24  C   UNL     1       2.119  -0.346  -0.581  0.00  0.00    +0.000 A 
ATOM     25  C   UNL     1       0.905  -1.002  -0.624  0.00  0.00    +0.002 A 
ATOM     26  C   UNL     1      -0.278  -0.302  -0.442  0.00  0.00    -0.061 A 
ATOM     27  C   UNL     1      -1.578  -1.060  -0.508  0.00  0.00    -0.045 C 
ATOM     28  N   UNL     1      -2.662  -0.283   0.108  0.00  0.00    +0.389 N 
ATOM     29  H   UNL     1      -3.557  -0.759  -0.054  0.00  0.00    -0.084 HD
ATOM     30  H   UNL     1      -2.493  -0.205   1.118  0.00  0.00    -0.084 HD
ENDBRANCH  16  19
ENDBRANCH   1  15
BRANCH   1  31
ATOM     31  C   UNL     1      -6.869   2.591  -1.002  0.00  0.00    +0.034 C 
BRANCH  31  33
ATOM     32  C   UNL     1      -7.662   1.451  -3.079  0.00  0.00    +0.007 C 
ATOM     33  C   UNL     1      -6.635   2.429  -2.506  0.00  0.00    -0.015 C 
ATOM     34  C   UNL     1      -6.785   3.787  -3.195  0.00  0.00    +0.007 C 
ENDBRANCH  31  33
ENDBRANCH   1  31
TORSDOF 8
