REMARK  Name = ZINC02100559
REMARK  7 active torsions:
REMARK  status: ('A' for Active; 'I' for Inactive)
REMARK    1  A    between atoms: C_1  and  N_62
REMARK    2  A    between atoms: C_8  and  O_33
REMARK    3  A    between atoms: C_10  and  C_12
REMARK    4  A    between atoms: C_13  and  O_32
REMARK    5  A    between atoms: N_14  and  C_26
REMARK    6  A    between atoms: N_17  and  C_20
REMARK    7  A    between atoms: O_33  and  C_34
REMARK                            x       y       z     vdW  Elec       q    Type
REMARK                         _______ _______ _______ _____ _____    ______ ____
ROOT
ATOM      1  C   UNL     1      -1.226   7.084   0.623  0.00  0.00    +0.068 A 
ATOM      2  C   UNL     1      -1.269   5.917  -0.080  0.00  0.00    +0.206 A 
ATOM      3  N   UNL     1      -0.122   5.436  -0.663  0.00  0.00    -0.260 N 
ATOM      4  C   UNL     1       1.034   6.116  -0.553  0.00  0.00    +0.175 A 
ATOM      5  S   UNL     1       2.449   5.499  -1.295  0.00  0.00    -0.012 S 
ATOM      6  N   UNL     1       1.095   7.272   0.132  0.00  0.00    -0.256 N 
ATOM      7  C   UNL     1      -0.005   7.776   0.724  0.00  0.00    +0.265 A 
ATOM      8  O   UNL     1       0.056   8.824   1.344  0.00  0.00    -0.267 OA
ENDROOT
BRANCH   1  18
ATOM      9  C   UNL     1      -1.920   6.585   3.389  0.00  0.00    -0.095 C 
ATOM     10  C   UNL     1      -3.346   8.544   3.327  0.00  0.00    -0.073 C 
ATOM     11  C   UNL     1      -3.367   9.989   2.829  0.00  0.00    +0.017 C 
ATOM     12  C   UNL     1      -3.281  10.016   1.324  0.00  0.00    -0.040 A 
ATOM     13  C   UNL     1      -3.638  11.183   0.664  0.00  0.00    +0.053 A 
ATOM     14  C   UNL     1      -3.574  11.257  -0.717  0.00  0.00    +0.170 A 
ATOM     15  C   UNL     1      -3.148  10.152  -1.447  0.00  0.00    +0.208 A 
ATOM     16  C   UNL     1      -2.792   8.986  -0.784  0.00  0.00    +0.167 A 
ATOM     17  C   UNL     1      -2.861   8.918   0.604  0.00  0.00    -0.008 A 
ATOM     18  C   UNL     1      -2.469   7.629   1.277  0.00  0.00    +0.007 C 
ATOM     19  O   UNL     1      -3.170  10.472  -2.775  0.00  0.00    -0.449 OA
ATOM     20  C   UNL     1      -4.002  11.643  -2.874  0.00  0.00    +0.467 C 
ATOM     21  O   UNL     1      -3.864  12.269  -1.585  0.00  0.00    -0.452 OA
ATOM     22  N   UNL     1      -2.191   7.869   2.703  0.00  0.00    +0.386 N 
ATOM     23  H   UNL     1      -1.364   8.472   2.786  0.00  0.00    -0.081 HD
BRANCH  16  24
ATOM     24  O   UNL     1      -2.375   7.905  -1.495  0.00  0.00    -0.491 OA
ATOM     25  C   UNL     1      -3.379   6.977  -1.913  0.00  0.00    +0.277 C 
ENDBRANCH  16  24
ENDBRANCH   1  18
BRANCH   6  26
ATOM     26  C   UNL     1       2.313   7.958   0.230  0.00  0.00    +0.052 A 
ATOM     27  C   UNL     1       2.659   8.902  -0.728  0.00  0.00    +0.026 A 
ATOM     28  C   UNL     1       3.858   9.580  -0.625  0.00  0.00    +0.002 A 
ATOM     29  C   UNL     1       4.718   9.312   0.424  0.00  0.00    +0.000 A 
ATOM     30  C   UNL     1       4.379   8.368   1.376  0.00  0.00    +0.002 A 
ATOM     31  C   UNL     1       3.179   7.691   1.282  0.00  0.00    +0.026 A 
ENDBRANCH   6  26
BRANCH   3  32
ATOM     32  C   UNL     1      -0.158   4.235  -1.382  0.00  0.00    +0.052 A 
ATOM     33  C   UNL     1       0.093   3.031  -0.737  0.00  0.00    +0.026 A 
ATOM     34  C   UNL     1       0.058   1.848  -1.449  0.00  0.00    +0.002 A 
ATOM     35  C   UNL     1      -0.226   1.861  -2.802  0.00  0.00    +0.000 A 
ATOM     36  C   UNL     1      -0.471   3.059  -3.448  0.00  0.00    +0.002 A 
ATOM     37  C   UNL     1      -0.443   4.245  -2.741  0.00  0.00    +0.026 A 
ENDBRANCH   3  32
BRANCH   2  38
ATOM     38  O   UNL     1      -2.429   5.236  -0.198  0.00  0.00    -0.493 OA
ATOM     39  H   UNL     1      -2.341   4.383  -0.644  0.00  0.00    +0.294 HD
ENDBRANCH   2  38
TORSDOF 5
