REMARK  Name = ZINC09138475
REMARK  8 active torsions:
REMARK  status: ('A' for Active; 'I' for Inactive)
REMARK    1  A    between atoms: C_1  and  N_2
REMARK    2  A    between atoms: C_10  and  C_12
REMARK    3  A    between atoms: C_12  and  C_14
REMARK    4  A    between atoms: C_12  and  N_66
REMARK    5  A    between atoms: C_14  and  N_15
REMARK    6  A    between atoms: C_16  and  C_18
REMARK    7  A    between atoms: N_20  and  C_21
REMARK    8  A    between atoms: C_26  and  C_27
REMARK                            x       y       z     vdW  Elec       q    Type
REMARK                         _______ _______ _______ _____ _____    ______ ____
ROOT
ATOM      1  C   UNL     1      -8.722  -1.142   0.127  0.00  0.00    -0.020 C 
ENDROOT
BRANCH   1  11
ATOM      2  C   UNL     1     -14.162   1.697  -1.377  0.00  0.00    +0.129 C 
ATOM      3  N   UNL     1     -13.483   1.939  -0.097  0.00  0.00    -0.333 N 
ATOM      4  C   UNL     1     -14.402   1.750   1.028  0.00  0.00    +0.105 C 
ATOM      5  C   UNL     1     -13.633   1.989   2.334  0.00  0.00    +0.024 C 
ATOM      6  C   UNL     1     -12.622   0.853   2.500  0.00  0.00    +0.038 C 
ATOM      7  C   UNL     1     -11.876   0.644   1.206  0.00  0.00    -0.026 A 
ATOM      8  C   UNL     1     -12.325   1.170   0.007  0.00  0.00    +0.033 A 
ATOM      9  C   UNL     1     -11.596   0.935  -1.160  0.00  0.00    +0.023 A 
ATOM     10  C   UNL     1     -10.434   0.195  -1.119  0.00  0.00    +0.004 A 
ATOM     11  C   UNL     1      -9.991  -0.330   0.081  0.00  0.00    -0.059 A 
ATOM     12  C   UNL     1     -10.709  -0.103   1.238  0.00  0.00    +0.007 A 
ENDBRANCH   1  11
BRANCH   1  18
ATOM     13  C   UNL     1      -9.898  -2.793  -1.198  0.00  0.00    -0.078 C 
ATOM     14  C   UNL     1      -9.856  -3.582  -2.509  0.00  0.00    -0.019 C 
ATOM     15  C   UNL     1      -8.645  -4.519  -2.496  0.00  0.00    -0.004 C 
ATOM     16  C   UNL     1      -7.372  -3.692  -2.293  0.00  0.00    -0.019 C 
ATOM     17  C   UNL     1      -7.486  -2.900  -0.989  0.00  0.00    -0.078 C 
ATOM     18  N   UNL     1      -8.656  -2.000  -1.075  0.00  0.00    +0.385 N 
ATOM     19  H   UNL     1      -8.558  -1.404  -1.905  0.00  0.00    -0.081 HD
ENDBRANCH   1  18
BRANCH   1  20
ATOM     20  C   UNL     1      -7.514  -0.203   0.129  0.00  0.00    +0.094 C 
BRANCH  20  21
ATOM     21  N   UNL     1      -7.565   0.654   1.315  0.00  0.00    -0.309 N 
ATOM     22  C   UNL     1      -6.654   1.635   1.478  0.00  0.00    +0.299 C 
ATOM     23  O   UNL     1      -5.793   1.807   0.641  0.00  0.00    -0.265 OA
ATOM     24  H   UNL     1      -8.254   0.517   1.984  0.00  0.00    +0.149 HD
BRANCH  22  25
ATOM     25  C   UNL     1      -6.706   2.509   2.688  0.00  0.00    +0.303 C 
ATOM     26  O   UNL     1      -7.567   2.337   3.525  0.00  0.00    -0.265 OA
ATOM     27  N   UNL     1      -5.795   3.489   2.850  0.00  0.00    -0.277 N 
ATOM     28  H   UNL     1      -5.161   3.684   2.142  0.00  0.00    +0.155 HD
BRANCH  27  29
ATOM     29  C   UNL     1      -5.764   4.225   4.037  0.00  0.00    +0.045 A 
ATOM     30  C   UNL     1      -6.265   3.674   5.210  0.00  0.00    +0.024 A 
ATOM     31  C   UNL     1      -6.233   4.404   6.382  0.00  0.00    +0.002 A 
ATOM     32  C   UNL     1      -5.703   5.681   6.389  0.00  0.00    +0.001 A 
ATOM     33  C   UNL     1      -5.198   6.230   5.225  0.00  0.00    +0.014 A 
ATOM     34  C   UNL     1      -5.232   5.508   4.048  0.00  0.00    +0.076 A 
BRANCH  34  35
ATOM     35  C   UNL     1      -4.688   6.109   2.778  0.00  0.00    +0.419 C 
ATOM     36  F   UNL     1      -4.212   7.399   3.039  0.00  0.00    -0.166 F 
ATOM     37  F   UNL     1      -3.642   5.315   2.296  0.00  0.00    -0.166 F 
ATOM     38  F   UNL     1      -5.705   6.173   1.819  0.00  0.00    -0.166 F 
ENDBRANCH  34  35
ENDBRANCH  27  29
ENDBRANCH  22  25
ENDBRANCH  20  21
ENDBRANCH   1  20
TORSDOF 7
