REMARK  Name = ZINC09491147
REMARK  11 active torsions:
REMARK  status: ('A' for Active; 'I' for Inactive)
REMARK    1  A    between atoms: C_1  and  N_2
REMARK    2  A    between atoms: N_2  and  C_3
REMARK    3  A    between atoms: N_2  and  S_4
REMARK    4  A    between atoms: S_4  and  C_7
REMARK    5  A    between atoms: C_10  and  O_26
REMARK    6  A    between atoms: C_11  and  N_13
REMARK    7  A    between atoms: C_14  and  C_16
REMARK    8  A    between atoms: C_16  and  S_17
REMARK    9  A    between atoms: S_17  and  C_18
REMARK   10  A    between atoms: C_22  and  N_24
REMARK   11  A    between atoms: O_26  and  C_27
REMARK                            x       y       z     vdW  Elec       q    Type
REMARK                         _______ _______ _______ _____ _____    ______ ____
ROOT
ATOM      1  N   UNL     1      -1.391  -3.594  -4.337  0.00  0.00    -0.282 N 
ATOM      2  C   UNL     1      -1.073  -4.706  -3.645  0.00  0.00    +0.228 C 
ATOM      3  O   UNL     1      -1.246  -4.744  -2.445  0.00  0.00    -0.275 OA
ATOM      4  H   UNL     1      -1.329  -3.591  -5.305  0.00  0.00    +0.155 HD
ENDROOT
BRANCH   1   9
ATOM      5  C   UNL     1      -1.855  -1.103  -1.670  0.00  0.00    +0.107 A 
ATOM      6  C   UNL     1      -2.643  -0.167  -2.315  0.00  0.00    +0.032 A 
ATOM      7  C   UNL     1      -3.018  -0.363  -3.631  0.00  0.00    +0.049 A 
ATOM      8  C   UNL     1      -2.605  -1.500  -4.308  0.00  0.00    +0.141 A 
ATOM      9  C   UNL     1      -1.811  -2.442  -3.658  0.00  0.00    +0.077 A 
ATOM     10  C   UNL     1      -1.434  -2.236  -2.339  0.00  0.00    +0.055 A 
BRANCH   5  11
ATOM     11  S   UNL     1      -1.382  -0.846   0.008  0.00  0.00    +0.060 S 
ATOM     12  O   UNL     1      -1.094  -2.128   0.549  0.00  0.00    -0.153 OA
ATOM     13  O   UNL     1      -2.354   0.020   0.577  0.00  0.00    -0.153 OA
BRANCH  11  15
ATOM     14  C   UNL     1       0.036   1.457  -0.003  0.00  0.00    +0.131 C 
ATOM     15  N   UNL     1       0.046  -0.008  -0.009  0.00  0.00    -0.183 NA
ATOM     16  C   UNL     1       1.320  -0.732  -0.030  0.00  0.00    +0.131 C 
ENDBRANCH  11  15
ENDBRANCH   5  11
BRANCH   8  17
ATOM     17  O   UNL     1      -2.974  -1.694  -5.602  0.00  0.00    -0.493 OA
ATOM     18  C   UNL     1      -3.788  -0.685  -6.203  0.00  0.00    +0.277 C 
ENDBRANCH   8  17
ENDBRANCH   1   9
BRANCH   2  19
ATOM     19  C   UNL     1      -0.502  -5.902  -4.363  0.00  0.00    +0.173 C 
BRANCH  19  20
ATOM     20  S   UNL     1      -0.181  -7.228  -3.167  0.00  0.00    -0.077 S 
BRANCH  20  21
ATOM     21  C   UNL     1       0.473  -8.537  -4.147  0.00  0.00    +0.192 A 
ATOM     22  N   UNL     1       0.614  -8.358  -5.452  0.00  0.00    -0.207 NA
ATOM     23  C   UNL     1       1.106  -9.324  -6.224  0.00  0.00    +0.122 A 
ATOM     24  C   UNL     1       1.473 -10.534  -5.643  0.00  0.00    +0.086 A 
ATOM     25  C   UNL     1       1.310 -10.686  -4.269  0.00  0.00    +0.122 A 
ATOM     26  N   UNL     1       0.817  -9.674  -3.559  0.00  0.00    -0.207 NA
ATOM     27  N   UNL     1       1.250  -9.128  -7.589  0.00  0.00    -0.343 N 
ATOM     28  H   UNL     1       0.992  -8.283  -7.987  0.00  0.00    +0.144 HD
ATOM     29  H   UNL     1       1.609  -9.837  -8.145  0.00  0.00    +0.144 HD
BRANCH  25  30
ATOM     30  N   UNL     1       1.662 -11.874  -3.647  0.00  0.00    -0.343 N 
ATOM     31  H   UNL     1       2.024 -12.606  -4.170  0.00  0.00    +0.144 HD
ATOM     32  H   UNL     1       1.546 -11.973  -2.689  0.00  0.00    +0.144 HD
ENDBRANCH  25  30
ENDBRANCH  20  21
ENDBRANCH  19  20
ENDBRANCH   2  19
TORSDOF 8
