REMARK  Name = ZINC44335257
REMARK  8 active torsions:
REMARK  status: ('A' for Active; 'I' for Inactive)
REMARK    1  A    between atoms: C_1  and  C_2
REMARK    2  A    between atoms: C_4  and  O_17
REMARK    3  A    between atoms: C_5  and  C_9
REMARK    4  A    between atoms: C_9  and  C_10
REMARK    5  A    between atoms: C_10  and  C_12
REMARK    6  A    between atoms: C_10  and  N_16
REMARK    7  A    between atoms: C_12  and  O_14
REMARK    8  A    between atoms: O_14  and  C_15
REMARK                            x       y       z     vdW  Elec       q    Type
REMARK                         _______ _______ _______ _____ _____    ______ ____
ROOT
ATOM      1  C   UNL     1      -0.018   1.503   0.010  0.00  0.00    +0.045 C 
ATOM      2  C   UNL     1       0.002  -0.004   0.002  0.00  0.00    -0.034 A 
ATOM      3  C   UNL     1       0.006  -0.688  -1.199  0.00  0.00    +0.050 A 
ATOM      4  C   UNL     1       0.025  -2.075  -1.206  0.00  0.00    +0.120 A 
ATOM      5  C   UNL     1       0.041  -2.772  -0.006  0.00  0.00    -0.006 A 
ATOM      6  C   UNL     1       0.037  -2.085   1.192  0.00  0.00    +0.021 A 
ATOM      7  C   UNL     1       0.023  -0.701   1.196  0.00  0.00    +0.017 A 
ATOM      8  I   UNL     1       0.026   0.339   3.015  0.00  0.00    -0.044 I 
ENDROOT
BRANCH   4   9
ATOM      9  O   UNL     1       0.028  -2.749  -2.385  0.00  0.00    -0.506 OA
ATOM     10  H   UNL     1       0.912  -2.932  -2.732  0.00  0.00    +0.292 HD
ENDBRANCH   4   9
BRANCH   5  11
ATOM     11  C   UNL     1       0.061  -4.279  -0.011  0.00  0.00    +0.033 C 
BRANCH  11  12
ATOM     12  C   UNL     1       1.504  -4.769  -0.145  0.00  0.00    +0.040 C 
BRANCH  12  13
ATOM     13  N   UNL     1       2.268  -4.374   1.045  0.00  0.00    +0.387 N 
ATOM     14  H   UNL     1       1.849  -4.784   1.866  0.00  0.00    -0.089 HD
ATOM     15  H   UNL     1       3.220  -4.697   0.957  0.00  0.00    -0.089 HD
ATOM     16  H   UNL     1       2.261  -3.368   1.131  0.00  0.00    -0.089 HD
ENDBRANCH  12  13
BRANCH  12  17
ATOM     17  C   UNL     1       1.515  -6.271  -0.273  0.00  0.00    +0.292 C 
ATOM     18  O   UNL     1       1.767  -6.957   0.689  0.00  0.00    -0.253 OA
BRANCH  17  19
ATOM     19  O   UNL     1       1.245  -6.846  -1.456  0.00  0.00    -0.469 OA
ATOM     20  C   UNL     1       1.273  -8.274  -1.504  0.00  0.00    +0.280 C 
ENDBRANCH  17  19
ENDBRANCH  12  17
ENDBRANCH  11  12
ENDBRANCH   5  11
TORSDOF 6
