REMARK  Name = ZINC35332786
REMARK  3 active torsions:
REMARK  status: ('A' for Active; 'I' for Inactive)
REMARK    1  A    between atoms: C_3  and  N_8
REMARK    2  A    between atoms: N_8  and  C_9
REMARK    3  A    between atoms: C_12  and  N_19
REMARK                            x       y       z     vdW  Elec       q    Type
REMARK                         _______ _______ _______ _____ _____    ______ ____
ROOT
ATOM      1  C   UNL     1       4.800   1.443   0.069  0.00  0.00    +0.039 A 
ATOM      2  C   UNL     1       4.828   0.064   0.057  0.00  0.00    +0.025 A 
ATOM      3  C   UNL     1       6.032  -0.627   0.146  0.00  0.00    +0.025 A 
ATOM      4  C   UNL     1       7.230   0.048   0.249  0.00  0.00    +0.034 A 
ATOM      5  C   UNL     1       7.235   1.457   0.264  0.00  0.00    +0.020 A 
ATOM      6  C   UNL     1       6.006   2.160   0.167  0.00  0.00    +0.008 A 
ATOM      7  C   UNL     1       6.042   3.566   0.179  0.00  0.00    +0.028 A 
ATOM      8  C   UNL     1       7.249   4.188   0.277  0.00  0.00    +0.083 A 
ATOM      9  N   UNL     1       8.383   3.506   0.361  0.00  0.00    -0.366 N 
ATOM     10  C   UNL     1       8.424   2.194   0.367  0.00  0.00    +0.093 A 
ATOM     11  H   UNL     1       9.217   3.997   0.429  0.00  0.00    +0.165 HD
ENDROOT
BRANCH   4  12
ATOM     12  N   UNL     1       8.430  -0.660   0.339  0.00  0.00    -0.357 N 
ATOM     13  H   UNL     1       8.422  -1.630   0.329  0.00  0.00    +0.142 HD
ATOM     14  H   UNL     1       9.271  -0.183   0.411  0.00  0.00    +0.142 HD
ENDBRANCH   4  12
BRANCH   1  15
ATOM     15  N   UNL     1       3.582   2.123  -0.021  0.00  0.00    -0.314 N 
ATOM     16  H   UNL     1       3.554   3.085   0.099  0.00  0.00    +0.152 HD
BRANCH  15  19
ATOM     17  C   UNL     1       0.079   1.023   0.146  0.00  0.00    +0.003 A 
ATOM     18  C   UNL     1       1.241   1.722   0.409  0.00  0.00    +0.023 A 
ATOM     19  C   UNL     1       2.406   1.418  -0.285  0.00  0.00    +0.032 A 
ATOM     20  C   UNL     1       2.398   0.410  -1.241  0.00  0.00    +0.038 A 
ATOM     21  C   UNL     1       1.232  -0.286  -1.499  0.00  0.00    +0.020 A 
ATOM     22  C   UNL     1       0.074   0.021  -0.806  0.00  0.00    +0.015 A 
ATOM     23 BR   UNL     1       1.220  -1.658  -2.800  0.00  0.00    -0.050 Br
ENDBRANCH  15  19
ENDBRANCH   1  15
TORSDOF 3
