REMARK  Name = ZINC31156039
REMARK  17 active torsions:
REMARK  status: ('A' for Active; 'I' for Inactive)
REMARK    1  A    between atoms: C_1  and  C_2
REMARK    2  A    between atoms: C_2  and  C_4
REMARK    3  A    between atoms: C_2  and  O_13
REMARK    4  A    between atoms: C_4  and  C_5
REMARK    5  A    between atoms: C_5  and  C_6
REMARK    6  A    between atoms: C_9  and  O_12
REMARK    7  A    between atoms: O_13  and  C_14
REMARK    8  A    between atoms: C_16  and  O_42
REMARK    9  A    between atoms: C_18  and  O_41
REMARK   10  A    between atoms: C_20  and  O_40
REMARK   11  A    between atoms: C_22  and  C_25
REMARK   12  A    between atoms: C_25  and  O_26
REMARK   13  A    between atoms: O_26  and  C_27
REMARK   14  A    between atoms: C_29  and  O_39
REMARK   15  A    between atoms: C_31  and  O_38
REMARK   16  A    between atoms: C_33  and  C_36
REMARK   17  A    between atoms: C_36  and  O_37
REMARK                            x       y       z     vdW  Elec       q    Type
REMARK                         _______ _______ _______ _____ _____    ______ ____
ROOT
ATOM      1  C   UNL     1      -0.017   1.425   0.010  0.00  0.00    +0.282 C 
ATOM      2  C   UNL     1      -0.758   1.932  -1.230  0.00  0.00    +0.201 C 
ATOM      3  C   UNL     1      -0.827   3.462  -1.184  0.00  0.00    +0.179 C 
ATOM      4  C   UNL     1      -1.510   3.892   0.118  0.00  0.00    +0.177 C 
ATOM      5  C   UNL     1      -0.740   3.309   1.306  0.00  0.00    +0.178 C 
ATOM      6  O   UNL     1      -0.687   1.886   1.185  0.00  0.00    -0.341 OA
ENDROOT
BRANCH   2   7
ATOM      7  O   UNL     1      -0.058   1.521  -2.406  0.00  0.00    -0.384 OA
ATOM      8  H   UNL     1      -0.444   1.795  -3.399  0.00  0.00    +0.210 HD
ENDBRANCH   2   7
BRANCH   3   9
ATOM      9  O   UNL     1      -1.580   3.942  -2.299  0.00  0.00    -0.386 OA
ATOM     10  H   UNL     1      -1.737   5.022  -2.433  0.00  0.00    +0.210 HD
ENDBRANCH   3   9
BRANCH   4  11
ATOM     11  O   UNL     1      -1.515   5.318   0.206  0.00  0.00    -0.386 OA
ATOM     12  H   UNL     1      -1.966   5.814   1.079  0.00  0.00    +0.210 HD
ENDBRANCH   4  11
BRANCH   5  13
ATOM     13  C   UNL     1      -1.450   3.684   2.608  0.00  0.00    +0.197 C 
BRANCH  13  14
ATOM     14  O   UNL     1      -0.671   3.239   3.721  0.00  0.00    -0.346 OA
BRANCH  14  15
ATOM     15  C   UNL     1      -1.248   3.542   4.993  0.00  0.00    +0.282 C 
ATOM     16  C   UNL     1      -0.363   2.985   6.130  0.00  0.00    +0.201 C 
ATOM     17  C   UNL     1      -0.456   4.059   7.237  0.00  0.00    +0.179 C 
ATOM     18  C   UNL     1      -1.386   5.137   6.638  0.00  0.00    +0.178 C 
ATOM     19  O   UNL     1      -1.271   4.970   5.208  0.00  0.00    -0.341 OA
BRANCH  16  20
ATOM     20  O   UNL     1      -0.877   1.737   6.599  0.00  0.00    -0.384 OA
ATOM     21  H   UNL     1      -0.364   1.202   7.412  0.00  0.00    +0.210 HD
ENDBRANCH  16  20
BRANCH  17  22
ATOM     22  O   UNL     1       0.835   4.607   7.513  0.00  0.00    -0.386 OA
ATOM     23  H   UNL     1       0.948   5.389   8.279  0.00  0.00    +0.210 HD
ENDBRANCH  17  22
BRANCH  18  24
ATOM     24  C   UNL     1      -0.917   6.534   7.050  0.00  0.00    +0.190 C 
BRANCH  24  25
ATOM     25  O   UNL     1      -1.813   7.513   6.520  0.00  0.00    -0.392 OA
ATOM     26  H   UNL     1      -1.637   8.581   6.713  0.00  0.00    +0.210 HD
ENDBRANCH  24  25
ENDBRANCH  18  24
ENDBRANCH  14  15
ENDBRANCH  13  14
ENDBRANCH   5  13
BRANCH   1  27
ATOM     27  O   UNL     1       0.002  -0.004   0.002  0.00  0.00    -0.346 OA
BRANCH  27  29
ATOM     28  C   UNL     1      -0.131  -0.807   2.277  0.00  0.00    +0.038 C 
ATOM     29  C   UNL     1       0.769  -0.581   1.061  0.00  0.00    +0.119 C 
BRANCH  29  30
ATOM     30  C   UNL     1       1.349  -1.919   0.600  0.00  0.00    +0.036 C 
BRANCH  30  31
ATOM     31  C   UNL     1       2.345  -1.679  -0.536  0.00  0.00    +0.037 C 
BRANCH  31  32
ATOM     32  C   UNL     1       2.917  -2.997  -0.990  0.00  0.00    -0.047 A 
ATOM     33  C   UNL     1       4.068  -3.489  -0.403  0.00  0.00    +0.007 A 
ATOM     34  C   UNL     1       4.591  -4.700  -0.814  0.00  0.00    +0.045 A 
ATOM     35  C   UNL     1       3.967  -5.417  -1.824  0.00  0.00    +0.117 A 
ATOM     36  C   UNL     1       2.816  -4.918  -2.416  0.00  0.00    +0.045 A 
ATOM     37  C   UNL     1       2.293  -3.710  -1.998  0.00  0.00    +0.007 A 
BRANCH  35  38
ATOM     38  O   UNL     1       4.483  -6.605  -2.234  0.00  0.00    -0.507 OA
ATOM     39  H   UNL     1       3.988  -7.173  -3.036  0.00  0.00    +0.292 HD
ENDBRANCH  35  38
ENDBRANCH  31  32
ENDBRANCH  30  31
ENDBRANCH  29  30
ENDBRANCH  27  29
ENDBRANCH   1  27
TORSDOF 16
