REMARK  Name = ZINC32732753
REMARK  14 active torsions:
REMARK  status: ('A' for Active; 'I' for Inactive)
REMARK    1  A    between atoms: C_1  and  C_2
REMARK    2  A    between atoms: C_2  and  C_3
REMARK    3  A    between atoms: C_6  and  C_9
REMARK    4  A    between atoms: C_9  and  C_11
REMARK    5  A    between atoms: C_9  and  N_31
REMARK    6  A    between atoms: C_11  and  N_12
REMARK    7  A    between atoms: C_13  and  C_15
REMARK    8  A    between atoms: C_15  and  C_17
REMARK    9  A    between atoms: C_15  and  N_20
REMARK   10  A    between atoms: C_17  and  C_18
REMARK   11  A    between atoms: C_17  and  C_19
REMARK   12  A    between atoms: C_21  and  C_23
REMARK   13  A    between atoms: N_31  and  C_32
REMARK   14  A    between atoms: N_31  and  C_33
REMARK                            x       y       z     vdW  Elec       q    Type
REMARK                         _______ _______ _______ _____ _____    ______ ____
ROOT
ATOM      1  N   UNL     1      -3.376   5.758   6.338  0.00  0.00    -0.315 N 
ATOM      2  C   UNL     1      -4.447   6.543   6.105  0.00  0.00    +0.234 C 
ATOM      3  O   UNL     1      -4.873   6.667   4.977  0.00  0.00    -0.274 OA
ATOM      4  H   UNL     1      -2.936   5.713   7.345  0.00  0.00    +0.149 HD
ENDROOT
BRANCH   1   5
ATOM      5  C   UNL     1      -2.800   4.963   5.251  0.00  0.00    +0.093 C 
BRANCH   5   6
ATOM      6  C   UNL     1      -1.689   4.069   5.806  0.00  0.00    -0.021 C 
BRANCH   6  10
ATOM      7  C   UNL     1      -3.337   1.363   8.671  0.00  0.00    -0.048 A 
ATOM      8  C   UNL     1      -3.457   1.097   7.319  0.00  0.00    +0.004 A 
ATOM      9  C   UNL     1      -2.928   1.975   6.392  0.00  0.00    +0.002 A 
ATOM     10  C   UNL     1      -2.270   3.114   6.816  0.00  0.00    -0.059 A 
ATOM     11  C   UNL     1      -2.146   3.378   8.168  0.00  0.00    +0.002 A 
ATOM     12  C   UNL     1      -2.679   2.502   9.095  0.00  0.00    +0.004 A 
BRANCH   7  14
ATOM     13  C   UNL     1      -5.359   0.814   9.996  0.00  0.00    +0.009 C 
ATOM     14  C   UNL     1      -3.918   0.408   9.681  0.00  0.00    +0.032 C 
ENDBRANCH   7  14
ENDBRANCH   6  10
BRANCH   6  15
ATOM     15  N   UNL     1      -1.078   3.308   4.708  0.00  0.00    +0.382 N 
ATOM     16  C   UNL     1      -0.564   4.207   3.666  0.00  0.00    -0.096 C 
ATOM     17  C   UNL     1      -0.019   2.421   5.207  0.00  0.00    -0.096 C 
ATOM     18  H   UNL     1      -1.860   2.680   4.256  0.00  0.00    -0.082 HD
ENDBRANCH   6  15
ENDBRANCH   5   6
ENDBRANCH   1   5
BRANCH   2  19
ATOM     19  C   UNL     1      -5.113   7.266   7.247  0.00  0.00    +0.162 C 
BRANCH  19  20
ATOM     20  N   UNL     1      -5.965   8.334   6.717  0.00  0.00    -0.300 N 
ATOM     21  C   UNL     1      -6.256   9.405   7.481  0.00  0.00    +0.250 C 
ATOM     22  O   UNL     1      -5.812   9.486   8.610  0.00  0.00    -0.270 OA
ATOM     23  H   UNL     1      -6.367   8.261   5.696  0.00  0.00    +0.150 HD
BRANCH  21  24
ATOM     24  C   UNL     1      -7.114  10.481   6.947  0.00  0.00    +0.107 A 
ATOM     25  C   UNL     1      -8.502  10.421   7.114  0.00  0.00    +0.138 A 
ATOM     26  C   UNL     1      -9.298  11.435   6.616  0.00  0.00    +0.039 A 
ATOM     27  C   UNL     1      -8.727  12.501   5.945  0.00  0.00    +0.006 A 
ATOM     28  C   UNL     1      -7.357  12.566   5.771  0.00  0.00    +0.039 A 
ATOM     29  C   UNL     1      -6.546  11.563   6.267  0.00  0.00    +0.138 A 
ATOM     30  F   UNL     1      -5.207  11.627   6.096  0.00  0.00    -0.205 F 
ATOM     31  F   UNL     1      -9.062   9.377   7.764  0.00  0.00    -0.205 F 
ENDBRANCH  21  24
ENDBRANCH  19  20
BRANCH  19  32
ATOM     32  C   UNL     1      -5.968   6.281   8.046  0.00  0.00    +0.012 C 
ATOM     33  C   UNL     1      -6.577   6.996   9.253  0.00  0.00    +0.009 C 
ATOM     34  C   UNL     1      -7.088   5.739   7.155  0.00  0.00    +0.009 C 
ENDBRANCH  19  32
ENDBRANCH   2  19
TORSDOF 9
