REMARK  Name = ZINC15946022
REMARK  14 active torsions:
REMARK  status: ('A' for Active; 'I' for Inactive)
REMARK    1  A    between atoms: C_1  and  C_2
REMARK    2  A    between atoms: C_7  and  C_8
REMARK    3  A    between atoms: C_7  and  N_78
REMARK    4  A    between atoms: N_10  and  C_11
REMARK    5  A    between atoms: C_12  and  C_25
REMARK    6  A    between atoms: C_17  and  C_21
REMARK    7  A    between atoms: C_21  and  C_22
REMARK    8  A    between atoms: C_21  and  C_23
REMARK    9  A    between atoms: C_21  and  C_24
REMARK   10  A    between atoms: N_27  and  C_28
REMARK   11  A    between atoms: C_31  and  O_36
REMARK   12  A    between atoms: C_33  and  O_34
REMARK   13  A    between atoms: O_34  and  C_35
REMARK   14  A    between atoms: O_36  and  C_37
REMARK                            x       y       z     vdW  Elec       q    Type
REMARK                         _______ _______ _______ _____ _____    ______ ____
ROOT
ATOM      1  C   UNL     1      -4.134   2.551  -1.408  0.00  0.00    +0.084 A 
ATOM      2  C   UNL     1      -3.607   2.183  -0.178  0.00  0.00    +0.069 A 
ATOM      3  C   UNL     1      -4.329   2.596   1.013  0.00  0.00    -0.023 A 
ATOM      4  C   UNL     1      -5.457   3.304   0.786  0.00  0.00    -0.004 A 
ATOM      5  S   UNL     1      -5.568   3.423  -0.977  0.00  0.00    -0.077 S 
ATOM      6  C   UNL     1      -6.397   3.859   1.811  0.00  0.00    +0.046 C 
ATOM      7  C   UNL     1      -5.695   3.829   3.176  0.00  0.00    -0.000 C 
ATOM      8  C   UNL     1      -5.066   2.448   3.379  0.00  0.00    +0.009 C 
ATOM      9  C   UNL     1      -3.877   2.274   2.432  0.00  0.00    +0.037 C 
ENDROOT
BRANCH   1  12
ATOM     10  C   UNL     1      -4.291   2.729  -3.764  0.00  0.00    +0.201 C 
ATOM     11  O   UNL     1      -5.318   3.362  -3.638  0.00  0.00    -0.278 OA
ATOM     12  N   UNL     1      -3.635   2.285  -2.674  0.00  0.00    -0.281 N 
ATOM     13  H   UNL     1      -2.814   1.778  -2.775  0.00  0.00    +0.155 HD
BRANCH  10  14
ATOM     14  C   UNL     1      -3.749   2.439  -5.140  0.00  0.00    +0.019 C 
BRANCH  14  21
ATOM     15  C   UNL     1      -7.032   4.185  -9.482  0.00  0.00    +0.007 C 
ATOM     16  C   UNL     1      -6.183   3.326  -8.541  0.00  0.00    -0.018 C 
ATOM     17  C   UNL     1      -6.812   3.322  -7.145  0.00  0.00    -0.016 C 
ATOM     18  C   UNL     1      -5.927   2.512  -6.195  0.00  0.00    -0.078 C 
ATOM     19  C   UNL     1      -3.943   3.079  -7.467  0.00  0.00    -0.078 C 
ATOM     20  C   UNL     1      -4.769   3.906  -8.455  0.00  0.00    -0.016 C 
ATOM     21  N   UNL     1      -4.588   3.136  -6.137  0.00  0.00    +0.385 N 
ATOM     22  H   UNL     1      -4.690   4.119  -5.859  0.00  0.00    -0.081 HD
ENDBRANCH  14  21
ENDBRANCH  10  14
ENDBRANCH   1  12
BRANCH   7  23
ATOM     23  C   UNL     1      -6.717   4.095   4.284  0.00  0.00    -0.035 C 
ATOM     24  C   UNL     1      -6.019   4.048   5.644  0.00  0.00    +0.011 C 
ATOM     25  C   UNL     1      -7.344   5.475   4.080  0.00  0.00    +0.011 C 
ATOM     26  C   UNL     1      -7.811   3.026   4.235  0.00  0.00    +0.011 C 
ENDBRANCH   7  23
BRANCH   2  27
ATOM     27  C   UNL     1      -2.365   1.409  -0.084  0.00  0.00    +0.251 C 
ATOM     28  O   UNL     1      -2.405   0.193  -0.071  0.00  0.00    -0.270 OA
ATOM     29  N   UNL     1      -1.179   2.045  -0.013  0.00  0.00    -0.278 N 
ATOM     30  H   UNL     1      -1.150   3.012   0.057  0.00  0.00    +0.155 HD
BRANCH  29  31
ATOM     31  C   UNL     1       0.015   1.309  -0.040  0.00  0.00    +0.076 A 
ATOM     32  C   UNL     1       0.043   0.053  -0.627  0.00  0.00    +0.030 A 
ATOM     33  C   UNL     1       1.220  -0.671  -0.658  0.00  0.00    +0.047 A 
ATOM     34  C   UNL     1       2.376  -0.142  -0.102  0.00  0.00    +0.124 A 
ATOM     35  C   UNL     1       2.353   1.113   0.486  0.00  0.00    +0.093 A 
ATOM     36  C   UNL     1       1.175   1.841   0.519  0.00  0.00    +0.145 A 
BRANCH  36  37
ATOM     37  O   UNL     1       1.150   3.072   1.096  0.00  0.00    -0.493 OA
ATOM     38  C   UNL     1       2.377   3.554   1.648  0.00  0.00    +0.277 C 
ENDBRANCH  36  37
BRANCH  34  39
ATOM     39  O   UNL     1       3.533  -0.856  -0.134  0.00  0.00    -0.495 OA
ATOM     40  C   UNL     1       3.484  -2.142  -0.756  0.00  0.00    +0.277 C 
ENDBRANCH  34  39
ENDBRANCH  29  31
ENDBRANCH   2  27
TORSDOF 8
