REMARK  Name = ZINC67612887
REMARK  11 active torsions:
REMARK  status: ('A' for Active; 'I' for Inactive)
REMARK    1  A    between atoms: C_1  and  C_2
REMARK    2  A    between atoms: C_7  and  C_9
REMARK    3  A    between atoms: C_7  and  N_29
REMARK    4  A    between atoms: C_9  and  N_10
REMARK    5  A    between atoms: C_11  and  C_13
REMARK    6  A    between atoms: C_13  and  C_14
REMARK    7  A    between atoms: C_14  and  C_15
REMARK    8  A    between atoms: C_15  and  C_16
REMARK    9  A    between atoms: C_16  and  C_17
REMARK   10  A    between atoms: N_29  and  C_30
REMARK   11  A    between atoms: N_29  and  C_31
REMARK                            x       y       z     vdW  Elec       q    Type
REMARK                         _______ _______ _______ _____ _____    ______ ____
ROOT
ATOM      1  N   UNL     1       1.867  -4.013   0.111  0.00  0.00    -0.317 N 
ATOM      2  C   UNL     1       2.682  -4.581  -0.800  0.00  0.00    +0.213 C 
ATOM      3  O   UNL     1       3.382  -3.885  -1.505  0.00  0.00    -0.276 OA
ATOM      4  H   UNL     1       1.308  -4.569   0.675  0.00  0.00    +0.149 HD
ENDROOT
BRANCH   1   5
ATOM      5  C   UNL     1       1.826  -2.555   0.249  0.00  0.00    +0.092 C 
BRANCH   5  11
ATOM      6  C   UNL     1       3.110  -2.683   4.380  0.00  0.00    +0.007 C 
ATOM      7  C   UNL     1       2.646  -2.132   3.030  0.00  0.00    -0.015 C 
ATOM      8  C   UNL     1       2.536  -0.608   3.111  0.00  0.00    +0.003 C 
ATOM      9  C   UNL     1       2.072  -0.058   1.761  0.00  0.00    -0.001 C 
ATOM     10  C   UNL     1       0.705  -0.649   1.412  0.00  0.00    -0.010 C 
ATOM     11  C   UNL     1       0.814  -2.173   1.331  0.00  0.00    -0.050 C 
ATOM     12  C   UNL     1       1.278  -2.724   2.681  0.00  0.00    -0.007 C 
BRANCH  11  13
ATOM     13  N   UNL     1      -0.499  -2.741   0.996  0.00  0.00    +0.381 N 
ATOM     14  C   UNL     1      -1.488  -2.311   1.993  0.00  0.00    -0.096 C 
ATOM     15  C   UNL     1      -0.910  -2.273  -0.335  0.00  0.00    -0.096 C 
ATOM     16  H   UNL     1      -0.439  -3.749   0.994  0.00  0.00    -0.082 HD
ENDBRANCH  11  13
ENDBRANCH   5  11
ENDBRANCH   1   5
BRANCH   2  17
ATOM     17  C   UNL     1       2.724  -6.081  -0.942  0.00  0.00    +0.096 C 
BRANCH  17  18
ATOM     18  C   UNL     1       3.722  -6.461  -2.037  0.00  0.00    +0.009 C 
BRANCH  18  19
ATOM     19  C   UNL     1       3.765  -7.984  -2.181  0.00  0.00    +0.002 C 
BRANCH  19  20
ATOM     20  C   UNL     1       4.763  -8.365  -3.276  0.00  0.00    +0.016 C 
BRANCH  20  21
ATOM     21  C   UNL     1       4.806  -9.887  -3.420  0.00  0.00    +0.069 C 
ATOM     22  C   UNL     1       5.804 -10.307  -4.469  0.00  0.00    +0.108 C 
ATOM     23  C   UNL     1       5.362 -11.686  -5.051  0.00  0.00    +0.105 C 
ATOM     24  C   UNL     1       3.964 -11.457  -5.620  0.00  0.00    +0.093 C 
ATOM     25  S   UNL     1       3.236 -10.534  -4.162  0.00  0.00    -0.154 S 
ATOM     26  N   UNL     1       6.494 -11.949  -5.911  0.00  0.00    -0.294 N 
ATOM     27  C   UNL     1       7.569 -11.388  -5.281  0.00  0.00    +0.300 C 
ATOM     28  O   UNL     1       8.724 -11.621  -5.582  0.00  0.00    -0.253 OA
ATOM     29  N   UNL     1       7.202 -10.553  -4.271  0.00  0.00    -0.294 N 
ATOM     30  H   UNL     1       6.491 -12.424  -6.757  0.00  0.00    +0.151 HD
ATOM     31  H   UNL     1       7.770 -10.196  -3.571  0.00  0.00    +0.151 HD
ENDBRANCH  20  21
ENDBRANCH  19  20
ENDBRANCH  18  19
ENDBRANCH  17  18
ENDBRANCH   2  17
TORSDOF 8
