REMARK  Name = ZINC12235164
REMARK  7 active torsions:
REMARK  status: ('A' for Active; 'I' for Inactive)
REMARK    1  A    between atoms: C_1  and  C_2
REMARK    2  A    between atoms: C_5  and  N_8
REMARK    3  A    between atoms: N_21  and  C_22
REMARK    4  A    between atoms: C_24  and  C_29
REMARK    5  A    between atoms: C_24  and  C_30
REMARK    6  A    between atoms: C_25  and  C_27
REMARK    7  A    between atoms: C_25  and  C_28
REMARK                            x       y       z     vdW  Elec       q    Type
REMARK                         _______ _______ _______ _____ _____    ______ ____
ROOT
ATOM      1  N   UNL     1      -4.318   6.467   4.053  0.00  0.00    -0.283 N 
ATOM      2  C   UNL     1      -3.339   5.494   4.085  0.00  0.00    +0.225 A 
ATOM      3  N   UNL     1      -3.676   4.215   4.225  0.00  0.00    -0.181 NA
ATOM      4  C   UNL     1      -2.734   3.278   4.255  0.00  0.00    +0.221 A 
ATOM      5  N   UNL     1      -1.454   3.619   4.141  0.00  0.00    -0.181 NA
ATOM      6  C   UNL     1      -1.116   4.898   4.006  0.00  0.00    +0.224 A 
ATOM      7  N   UNL     1      -2.059   5.835   3.975  0.00  0.00    -0.181 NA
ATOM      8  N   UNL     1       0.213   5.252   3.892  0.00  0.00    -0.295 N 
ATOM      9  C   UNL     1       0.851   4.548   2.770  0.00  0.00    +0.136 C 
ATOM     10  C   UNL     1       2.334   4.925   2.716  0.00  0.00    +0.179 C 
ATOM     11  O   UNL     1       2.458   6.345   2.606  0.00  0.00    -0.377 OA
ATOM     12  C   UNL     1       1.848   7.061   3.684  0.00  0.00    +0.179 C 
ATOM     13  C   UNL     1       0.360   6.707   3.747  0.00  0.00    +0.136 C 
ATOM     14  N   UNL     1      -3.084   1.952   4.401  0.00  0.00    -0.311 N 
ATOM     15  H   UNL     1      -4.070   7.405   4.040  0.00  0.00    +0.155 HD
ATOM     16  H   UNL     1      -4.019   1.701   4.464  0.00  0.00    +0.149 HD
ENDROOT
BRANCH  14  17
ATOM     17  C   UNL     1      -2.042   0.919   4.458  0.00  0.00    +0.071 C 
ATOM     18  C   UNL     1      -2.642  -0.426   4.049  0.00  0.00    +0.009 C 
ATOM     19  C   UNL     1      -1.584  -1.524   4.120  0.00  0.00    -0.072 C 
ATOM     20  C   UNL     1      -0.456  -0.280   5.988  0.00  0.00    -0.072 C 
ATOM     21  C   UNL     1      -1.527   0.804   5.893  0.00  0.00    +0.009 C 
ATOM     22  C   UNL     1       0.854   0.238   5.383  0.00  0.00    -0.010 C 
ATOM     23  C   UNL     1      -0.194  -0.544   7.487  0.00  0.00    -0.010 C 
ATOM     24  C   UNL     1      -0.629  -1.393   2.927  0.00  0.00    -0.010 C 
ATOM     25  C   UNL     1      -2.310  -2.880   3.978  0.00  0.00    -0.010 C 
ATOM     26  N   UNL     1      -0.841  -1.595   5.407  0.00  0.00    +0.386 N 
ATOM     27  H   UNL     1       0.017  -2.136   5.249  0.00  0.00    -0.084 HD
ATOM     28  H   UNL     1      -1.433  -2.083   6.089  0.00  0.00    -0.084 HD
ENDBRANCH  14  17
BRANCH   1  33
ATOM     29  C   UNL     1      -9.793   4.983   4.002  0.00  0.00    +0.044 C 
ATOM     30  C   UNL     1      -8.338   5.377   4.015  0.00  0.00    -0.050 A 
ATOM     31  C   UNL     1      -7.934   6.542   3.389  0.00  0.00    +0.005 A 
ATOM     32  C   UNL     1      -6.601   6.906   3.400  0.00  0.00    +0.023 A 
ATOM     33  C   UNL     1      -5.668   6.101   4.040  0.00  0.00    +0.034 A 
ATOM     34  C   UNL     1      -6.077   4.929   4.663  0.00  0.00    +0.023 A 
ATOM     35  C   UNL     1      -7.412   4.573   4.654  0.00  0.00    +0.005 A 
ENDBRANCH   1  33
TORSDOF 2
