REMARK  Name = ZINC38789988
REMARK  10 active torsions:
REMARK  status: ('A' for Active; 'I' for Inactive)
REMARK    1  A    between atoms: C_1  and  C_2
REMARK    2  A    between atoms: C_9  and  C_14
REMARK    3  A    between atoms: C_14  and  N_15
REMARK    4  A    between atoms: N_15  and  C_16
REMARK    5  A    between atoms: C_19  and  N_22
REMARK    6  A    between atoms: N_22  and  C_23
REMARK    7  A    between atoms: N_22  and  C_26
REMARK    8  A    between atoms: C_23  and  C_24
REMARK    9  A    between atoms: C_24  and  O_25
REMARK   10  A    between atoms: C_26  and  C_27
REMARK                            x       y       z     vdW  Elec       q    Type
REMARK                         _______ _______ _______ _____ _____    ______ ____
ROOT
ATOM      1  C   UNL     1      -2.019  -7.082   3.772  0.00  0.00    +0.027 A 
ATOM      2  C   UNL     1      -3.147  -6.429   4.250  0.00  0.00    +0.025 A 
ATOM      3  C   UNL     1      -4.137  -7.144   4.894  0.00  0.00    +0.025 A 
ATOM      4  C   UNL     1      -4.005  -8.516   5.064  0.00  0.00    +0.030 A 
ATOM      5  C   UNL     1      -2.876  -9.169   4.586  0.00  0.00    +0.025 A 
ATOM      6  C   UNL     1      -1.889  -8.454   3.937  0.00  0.00    +0.025 A 
ENDROOT
BRANCH   1   7
ATOM      7  N   UNL     1      -1.014  -6.357   3.119  0.00  0.00    -0.343 N 
ATOM      8  H   UNL     1      -0.228  -6.814   2.782  0.00  0.00    +0.146 HD
BRANCH   7   9
ATOM      9  C   UNL     1      -1.152  -4.909   2.945  0.00  0.00    +0.118 C 
BRANCH   9  18
ATOM     10  C   UNL     1      -0.018   1.503   0.010  0.00  0.00    +0.044 C 
ATOM     11  C   UNL     1       0.002  -0.004   0.002  0.00  0.00    -0.050 A 
ATOM     12  C   UNL     1       0.005  -0.680  -1.218  0.00  0.00    +0.005 A 
ATOM     13  C   UNL     1       0.024  -2.036  -1.305  0.00  0.00    +0.024 A 
ATOM     14  C   UNL     1       0.041  -2.826  -0.141  0.00  0.00    +0.040 A 
ATOM     15  N   UNL     1       0.059  -4.155  -0.238  0.00  0.00    -0.284 N 
ATOM     16  C   UNL     1       0.075  -4.956   0.815  0.00  0.00    +0.226 C 
ATOM     17  O   UNL     1       0.092  -6.163   0.663  0.00  0.00    -0.275 OA
ATOM     18  C   UNL     1       0.073  -4.365   2.207  0.00  0.00    +0.115 C 
ATOM     19  C   UNL     1       0.053  -2.854   2.322  0.00  0.00    -0.003 C 
ATOM     20  C   UNL     1       0.037  -2.138   1.162  0.00  0.00    -0.007 A 
ATOM     21  C   UNL     1       0.022  -0.675   1.183  0.00  0.00    +0.012 A 
ATOM     22  H   UNL     1       0.061  -4.554  -1.122  0.00  0.00    +0.155 HD
ENDBRANCH   9  18
ENDBRANCH   7   9
ENDBRANCH   1   7
BRANCH   4  23
ATOM     23  N   UNL     1      -5.008  -9.240   5.718  0.00  0.00    -0.323 N 
BRANCH  23  24
ATOM     24  C   UNL     1      -6.199  -8.552   6.223  0.00  0.00    +0.133 C 
BRANCH  24  25
ATOM     25  C   UNL     1      -7.276  -8.532   5.137  0.00  0.00    +0.174 C 
BRANCH  25  26
ATOM     26  O   UNL     1      -7.700  -9.869   4.863  0.00  0.00    -0.393 OA
ATOM     27  H   UNL     1      -8.384  -9.932   4.182  0.00  0.00    +0.209 HD
ENDBRANCH  25  26
ENDBRANCH  24  25
ENDBRANCH  23  24
BRANCH  23  28
ATOM     28  C   UNL     1      -4.868 -10.688   5.897  0.00  0.00    +0.140 C 
BRANCH  28  29
ATOM     29  C   UNL     1      -4.167 -10.967   7.201  0.00  0.00    -0.030 A 
ATOM     30  C   UNL     1      -2.788 -11.057   7.239  0.00  0.00    +0.005 A 
ATOM     31  C   UNL     1      -2.145 -11.313   8.436  0.00  0.00    +0.000 A 
ATOM     32  C   UNL     1      -2.881 -11.479   9.595  0.00  0.00    +0.000 A 
ATOM     33  C   UNL     1      -4.260 -11.388   9.556  0.00  0.00    +0.000 A 
ATOM     34  C   UNL     1      -4.903 -11.128   8.361  0.00  0.00    +0.005 A 
ENDBRANCH  28  29
ENDBRANCH  23  28
ENDBRANCH   4  23
TORSDOF 9
