REMARK  Name = ZINC06606196
REMARK  9 active torsions:
REMARK  status: ('A' for Active; 'I' for Inactive)
REMARK    1  A    between atoms: C_1  and  C_2
REMARK    2  A    between atoms: C_5  and  N_9
REMARK    3  A    between atoms: C_6  and  C_8
REMARK    4  A    between atoms: C_13  and  C_15
REMARK    5  A    between atoms: C_15  and  N_51
REMARK    6  A    between atoms: C_16  and  N_51
REMARK    7  A    between atoms: C_17  and  C_18
REMARK    8  A    between atoms: C_17  and  N_51
REMARK    9  A    between atoms: N_20  and  C_21
REMARK                            x       y       z     vdW  Elec       q    Type
REMARK                         _______ _______ _______ _____ _____    ______ ____
ROOT
ATOM      1  N   UNL     1       8.175   2.182   1.164  0.00  0.00    -0.269 N 
ATOM      2  C   UNL     1       7.008   1.561   0.902  0.00  0.00    +0.310 C 
ATOM      3  O   UNL     1       6.967   0.348   0.837  0.00  0.00    -0.252 OA
ATOM      4  N   UNL     1       5.888   2.285   0.712  0.00  0.00    -0.241 N 
ATOM      5  C   UNL     1       4.721   1.663   0.449  0.00  0.00    +0.204 C 
ATOM      6  O   UNL     1       4.679   0.454   0.385  0.00  0.00    -0.277 OA
ATOM      7  H   UNL     1       8.198   3.145   1.274  0.00  0.00    +0.156 HD
ATOM      8  H   UNL     1       5.921   3.253   0.763  0.00  0.00    +0.159 HD
ENDROOT
BRANCH   1  13
ATOM      9  C   UNL     1      12.955  -0.839   1.627  0.00  0.00    +0.044 C 
ATOM     10  C   UNL     1      11.685  -0.036   1.505  0.00  0.00    -0.050 A 
ATOM     11  C   UNL     1      10.464  -0.633   1.763  0.00  0.00    +0.005 A 
ATOM     12  C   UNL     1       9.299   0.100   1.651  0.00  0.00    +0.024 A 
ATOM     13  C   UNL     1       9.354   1.437   1.279  0.00  0.00    +0.038 A 
ATOM     14  C   UNL     1      10.581   2.031   1.015  0.00  0.00    -0.029 A 
ATOM     15  C   UNL     1      11.743   1.294   1.134  0.00  0.00    +0.008 A 
ATOM     16  C   UNL     1      10.645   3.480   0.605  0.00  0.00    +0.045 C 
ENDBRANCH   1  13
BRANCH   5  17
ATOM     17  C   UNL     1       3.467   2.473   0.236  0.00  0.00    +0.019 C 
BRANCH  17  19
ATOM     18  C   UNL     1       2.522   0.864  -1.307  0.00  0.00    -0.095 C 
ATOM     19  N   UNL     1       2.340   1.550  -0.010  0.00  0.00    +0.389 N 
ATOM     20  H   UNL     1       2.314   0.847   0.738  0.00  0.00    -0.081 HD
BRANCH  19  21
ATOM     21  C   UNL     1       1.065   2.298  -0.009  0.00  0.00    +0.019 C 
BRANCH  21  22
ATOM     22  C   UNL     1      -0.076   1.314  -0.041  0.00  0.00    +0.201 C 
ATOM     23  O   UNL     1       0.151   0.123  -0.078  0.00  0.00    -0.278 OA
ATOM     24  N   UNL     1      -1.349   1.757  -0.034  0.00  0.00    -0.286 N 
ATOM     25  H   UNL     1      -1.531   2.706   0.055  0.00  0.00    +0.155 HD
BRANCH  24  26
ATOM     26  C   UNL     1      -2.407   0.849  -0.154  0.00  0.00    +0.052 A 
ATOM     27  C   UNL     1      -2.239  -0.472   0.240  0.00  0.00    +0.025 A 
ATOM     28  C   UNL     1      -3.287  -1.364   0.125  0.00  0.00    +0.002 A 
ATOM     29  C   UNL     1      -4.500  -0.947  -0.392  0.00  0.00    +0.002 A 
ATOM     30  C   UNL     1      -4.670   0.366  -0.790  0.00  0.00    +0.022 A 
ATOM     31  C   UNL     1      -3.627   1.266  -0.673  0.00  0.00    +0.062 A 
ATOM     32 CL   UNL     1      -3.841   2.914  -1.174  0.00  0.00    -0.082 Cl
ENDBRANCH  24  26
ENDBRANCH  21  22
ENDBRANCH  19  21
ENDBRANCH  17  19
ENDBRANCH   5  17
TORSDOF 6
