REMARK  Name = ZINC12002867
REMARK  9 active torsions:
REMARK  status: ('A' for Active; 'I' for Inactive)
REMARK    1  A    between atoms: C_1  and  O_2
REMARK    2  A    between atoms: O_2  and  C_3
REMARK    3  A    between atoms: C_8  and  C_9
REMARK    4  A    between atoms: C_9  and  N_10
REMARK    5  A    between atoms: C_11  and  C_13
REMARK    6  A    between atoms: C_16  and  S_31
REMARK    7  A    between atoms: C_19  and  C_20
REMARK    8  A    between atoms: C_19  and  N_64
REMARK    9  A    between atoms: S_31  and  C_32
REMARK                            x       y       z     vdW  Elec       q    Type
REMARK                         _______ _______ _______ _____ _____    ______ ____
ROOT
ATOM      1  C   UNL     1       6.715   4.712   1.416  0.00  0.00    +0.021 C 
ATOM      2  C   UNL     1       6.769   5.600   2.678  0.00  0.00    +0.006 C 
ATOM      3  C   UNL     1       5.320   6.086   2.888  0.00  0.00    +0.034 C 
ATOM      4  C   UNL     1       4.512   5.450   1.736  0.00  0.00    -0.063 C 
ATOM      5  N   UNL     1       5.319   4.285   1.356  0.00  0.00    +0.391 N 
ATOM      6  H   UNL     1       5.158   3.516   2.017  0.00  0.00    -0.080 HD
ENDROOT
BRANCH   1   8
ATOM      7  N   UNL     1       8.970   3.725   1.652  0.00  0.00    -0.312 N 
ATOM      8  C   UNL     1       7.640   3.531   1.564  0.00  0.00    +0.200 C 
ATOM      9  O   UNL     1       7.186   2.407   1.604  0.00  0.00    -0.278 OA
ATOM     10  H   UNL     1       9.333   4.624   1.620  0.00  0.00    +0.149 HD
BRANCH   7  11
ATOM     11  C   UNL     1       9.870   2.577   1.796  0.00  0.00    +0.143 C 
BRANCH  11  17
ATOM     12  C   UNL     1      11.796   3.560   3.066  0.00  0.00    +0.125 A 
ATOM     13  C   UNL     1      13.108   4.005   3.133  0.00  0.00    +0.046 A 
ATOM     14  C   UNL     1      13.912   3.951   2.011  0.00  0.00    +0.004 A 
ATOM     15  C   UNL     1      13.411   3.454   0.822  0.00  0.00    +0.001 A 
ATOM     16  C   UNL     1      12.105   3.006   0.754  0.00  0.00    +0.009 A 
ATOM     17  C   UNL     1      11.295   3.062   1.872  0.00  0.00    +0.011 A 
BRANCH  12  19
ATOM     18  C   UNL     1      11.585   4.136   5.363  0.00  0.00    +0.277 C 
ATOM     19  O   UNL     1      11.002   3.611   4.168  0.00  0.00    -0.495 OA
ENDBRANCH  12  19
ENDBRANCH  11  17
ENDBRANCH   7  11
ENDBRANCH   1   8
BRANCH   5  20
ATOM     20  C   UNL     1       4.961   3.829  -0.024  0.00  0.00    -0.035 C 
BRANCH  20  21
ATOM     21  C   UNL     1       3.615   3.151  -0.016  0.00  0.00    +0.018 A 
ATOM     22  C   UNL     1       3.534   1.808  -0.022  0.00  0.00    +0.201 A 
ATOM     23  O   UNL     1       2.370   1.151  -0.015  0.00  0.00    -0.462 OA
ATOM     24  C   UNL     1       1.181   1.788   0.000  0.00  0.00    +0.138 A 
ATOM     25  C   UNL     1      -0.013   1.076   0.008  0.00  0.00    +0.047 A 
ATOM     26  C   UNL     1      -1.215   1.750   0.017  0.00  0.00    +0.004 A 
ATOM     27  C   UNL     1      -1.250   3.137   0.030  0.00  0.00    +0.001 A 
ATOM     28  C   UNL     1      -0.078   3.862   0.023  0.00  0.00    +0.015 A 
ATOM     29  C   UNL     1       1.144   3.192   0.008  0.00  0.00    +0.064 A 
ATOM     30  C   UNL     1       2.425   3.925   0.000  0.00  0.00    +0.194 A 
ATOM     31  O   UNL     1       2.459   5.144   0.006  0.00  0.00    -0.287 OA
ENDBRANCH  20  21
ENDBRANCH   5  20
BRANCH   3  32
ATOM     32  S   UNL     1       5.243   7.896   2.793  0.00  0.00    -0.124 S 
BRANCH  32  33
ATOM     33  C   UNL     1       3.570   8.273   3.198  0.00  0.00    +0.008 A 
ATOM     34  C   UNL     1       2.676   7.249   3.487  0.00  0.00    +0.017 A 
ATOM     35  C   UNL     1       1.367   7.547   3.811  0.00  0.00    +0.039 A 
ATOM     36  C   UNL     1       0.942   8.865   3.836  0.00  0.00    +0.123 A 
ATOM     37  C   UNL     1       1.829   9.887   3.542  0.00  0.00    +0.039 A 
ATOM     38  C   UNL     1       3.141   9.594   3.224  0.00  0.00    +0.017 A 
ATOM     39  F   UNL     1      -0.340   9.154   4.146  0.00  0.00    -0.205 F 
ENDBRANCH  32  33
ENDBRANCH   3  32
TORSDOF 8
