REMARK  Name = ZINC48845596
REMARK  9 active torsions:
REMARK  status: ('A' for Active; 'I' for Inactive)
REMARK    1  A    between atoms: C_1  and  C_2
REMARK    2  A    between atoms: C_2  and  C_3
REMARK    3  A    between atoms: C_2  and  C_10
REMARK    4  A    between atoms: C_2  and  N_13
REMARK    5  A    between atoms: N_13  and  C_14
REMARK    6  A    between atoms: C_14  and  C_15
REMARK    7  A    between atoms: C_15  and  C_16
REMARK    8  A    between atoms: C_16  and  N_17
REMARK    9  A    between atoms: N_17  and  C_18
REMARK                            x       y       z     vdW  Elec       q    Type
REMARK                         _______ _______ _______ _____ _____    ______ ____
ROOT
ATOM      1  C   UNL     1       0.094   1.436  -0.275  0.00  0.00    +0.006 C 
ATOM      2  C   UNL     1      -0.003  -0.074  -0.047  0.00  0.00    +0.058 C 
ENDROOT
BRANCH   2   3
ATOM      3  C   UNL     1       0.594  -0.419   1.293  0.00  0.00    -0.047 A 
ATOM      4  C   UNL     1      -0.182  -1.035   2.258  0.00  0.00    +0.003 A 
ATOM      5  C   UNL     1       0.365  -1.351   3.487  0.00  0.00    +0.001 A 
ATOM      6  C   UNL     1       1.688  -1.053   3.752  0.00  0.00    +0.015 A 
ATOM      7  C   UNL     1       2.465  -0.438   2.788  0.00  0.00    +0.018 A 
ATOM      8  C   UNL     1       1.919  -0.126   1.556  0.00  0.00    +0.018 A 
ATOM      9 BR   UNL     1       4.275  -0.029   3.151  0.00  0.00    -0.050 Br
ENDBRANCH   2   3
BRANCH   2  10
ATOM     10  C   UNL     1       0.753  -0.795  -1.134  0.00  0.00    +0.349 C 
ATOM     11  O   UNL     1       1.907  -0.490  -1.380  0.00  0.00    -0.248 OA
ATOM     12  O   UNL     1       0.209  -1.684  -1.767  0.00  0.00    -0.248 OA
ENDBRANCH   2  10
BRANCH   2  13
ATOM     13  N   UNL     1      -1.413  -0.485  -0.075  0.00  0.00    +0.392 N 
ATOM     14  H   UNL     1      -1.471  -1.491  -0.025  0.00  0.00    -0.084 HD
ATOM     15  H   UNL     1      -1.897  -0.080   0.712  0.00  0.00    -0.084 HD
BRANCH  13  16
ATOM     16  C   UNL     1      -2.033  -0.020  -1.323  0.00  0.00    -0.082 C 
BRANCH  16  17
ATOM     17  C   UNL     1      -3.511  -0.414  -1.336  0.00  0.00    -0.038 C 
BRANCH  17  18
ATOM     18  C   UNL     1      -4.157   0.070  -2.635  0.00  0.00    -0.084 C 
BRANCH  18  19
ATOM     19  N   UNL     1      -5.577  -0.308  -2.647  0.00  0.00    +0.381 N 
ATOM     20  H   UNL     1      -5.658  -1.312  -2.585  0.00  0.00    -0.086 HD
ATOM     21  H   UNL     1      -6.044   0.117  -1.861  0.00  0.00    -0.086 HD
BRANCH  19  22
ATOM     22  C   UNL     1      -6.197   0.156  -3.895  0.00  0.00    -0.072 C 
ATOM     23  C   UNL     1      -7.308   1.202  -3.785  0.00  0.00    -0.017 C 
ATOM     24  C   UNL     1      -7.651  -0.243  -4.153  0.00  0.00    -0.017 C 
ENDBRANCH  19  22
ENDBRANCH  18  19
ENDBRANCH  17  18
ENDBRANCH  16  17
ENDBRANCH  13  16
ENDBRANCH   2  13
TORSDOF 8
