REMARK  Name = ZINC55503093
REMARK  5 active torsions:
REMARK  status: ('A' for Active; 'I' for Inactive)
REMARK    1  A    between atoms: C_1  and  C_2
REMARK    2  A    between atoms: C_5  and  N_9
REMARK    3  A    between atoms: C_6  and  C_8
REMARK    4  A    between atoms: C_10  and  C_12
REMARK    5  A    between atoms: C_13  and  C_29
REMARK                            x       y       z     vdW  Elec       q    Type
REMARK                         _______ _______ _______ _____ _____    ______ ____
ROOT
ATOM      1  C   UNL     1      -0.131  -6.300  -1.187  0.00  0.00    +0.080 A 
ATOM      2  C   UNL     1      -0.231  -7.148  -2.252  0.00  0.00    -0.017 A 
ATOM      3  C   UNL     1      -0.304  -8.519  -1.974  0.00  0.00    +0.069 A 
ATOM      4  C   UNL     1      -0.417  -9.650  -2.926  0.00  0.00    +0.252 C 
ATOM      5  O   UNL     1      -0.456  -9.444  -4.125  0.00  0.00    -0.270 OA
ATOM      6  N   UNL     1      -0.474 -10.906  -2.450  0.00  0.00    -0.267 N 
ATOM      7  H   UNL     1      -0.548 -11.645  -3.074  0.00  0.00    +0.156 HD
ATOM      8  C   UNL     1      -0.432 -11.165  -1.121  0.00  0.00    +0.142 C 
ATOM      9  N   UNL     1      -0.331 -10.170  -0.216  0.00  0.00    -0.294 N 
ATOM     10  C   UNL     1      -0.266  -8.867  -0.615  0.00  0.00    +0.084 A 
ATOM     11  S   UNL     1      -0.132  -7.415   0.202  0.00  0.00    -0.068 S 
ATOM     12  C   UNL     1      -0.498 -12.550  -0.658  0.00  0.00    +0.210 C 
ATOM     13  N   UNL     1      -0.468 -12.965   0.617  0.00  0.00    -0.213 NA
ATOM     14  H   UNL     1      -0.704 -15.592  -0.963  0.00  0.00    +0.190 HD
ATOM     15  C   UNL     1      -0.552 -14.279   0.601  0.00  0.00    +0.216 C 
ATOM     16  N   UNL     1      -0.633 -14.673  -0.662  0.00  0.00    -0.265 N 
ATOM     17  N   UNL     1      -0.606 -13.636  -1.426  0.00  0.00    -0.150 NA
ATOM     18  C   UNL     1      -0.262  -6.631  -3.667  0.00  0.00    +0.046 C 
ATOM     19  H   UNL     1      -0.303 -10.384   0.729  0.00  0.00    +0.154 HD
ENDROOT
BRANCH   1  21
ATOM     20  N   UNL     1       0.059  -4.169  -0.021  0.00  0.00    -0.281 N 
ATOM     21  C   UNL     1      -0.040  -4.838  -1.187  0.00  0.00    +0.255 C 
ATOM     22  O   UNL     1      -0.054  -4.227  -2.240  0.00  0.00    -0.269 OA
ATOM     23  H   UNL     1       0.135  -4.657   0.814  0.00  0.00    +0.155 HD
BRANCH  20  28
ATOM     24  C   UNL     1       0.024   1.503   0.005  0.00  0.00    +0.044 C 
ATOM     25  C   UNL     1       0.033  -0.004  -0.002  0.00  0.00    -0.050 A 
ATOM     26  C   UNL     1       0.631  -0.685  -1.046  0.00  0.00    +0.005 A 
ATOM     27  C   UNL     1       0.642  -2.066  -1.055  0.00  0.00    +0.024 A 
ATOM     28  C   UNL     1       0.051  -2.771  -0.014  0.00  0.00    +0.037 A 
ATOM     29  C   UNL     1      -0.549  -2.083   1.033  0.00  0.00    -0.029 A 
ATOM     30  C   UNL     1      -0.551  -0.702   1.039  0.00  0.00    +0.008 A 
ATOM     31  C   UNL     1      -1.191  -2.843   2.165  0.00  0.00    +0.045 C 
ENDBRANCH  20  28
ENDBRANCH   1  21
TORSDOF 2
