REMARK  Name = ZINC05181531
REMARK  11 active torsions:
REMARK  status: ('A' for Active; 'I' for Inactive)
REMARK    1  A    between atoms: C_2  and  C_3
REMARK    2  A    between atoms: C_3  and  S_4
REMARK    3  A    between atoms: S_4  and  C_5
REMARK    4  A    between atoms: N_12  and  C1*_19
REMARK    5  A    between atoms: C_13  and  S_15
REMARK    6  A    between atoms: S_15  and  C_16
REMARK    7  A    between atoms: C_16  and  C_17
REMARK    8  A    between atoms: C2*_21  and  O2*_31
REMARK    9  A    between atoms: C3*_23  and  O3*_30
REMARK   10  A    between atoms: C4*_25  and  C5*_28
REMARK   11  A    between atoms: C5*_28  and  O5*_29
REMARK                            x       y       z     vdW  Elec       q    Type
REMARK                         _______ _______ _______ _____ _____    ______ ____
ROOT
ATOM      1  C   UNL     1      -6.036   4.178   0.730  0.00  0.00    +0.130 A 
ATOM      2  C   UNL     1      -5.186   3.579  -0.215  0.00  0.00    +0.141 A 
ATOM      3  C   UNL     1      -5.753   3.075  -1.395  0.00  0.00    +0.169 A 
ATOM      4  N   UNL     1      -7.066   3.179  -1.580  0.00  0.00    -0.195 NA
ATOM      5  C   UNL     1      -7.831   3.751  -0.664  0.00  0.00    +0.216 A 
ATOM      6  N   UNL     1      -7.337   4.240   0.466  0.00  0.00    -0.206 NA
ATOM      7  N   UNL     1      -9.195   3.841  -0.893  0.00  0.00    -0.327 N 
ATOM      8  N   UNL     1      -4.712   2.558  -2.131  0.00  0.00    -0.274 N 
ATOM      9  C   UNL     1      -3.566   2.742  -1.405  0.00  0.00    +0.174 A 
ATOM     10  N   UNL     1      -3.849   3.347  -0.278  0.00  0.00    -0.217 NA
ATOM     11  H   UNL     1      -9.574   3.488  -1.713  0.00  0.00    +0.145 HD
ATOM     12  H   UNL     1      -9.772   4.256  -0.233  0.00  0.00    +0.145 HD
ENDROOT
BRANCH   8  13
ATOM     13  C1* UNL     1      -4.811   1.924  -3.448  0.00  0.00    +0.254 C 
ATOM     14  C2* UNL     1      -4.630   0.395  -3.324  0.00  0.00    +0.195 C 
ATOM     15  C3* UNL     1      -6.073  -0.148  -3.231  0.00  0.00    +0.178 C 
ATOM     16  C4* UNL     1      -6.956   1.117  -3.310  0.00  0.00    +0.177 C 
ATOM     17  O4* UNL     1      -6.139   2.097  -3.991  0.00  0.00    -0.346 OA
BRANCH  15  18
ATOM     18  O3* UNL     1      -6.350  -1.025  -4.325  0.00  0.00    -0.386 OA
ATOM     19  H3* UNL     1      -7.243  -1.395  -4.316  0.00  0.00    +0.210 HD
ENDBRANCH  15  18
BRANCH  14  20
ATOM     20  O2* UNL     1      -3.893   0.073  -2.143  0.00  0.00    -0.385 OA
ATOM     21  H2* UNL     1      -3.750  -0.875  -2.015  0.00  0.00    +0.210 HD
ENDBRANCH  14  20
BRANCH  16  22
ATOM     22  C5* UNL     1      -8.227   0.830  -4.112  0.00  0.00    +0.190 C 
BRANCH  22  23
ATOM     23  O5* UNL     1      -9.082   1.974  -4.075  0.00  0.00    -0.392 OA
ATOM     24  H5* UNL     1      -9.908   1.864  -4.565  0.00  0.00    +0.210 HD
ENDBRANCH  22  23
ENDBRANCH  16  22
ENDBRANCH   8  13
BRANCH   1  25
ATOM     25  S   UNL     1      -5.391   4.831   2.234  0.00  0.00    -0.100 S 
BRANCH  25  26
ATOM     26  C   UNL     1      -6.917   5.439   2.993  0.00  0.00    +0.102 C 
BRANCH  26  28
ATOM     27  C   UNL     1      -6.792   7.341   4.519  0.00  0.00    +0.005 C 
ATOM     28  C   UNL     1      -6.602   6.058   4.330  0.00  0.00    -0.023 C 
ENDBRANCH  26  28
ENDBRANCH  25  26
ENDBRANCH   1  25
BRANCH   9  29
ATOM     29  S   UNL     1      -1.952   2.247  -1.913  0.00  0.00    -0.083 S 
BRANCH  29  30
ATOM     30  C   UNL     1      -0.988   2.812  -0.489  0.00  0.00    +0.104 C 
BRANCH  30  31
ATOM     31  C   UNL     1       0.467   2.486  -0.707  0.00  0.00    -0.023 C 
ATOM     32  C   UNL     1       1.343   3.451  -0.838  0.00  0.00    +0.005 C 
ENDBRANCH  30  31
ENDBRANCH  29  30
ENDBRANCH   9  29
TORSDOF 11
