REMARK  Name = ZINC32679043
REMARK  5 active torsions:
REMARK  status: ('A' for Active; 'I' for Inactive)
REMARK    1  A    between atoms: C_1  and  N_2
REMARK    2  A    between atoms: C_9  and  N_18
REMARK    3  A    between atoms: N_18  and  C_19
REMARK    4  A    between atoms: C_22  and  C_28
REMARK    5  A    between atoms: C_24  and  N_25
REMARK                            x       y       z     vdW  Elec       q    Type
REMARK                         _______ _______ _______ _____ _____    ______ ____
ROOT
ATOM      1  C   UNL     1       1.325  11.810   0.211  0.00  0.00    -0.096 C 
ATOM      2  N   UNL     1       1.257  10.377  -0.101  0.00  0.00    +0.378 N 
ATOM      3  C   UNL     1       0.076   9.759   0.516  0.00  0.00    -0.075 C 
ATOM      4  C   UNL     1      -0.044   8.306   0.050  0.00  0.00    +0.029 C 
ATOM      5  C   UNL     1       1.223   7.544   0.444  0.00  0.00    +0.109 C 
ATOM      6  C   UNL     1       2.443   8.235  -0.166  0.00  0.00    +0.029 C 
ATOM      7  C   UNL     1       2.489   9.690   0.306  0.00  0.00    -0.075 C 
ATOM      8  C   UNL     1       1.135   6.103  -0.071  0.00  0.00    +0.075 C 
ATOM      9  C   UNL     1      -0.157   5.480   0.463  0.00  0.00    +0.108 C 
ATOM     10  C   UNL     1      -0.280   5.752   1.941  0.00  0.00    +0.014 A 
ATOM     11  C   UNL     1      -1.162   4.988   2.688  0.00  0.00    +0.009 A 
ATOM     12  C   UNL     1      -1.303   5.212   4.044  0.00  0.00    +0.001 A 
ATOM     13  C   UNL     1      -0.564   6.204   4.662  0.00  0.00    +0.004 A 
ATOM     14  C   UNL     1       0.317   6.967   3.924  0.00  0.00    +0.046 A 
ATOM     15  C   UNL     1       0.464   6.743   2.558  0.00  0.00    +0.126 A 
ATOM     16  O   UNL     1       1.343   7.513   1.865  0.00  0.00    -0.485 OA
ATOM     17  H   UNL     1       1.159  10.271  -1.192  0.00  0.00    -0.082 HD
ENDROOT
BRANCH   9  18
ATOM     18  N   UNL     1      -0.131   4.033   0.235  0.00  0.00    -0.335 N 
ATOM     19  H   UNL     1       0.832   3.508   0.145  0.00  0.00    +0.147 HD
BRANCH  18  20
ATOM     20  C   UNL     1      -1.328   3.321   0.131  0.00  0.00    +0.058 A 
ATOM     21  C   UNL     1      -2.541   3.997   0.106  0.00  0.00    +0.026 A 
ATOM     22  C   UNL     1      -3.722   3.290   0.003  0.00  0.00    +0.014 A 
ATOM     23  C   UNL     1      -3.699   1.909  -0.075  0.00  0.00    +0.057 A 
ATOM     24  C   UNL     1      -2.493   1.233  -0.056  0.00  0.00    +0.047 A 
ATOM     25  C   UNL     1      -1.308   1.934   0.053  0.00  0.00    +0.147 A 
BRANCH  23  26
ATOM     26  C   UNL     1      -4.990   1.140  -0.188  0.00  0.00    +0.417 C 
ATOM     27  F   UNL     1      -6.066   2.034  -0.194  0.00  0.00    -0.166 F 
ATOM     28  F   UNL     1      -4.991   0.402  -1.376  0.00  0.00    -0.166 F 
ATOM     29  F   UNL     1      -5.112   0.271   0.902  0.00  0.00    -0.166 F 
ENDBRANCH  23  26
BRANCH  25  30
ATOM     30  N   UNL     1      -0.018   1.209   0.079  0.00  0.00    +0.058 N 
ATOM     31  O   UNL     1       0.139   0.219  -0.613  0.00  0.00    -0.126 OA
ATOM     32  O   UNL     1       0.889   1.605   0.789  0.00  0.00    -0.126 OA
ENDBRANCH  25  30
ENDBRANCH  18  20
ENDBRANCH   9  18
TORSDOF 4
