REMARK  Name = ZINC14927872
REMARK  9 active torsions:
REMARK  status: ('A' for Active; 'I' for Inactive)
REMARK    1  A    between atoms: C_1  and  C_2
REMARK    2  A    between atoms: C_2  and  C_4
REMARK    3  A    between atoms: C_2  and  N_16
REMARK    4  A    between atoms: N_6  and  C_7
REMARK    5  A    between atoms: C_12  and  C_13
REMARK    6  A    between atoms: C_13  and  C_14
REMARK    7  A    between atoms: C_13  and  C_15
REMARK    8  A    between atoms: N_19  and  S_22
REMARK    9  A    between atoms: S_22  and  C_25
REMARK                            x       y       z     vdW  Elec       q    Type
REMARK                         _______ _______ _______ _____ _____    ______ ____
ROOT
ATOM      1  N   UNL     1       0.979  -1.191   0.260  0.00  0.00    +0.389 N 
ATOM      2  C   UNL     1       2.328  -0.615   0.180  0.00  0.00    -0.060 C 
ATOM      3  C   UNL     1       3.343  -1.618   0.738  0.00  0.00    +0.091 C 
ATOM      4  N   UNL     1       3.183  -2.892   0.020  0.00  0.00    -0.180 NA
ATOM      5  C   UNL     1       1.831  -3.460  -0.091  0.00  0.00    +0.091 C 
ATOM      6  C   UNL     1       0.887  -2.371  -0.609  0.00  0.00    -0.060 C 
ATOM      7  H   UNL     1       0.787  -1.460   1.213  0.00  0.00    -0.081 HD
ENDROOT
BRANCH   4   8
ATOM      8  S   UNL     1       4.489  -3.663  -0.646  0.00  0.00    +0.061 S 
ATOM      9  O   UNL     1       3.985  -4.487  -1.689  0.00  0.00    -0.153 OA
ATOM     10  O   UNL     1       5.478  -2.668  -0.872  0.00  0.00    -0.153 OA
BRANCH   8  11
ATOM     11  C   UNL     1       5.136  -4.747   0.583  0.00  0.00    +0.107 A 
ATOM     12  C   UNL     1       6.104  -4.296   1.462  0.00  0.00    +0.028 A 
ATOM     13  C   UNL     1       6.612  -5.145   2.427  0.00  0.00    +0.003 A 
ATOM     14  C   UNL     1       6.153  -6.447   2.513  0.00  0.00    +0.015 A 
ATOM     15  C   UNL     1       5.185  -6.898   1.634  0.00  0.00    +0.020 A 
ATOM     16  C   UNL     1       4.673  -6.046   0.672  0.00  0.00    +0.043 A 
ATOM     17 BR   UNL     1       4.558  -8.678   1.752  0.00  0.00    -0.050 Br
ENDBRANCH   8  11
ENDBRANCH   4   8
BRANCH   1  19
ATOM     18  C   UNL     1       0.133   1.067   0.691  0.00  0.00    -0.004 C 
ATOM     19  C   UNL     1      -0.005  -0.189  -0.172  0.00  0.00    +0.017 C 
BRANCH  19  20
ATOM     20  C   UNL     1      -1.395  -0.752  -0.021  0.00  0.00    +0.203 C 
ATOM     21  O   UNL     1      -1.619  -1.595   0.823  0.00  0.00    -0.277 OA
ATOM     22  N   UNL     1      -2.388  -0.320  -0.823  0.00  0.00    -0.287 N 
ATOM     23  H   UNL     1      -2.196   0.304  -1.540  0.00  0.00    +0.155 HD
BRANCH  22  24
ATOM     24  C   UNL     1      -3.696  -0.773  -0.622  0.00  0.00    +0.037 A 
ATOM     25  C   UNL     1      -3.922  -2.048  -0.120  0.00  0.00    +0.023 A 
ATOM     26  C   UNL     1      -5.215  -2.492   0.077  0.00  0.00    +0.002 A 
ATOM     27  C   UNL     1      -6.284  -1.669  -0.225  0.00  0.00    +0.000 A 
ATOM     28  C   UNL     1      -6.063  -0.399  -0.726  0.00  0.00    +0.006 A 
ATOM     29  C   UNL     1      -4.772   0.053  -0.919  0.00  0.00    -0.024 A 
BRANCH  29  30
ATOM     30  C   UNL     1      -4.531   1.440  -1.458  0.00  0.00    +0.015 C 
ATOM     31  C   UNL     1      -5.249   1.598  -2.799  0.00  0.00    +0.012 C 
ATOM     32  C   UNL     1      -5.071   2.473  -0.466  0.00  0.00    +0.012 C 
ENDBRANCH  29  30
ENDBRANCH  22  24
ENDBRANCH  19  20
ENDBRANCH   1  19
TORSDOF 6
