REMARK  Name = ZINC03897406
REMARK  10 active torsions:
REMARK  status: ('A' for Active; 'I' for Inactive)
REMARK    1  A    between atoms: C_4  and  N_21
REMARK    2  A    between atoms: C_5  and  N_7
REMARK    3  A    between atoms: N_7  and  C_8
REMARK    4  A    between atoms: C_10  and  O_20
REMARK    5  A    between atoms: C_12  and  O_19
REMARK    6  A    between atoms: C_14  and  O_18
REMARK    7  A    between atoms: N_21  and  C_22
REMARK    8  A    between atoms: C_24  and  O_34
REMARK    9  A    between atoms: C_26  and  O_33
REMARK   10  A    between atoms: C_28  and  O_32
REMARK                            x       y       z     vdW  Elec       q    Type
REMARK                         _______ _______ _______ _____ _____    ______ ____
ROOT
ATOM      1  C   UNL     1      -4.911   5.564  -1.525  0.00  0.00    +0.002 A 
ATOM      2  C   UNL     1      -4.978   6.944  -1.474  0.00  0.00    +0.002 A 
ATOM      3  C   UNL     1      -3.862   7.682  -1.125  0.00  0.00    +0.025 A 
ATOM      4  C   UNL     1      -2.673   7.038  -0.819  0.00  0.00    +0.050 A 
ATOM      5  C   UNL     1      -2.604   5.646  -0.876  0.00  0.00    +0.050 A 
ATOM      6  C   UNL     1      -3.728   4.914  -1.227  0.00  0.00    +0.025 A 
ENDROOT
BRANCH   5   7
ATOM      7  N   UNL     1      -1.404   4.990  -0.574  0.00  0.00    -0.316 N 
ATOM      8  H   UNL     1      -0.598   5.504  -0.412  0.00  0.00    +0.149 HD
BRANCH   7   9
ATOM      9  C   UNL     1      -1.367   3.527  -0.504  0.00  0.00    +0.235 C 
ATOM     10  C   UNL     1      -0.345   3.092   0.550  0.00  0.00    +0.192 C 
ATOM     11  C   UNL     1      -0.267   1.563   0.575  0.00  0.00    +0.178 C 
ATOM     12  C   UNL     1       0.089   1.057  -0.826  0.00  0.00    +0.171 C 
ATOM     13  C   UNL     1      -0.950   1.570  -1.826  0.00  0.00    +0.196 C 
ATOM     14  O   UNL     1      -0.992   2.998  -1.777  0.00  0.00    -0.354 OA
BRANCH  12  15
ATOM     15  O   UNL     1       1.383   1.538  -1.193  0.00  0.00    -0.387 OA
ATOM     16  H   UNL     1       1.673   1.258  -2.071  0.00  0.00    +0.210 HD
ENDBRANCH  12  15
BRANCH  11  17
ATOM     17  O   UNL     1       0.738   1.149   1.503  0.00  0.00    -0.386 OA
ATOM     18  H   UNL     1       0.846   0.191   1.565  0.00  0.00    +0.210 HD
ENDBRANCH  11  17
BRANCH  10  19
ATOM     19  O   UNL     1       0.938   3.629   0.220  0.00  0.00    -0.385 OA
ATOM     20  H   UNL     1       0.962   4.595   0.181  0.00  0.00    +0.210 HD
ENDBRANCH  10  19
ENDBRANCH   7   9
ENDBRANCH   5   7
BRANCH   4  21
ATOM     21  N   UNL     1      -1.543   7.783  -0.460  0.00  0.00    -0.316 N 
ATOM     22  H   UNL     1      -0.739   7.331  -0.161  0.00  0.00    +0.149 HD
BRANCH  21  23
ATOM     23  C   UNL     1      -1.576   9.246  -0.534  0.00  0.00    +0.235 C 
ATOM     24  C   UNL     1      -0.185   9.770  -0.902  0.00  0.00    +0.192 C 
ATOM     25  C   UNL     1      -0.213  11.301  -0.919  0.00  0.00    +0.178 C 
ATOM     26  C   UNL     1      -0.682  11.807   0.448  0.00  0.00    +0.171 C 
ATOM     27  C   UNL     1      -2.054  11.205   0.764  0.00  0.00    +0.196 C 
ATOM     28  O   UNL     1      -1.965   9.779   0.733  0.00  0.00    -0.354 OA
BRANCH  26  29
ATOM     29  O   UNL     1       0.255  11.413   1.452  0.00  0.00    -0.387 OA
ATOM     30  H   UNL     1       0.017  11.698   2.345  0.00  0.00    +0.210 HD
ENDBRANCH  26  29
BRANCH  25  31
ATOM     31  O   UNL     1       1.097  11.802  -1.190  0.00  0.00    -0.386 OA
ATOM     32  H   UNL     1       1.154  12.767  -1.210  0.00  0.00    +0.210 HD
ENDBRANCH  25  31
BRANCH  24  33
ATOM     33  O   UNL     1       0.765   9.320   0.066  0.00  0.00    -0.385 OA
ATOM     34  H   UNL     1       0.832   8.358   0.134  0.00  0.00    +0.210 HD
ENDBRANCH  24  33
ENDBRANCH  21  23
ENDBRANCH   4  21
TORSDOF 10
