REMARK  Name = ZINC60883592
REMARK  8 active torsions:
REMARK  status: ('A' for Active; 'I' for Inactive)
REMARK    1  A    between atoms: C_1  and  C_2
REMARK    2  A    between atoms: C_5  and  N_8
REMARK    3  A    between atoms: C_9  and  C_11
REMARK    4  A    between atoms: N_13  and  C_14
REMARK    5  A    between atoms: C_14  and  C_15
REMARK    6  A    between atoms: C_14  and  C_16
REMARK    7  A    between atoms: C_19  and  S_22
REMARK    8  A    between atoms: S_22  and  N_25
REMARK                            x       y       z     vdW  Elec       q    Type
REMARK                         _______ _______ _______ _____ _____    ______ ____
ROOT
ATOM      1  C   UNL     1       0.307  -6.334   1.121  0.00  0.00    +0.300 C 
ATOM      2  O   UNL     1       0.310  -6.932   0.065  0.00  0.00    -0.265 OA
ATOM      3  N   UNL     1       0.424  -7.013   2.280  0.00  0.00    -0.301 N 
ATOM      4  H   UNL     1       0.423  -6.535   3.124  0.00  0.00    +0.150 HD
ENDROOT
BRANCH   1   6
ATOM      5  N   UNL     1       0.059  -4.168  -0.021  0.00  0.00    -0.278 N 
ATOM      6  C   UNL     1       0.175  -4.847   1.138  0.00  0.00    +0.303 C 
ATOM      7  O   UNL     1       0.173  -4.249   2.194  0.00  0.00    -0.265 OA
ATOM      8  H   UNL     1      -0.017  -4.649  -0.860  0.00  0.00    +0.155 HD
BRANCH   5  13
ATOM      9  C   UNL     1       0.006   1.503   0.009  0.00  0.00    +0.044 C 
ATOM     10  C   UNL     1       0.020  -0.004   0.001  0.00  0.00    -0.050 A 
ATOM     11  C   UNL     1      -0.724  -0.696  -0.937  0.00  0.00    +0.005 A 
ATOM     12  C   UNL     1      -0.714  -2.077  -0.947  0.00  0.00    +0.023 A 
ATOM     13  C   UNL     1       0.046  -2.771  -0.014  0.00  0.00    +0.034 A 
ATOM     14  C   UNL     1       0.792  -2.072   0.927  0.00  0.00    +0.023 A 
ATOM     15  C   UNL     1       0.781  -0.692   0.929  0.00  0.00    +0.005 A 
ENDBRANCH   5  13
ENDBRANCH   1   6
BRANCH   3  16
ATOM     16  C   UNL     1       0.554  -8.472   2.264  0.00  0.00    +0.101 C 
ATOM     17  C   UNL     1       2.023  -8.852   2.064  0.00  0.00    +0.033 C 
BRANCH  16  18
ATOM     18  C   UNL     1       0.064  -9.034   3.574  0.00  0.00    -0.027 A 
ATOM     19  C   UNL     1       0.353  -8.381   4.757  0.00  0.00    +0.007 A 
ATOM     20  C   UNL     1      -0.096  -8.897   5.959  0.00  0.00    +0.029 A 
ATOM     21  C   UNL     1      -0.835 -10.065   5.976  0.00  0.00    +0.105 A 
ATOM     22  C   UNL     1      -1.125 -10.718   4.793  0.00  0.00    +0.029 A 
ATOM     23  C   UNL     1      -0.679 -10.200   3.591  0.00  0.00    +0.007 A 
BRANCH  21  24
ATOM     24  S   UNL     1      -1.407 -10.723   7.508  0.00  0.00    +0.056 S 
ATOM     25  O   UNL     1      -1.609 -12.114   7.302  0.00  0.00    -0.153 OA
ATOM     26  O   UNL     1      -0.539 -10.220   8.515  0.00  0.00    -0.153 OA
BRANCH  24  27
ATOM     27  N   UNL     1      -2.899 -10.065   7.796  0.00  0.00    -0.204 NA
ATOM     28  H   UNL     1      -3.285  -9.441   7.162  0.00  0.00    +0.144 HD
ATOM     29  H   UNL     1      -3.387 -10.304   8.600  0.00  0.00    +0.144 HD
ENDBRANCH  24  27
ENDBRANCH  21  24
ENDBRANCH  16  18
ENDBRANCH   3  16
TORSDOF 6
