REMARK  Name = ZINC08768495
REMARK  10 active torsions:
REMARK  status: ('A' for Active; 'I' for Inactive)
REMARK    1  A    between atoms: C_1  and  O_2
REMARK    2  A    between atoms: O_2  and  C_3
REMARK    3  A    between atoms: C_8  and  O_9
REMARK    4  A    between atoms: O_9  and  C_10
REMARK    5  A    between atoms: C_11  and  C_15
REMARK    6  A    between atoms: C_16  and  O_31
REMARK    7  A    between atoms: C_18  and  O_30
REMARK    8  A    between atoms: N_19  and  C_22
REMARK    9  A    between atoms: C_22  and  C_23
REMARK   10  A    between atoms: C_23  and  C_24
REMARK                            x       y       z     vdW  Elec       q    Type
REMARK                         _______ _______ _______ _____ _____    ______ ____
ROOT
ATOM      1  C   UNL     1       3.596  -1.913   0.888  0.00  0.00    +0.069 A 
ATOM      2  C   UNL     1       3.630  -3.210   0.409  0.00  0.00    +0.224 A 
ATOM      3  N   UNL     1       3.540  -4.236   1.263  0.00  0.00    -0.161 NA
ATOM      4  C   UNL     1       3.418  -4.037   2.557  0.00  0.00    +0.302 A 
ATOM      5  N   UNL     1       3.378  -2.783   3.079  0.00  0.00    -0.262 N 
ATOM      6  C   UNL     1       3.471  -1.708   2.268  0.00  0.00    +0.262 A 
ATOM      7  O   UNL     1       3.442  -0.578   2.729  0.00  0.00    -0.267 OA
ENDROOT
BRANCH   1  14
ATOM      8  C   UNL     1      -0.017   1.387   0.010  0.00  0.00    +0.162 A 
ATOM      9  C   UNL     1       1.176   2.089   0.002  0.00  0.00    +0.053 A 
ATOM     10  C   UNL     1       2.387   1.413  -0.013  0.00  0.00    -0.044 A 
ATOM     11  C   UNL     1       2.406   0.034  -0.025  0.00  0.00    -0.050 A 
ATOM     12  C   UNL     1       1.213  -0.673  -0.015  0.00  0.00    +0.052 A 
ATOM     13  C   UNL     1       0.002  -0.004   0.002  0.00  0.00    +0.162 A 
ATOM     14  C   UNL     1       3.697  -0.742  -0.056  0.00  0.00    +0.001 C 
ATOM     15  C   UNL     1       4.834   1.347  -0.449  0.00  0.00    -0.077 C 
ATOM     16  C   UNL     1       3.659   2.221  -0.012  0.00  0.00    +0.016 C 
ATOM     17  N   UNL     1       4.823   0.109   0.353  0.00  0.00    +0.387 N 
ATOM     18  H   UNL     1       5.703  -0.398   0.209  0.00  0.00    -0.085 HD
ATOM     19  H   UNL     1       4.724   0.349   1.347  0.00  0.00    -0.085 HD
BRANCH   8  21
ATOM     20  C   UNL     1      -1.142   3.482   0.026  0.00  0.00    +0.277 C 
ATOM     21  O   UNL     1      -1.202   2.055   0.019  0.00  0.00    -0.491 OA
ENDBRANCH   8  21
BRANCH  13  22
ATOM     22  O   UNL     1      -1.165  -0.703   0.011  0.00  0.00    -0.491 OA
ATOM     23  C   UNL     1      -1.067  -2.128   0.002  0.00  0.00    +0.277 C 
ENDBRANCH  13  22
ENDBRANCH   1  14
BRANCH   4  24
ATOM     24  O   UNL     1       3.329  -5.099   3.382  0.00  0.00    -0.479 OA
ATOM     25  H   UNL     1       3.361  -5.976   2.975  0.00  0.00    +0.295 HD
ENDBRANCH   4  24
BRANCH   2  26
ATOM     26  O   UNL     1       3.756  -3.441  -0.918  0.00  0.00    -0.492 OA
ATOM     27  H   UNL     1       3.770  -4.379  -1.155  0.00  0.00    +0.294 HD
ENDBRANCH   2  26
BRANCH   5  28
ATOM     28  C   UNL     1       3.241  -2.598   4.526  0.00  0.00    +0.134 C 
BRANCH  28  29
ATOM     29  C   UNL     1       4.629  -2.546   5.168  0.00  0.00    +0.057 C 
BRANCH  29  30
ATOM     30  C   UNL     1       4.487  -2.356   6.656  0.00  0.00    -0.046 A 
ATOM     31  C   UNL     1       4.453  -1.081   7.189  0.00  0.00    +0.004 A 
ATOM     32  C   UNL     1       4.319  -0.907   8.554  0.00  0.00    +0.000 A 
ATOM     33  C   UNL     1       4.229  -2.007   9.386  0.00  0.00    +0.000 A 
ATOM     34  C   UNL     1       4.268  -3.282   8.853  0.00  0.00    +0.000 A 
ATOM     35  C   UNL     1       4.398  -3.456   7.488  0.00  0.00    +0.004 A 
ENDBRANCH  29  30
ENDBRANCH  28  29
ENDBRANCH   5  28
TORSDOF 8
