REMARK  Name = ZINC64064515
REMARK  7 active torsions:
REMARK  status: ('A' for Active; 'I' for Inactive)
REMARK    1  A    between atoms: C_4  and  N_7
REMARK    2  A    between atoms: C_8  and  C_33
REMARK    3  A    between atoms: C_11  and  C_13
REMARK    4  A    between atoms: N_15  and  C_16
REMARK    5  A    between atoms: C_16  and  C_17
REMARK    6  A    between atoms: C_17  and  C_19
REMARK    7  A    between atoms: C_17  and  C_24
REMARK                            x       y       z     vdW  Elec       q    Type
REMARK                         _______ _______ _______ _____ _____    ______ ____
ROOT
ATOM      1  C   UNL     1       7.279  -0.542  -0.066  0.00  0.00    +0.260 C 
ATOM      2  O   UNL     1       8.125  -1.417  -0.082  0.00  0.00    -0.269 OA
ATOM      3  N   UNL     1       7.650   0.754  -0.057  0.00  0.00    -0.309 N 
ATOM      4  H   UNL     1       6.976   1.451  -0.045  0.00  0.00    +0.149 HD
ENDROOT
BRANCH   1   8
ATOM      5  N   UNL     1       3.619  -0.648  -0.037  0.00  0.00    -0.212 N 
ATOM      6  C   UNL     1       3.783  -2.111  -0.053  0.00  0.00    +0.189 C 
ATOM      7  C   UNL     1       5.312  -2.305  -0.067  0.00  0.00    +0.096 C 
ATOM      8  C   UNL     1       5.860  -0.896  -0.058  0.00  0.00    +0.123 C 
ATOM      9  N   UNL     1       4.879  -0.052  -0.048  0.00  0.00    -0.178 NA
BRANCH   5  13
ATOM     10  C   UNL     1      -0.017   1.379   0.010  0.00  0.00    +0.000 A 
ATOM     11  C   UNL     1       1.169   2.090   0.002  0.00  0.00    +0.002 A 
ATOM     12  C   UNL     1       2.377   1.421  -0.013  0.00  0.00    +0.025 A 
ATOM     13  C   UNL     1       2.400   0.031  -0.021  0.00  0.00    +0.052 A 
ATOM     14  C   UNL     1       1.206  -0.680  -0.013  0.00  0.00    +0.025 A 
ATOM     15  C   UNL     1       0.002  -0.004   0.002  0.00  0.00    +0.002 A 
ENDBRANCH   5  13
BRANCH   6  16
ATOM     16  C   UNL     1       3.159  -2.701  -1.291  0.00  0.00    +0.233 C 
ATOM     17  O   UNL     1       2.924  -1.993  -2.248  0.00  0.00    -0.274 OA
ATOM     18  N   UNL     1       2.861  -4.014  -1.335  0.00  0.00    -0.328 N 
ATOM     19  H   UNL     1       3.049  -4.580  -0.569  0.00  0.00    +0.145 HD
ATOM     20  H   UNL     1       2.459  -4.394  -2.132  0.00  0.00    +0.145 HD
ENDBRANCH   6  16
ENDBRANCH   1   8
BRANCH   3  21
ATOM     21  C   UNL     1       9.072   1.109  -0.065  0.00  0.00    +0.117 C 
BRANCH  21  22
ATOM     22  C   UNL     1       9.217   2.632  -0.052  0.00  0.00    +0.071 C 
BRANCH  22  23
ATOM     23  C   UNL     1      10.672   2.999  -0.184  0.00  0.00    -0.032 C 
ATOM     24  C   UNL     1      11.238   3.743  -1.163  0.00  0.00    -0.000 A 
ATOM     25  C   UNL     1      10.688   4.405  -2.351  0.00  0.00    +0.010 A 
ATOM     26  C   UNL     1      11.523   5.093  -3.164  0.00  0.00    +0.001 A 
ATOM     27  C   UNL     1      12.896   5.187  -2.900  0.00  0.00    +0.002 A 
ATOM     28  C   UNL     1      13.475   4.605  -1.828  0.00  0.00    +0.026 A 
ATOM     29  C   UNL     1      12.691   3.858  -0.906  0.00  0.00    +0.043 A 
ATOM     30  N   UNL     1      13.012   3.211   0.188  0.00  0.00    -0.380 N 
ATOM     31  C   UNL     1      11.796   2.616   0.753  0.00  0.00    +0.145 C 
ATOM     32  H   UNL     1      13.903   3.140   0.563  0.00  0.00    +0.160 HD
ENDBRANCH  22  23
BRANCH  22  33
ATOM     33  C   UNL     1       8.677   3.177   1.246  0.00  0.00    -0.002 A 
ATOM     34  C   UNL     1       7.662   4.052   1.448  0.00  0.00    +0.012 A 
ATOM     35  C   UNL     1       7.336   4.414   2.741  0.00  0.00    +0.008 A 
ATOM     36  C   UNL     1       8.042   3.883   3.770  0.00  0.00    +0.045 A 
ATOM     37  S   UNL     1       9.205   2.831   2.916  0.00  0.00    -0.101 S 
ENDBRANCH  22  33
ENDBRANCH  21  22
ENDBRANCH   3  21
TORSDOF 7
