REMARK  Name = ZINC65380354
REMARK  2 active torsions:
REMARK  status: ('A' for Active; 'I' for Inactive)
REMARK    1  A    between atoms: C_5  and  C_14
REMARK    2  A    between atoms: C_14  and  N_15
REMARK                            x       y       z     vdW  Elec       q    Type
REMARK                         _______ _______ _______ _____ _____    ______ ____
ROOT
ATOM      1  N   UNL     1       6.968   1.021  -1.266  0.00  0.00    -0.281 N 
ATOM      2  C   UNL     1       8.087   1.686  -0.606  0.00  0.00    +0.213 C 
ATOM      3  N   UNL     1       9.004   0.709   0.007  0.00  0.00    -0.322 N 
ATOM      4  C   UNL     1       9.223  -0.455  -0.690  0.00  0.00    +0.079 A 
ATOM      5  C   UNL     1       8.308  -0.959  -1.626  0.00  0.00    +0.068 A 
ATOM      6  H   UNL     1       9.432   0.879   0.861  0.00  0.00    +0.148 HD
ATOM      7  C   UNL     1       7.068  -0.186  -1.860  0.00  0.00    +0.250 C 
ATOM      8  O   UNL     1       6.176  -0.621  -2.566  0.00  0.00    -0.270 OA
ATOM      9  C   UNL     1       8.690  -2.205  -2.263  0.00  0.00    -0.027 A 
ATOM     10  C   UNL     1       9.884  -2.701  -1.865  0.00  0.00    -0.022 A 
ATOM     11  S   UNL     1      10.482  -1.536  -0.674  0.00  0.00    -0.080 S 
ATOM     12  C   UNL     1      10.523  -3.963  -2.350  0.00  0.00    -0.039 C 
ATOM     13  N   UNL     1       9.495  -4.772  -3.031  0.00  0.00    +0.382 N 
ATOM     14  C   UNL     1       8.790  -3.942  -4.017  0.00  0.00    -0.077 C 
ATOM     15  C   UNL     1       7.866  -2.948  -3.307  0.00  0.00    +0.017 C 
ATOM     16  H   UNL     1       9.936  -5.550  -3.500  0.00  0.00    -0.085 HD
ATOM     17  H   UNL     1       8.836  -5.119  -2.351  0.00  0.00    -0.085 HD
ENDROOT
BRANCH   1  18
ATOM     18  C   UNL     1       5.667   1.695  -1.277  0.00  0.00    +0.126 C 
BRANCH  18  23
ATOM     19  C   UNL     1      -0.017   1.395   0.010  0.00  0.00    +0.039 A 
ATOM     20  C   UNL     1       1.132   2.116   0.003  0.00  0.00    +0.012 A 
ATOM     21  C   UNL     1       2.414   1.409  -0.013  0.00  0.00    -0.007 A 
ATOM     22  C   UNL     1       3.589   2.098  -0.021  0.00  0.00    -0.003 C 
ATOM     23  C   UNL     1       4.870   1.288  -0.037  0.00  0.00    +0.116 C 
ATOM     24  C   UNL     1       4.741  -0.219  -0.044  0.00  0.00    +0.226 C 
ATOM     25  O   UNL     1       5.737  -0.917  -0.056  0.00  0.00    -0.275 OA
ATOM     26  N   UNL     1       3.541  -0.774  -0.036  0.00  0.00    -0.284 N 
ATOM     27  C   UNL     1       2.411  -0.065  -0.021  0.00  0.00    +0.043 A 
ATOM     28  C   UNL     1       1.171  -0.724  -0.013  0.00  0.00    +0.062 A 
ATOM     29  C   UNL     1       0.002  -0.004   0.002  0.00  0.00    +0.125 A 
ATOM     30  F   UNL     1      -1.173  -0.671   0.010  0.00  0.00    -0.205 F 
ATOM     31  H   UNL     1       3.479  -1.742  -0.041  0.00  0.00    +0.155 HD
ENDBRANCH  18  23
ENDBRANCH   1  18
TORSDOF 2
