REMARK  Name = ZINC39933279
REMARK  4 active torsions:
REMARK  status: ('A' for Active; 'I' for Inactive)
REMARK    1  A    between atoms: C_7  and  C_10
REMARK    2  A    between atoms: N_11  and  N_12
REMARK    3  A    between atoms: C_13  and  C_15
REMARK    4  A    between atoms: C_18  and  N_22
REMARK                            x       y       z     vdW  Elec       q    Type
REMARK                         _______ _______ _______ _____ _____    ______ ____
ROOT
ATOM      1  N   UNL     1       0.256  -5.438  -0.032  0.00  0.00    -0.203 N 
ATOM      2  C   UNL     1       0.733  -6.698  -0.044  0.00  0.00    +0.263 C 
ATOM      3  O   UNL     1       1.933  -6.893  -0.057  0.00  0.00    -0.268 OA
ATOM      4  H   UNL     1      -0.702  -5.282  -0.022  0.00  0.00    +0.178 HD
ENDROOT
BRANCH   2   5
ATOM      5  C   UNL     1      -0.199  -7.839  -0.042  0.00  0.00    +0.041 A 
ATOM      6  C   UNL     1      -1.580  -7.616  -0.033  0.00  0.00    +0.030 A 
ATOM      7  C   UNL     1      -2.448  -8.685  -0.031  0.00  0.00    +0.040 A 
ATOM      8  C   UNL     1      -1.953  -9.986  -0.037  0.00  0.00    +0.053 A 
ATOM      9  C   UNL     1      -0.579 -10.212  -0.046  0.00  0.00    +0.040 A 
ATOM     10  C   UNL     1       0.295  -9.148  -0.055  0.00  0.00    +0.030 A 
ATOM     11 BR   UNL     1       0.088 -11.981  -0.054  0.00  0.00    -0.048 Br
ATOM     12 BR   UNL     1      -4.315  -8.384  -0.019  0.00  0.00    -0.048 Br
BRANCH   8  13
ATOM     13  N   UNL     1      -2.833 -11.064  -0.035  0.00  0.00    -0.356 N 
ATOM     14  H   UNL     1      -3.790 -10.908  -0.028  0.00  0.00    +0.142 HD
ATOM     15  H   UNL     1      -2.489 -11.971  -0.039  0.00  0.00    +0.142 HD
ENDBRANCH   8  13
ENDBRANCH   2   5
BRANCH   1  17
ATOM     16  C   UNL     1       0.678  -3.128  -0.022  0.00  0.00    +0.136 C 
ATOM     17  N   UNL     1       1.142  -4.352  -0.034  0.00  0.00    -0.188 NA
BRANCH  16  24
ATOM     18  C   UNL     1      -0.016   1.353   0.009  0.00  0.00    +0.001 A 
ATOM     19  C   UNL     1       1.164   2.101   0.002  0.00  0.00    +0.002 A 
ATOM     20  C   UNL     1       2.384   1.513  -0.013  0.00  0.00    +0.026 A 
ATOM     21  C   UNL     1       2.485   0.097  -0.022  0.00  0.00    +0.043 A 
ATOM     22  N   UNL     1       3.531  -0.703  -0.037  0.00  0.00    -0.380 N 
ATOM     23  C   UNL     1       3.076  -2.096  -0.040  0.00  0.00    +0.150 C 
ATOM     24  C   UNL     1       1.564  -2.042  -0.024  0.00  0.00    +0.000 C 
ATOM     25  C   UNL     1       1.238  -0.688  -0.013  0.00  0.00    +0.004 A 
ATOM     26  C   UNL     1       0.002  -0.004   0.002  0.00  0.00    +0.010 A 
ATOM     27  H   UNL     1       4.457  -0.414  -0.045  0.00  0.00    +0.160 HD
ENDBRANCH  16  24
ENDBRANCH   1  17
TORSDOF 4
