REMARK  Name = ZINC27667860
REMARK  10 active torsions:
REMARK  status: ('A' for Active; 'I' for Inactive)
REMARK    1  A    between atoms: C_1  and  C_2
REMARK    2  A    between atoms: C_5  and  S_28
REMARK    3  A    between atoms: C_7  and  C_8
REMARK    4  A    between atoms: N_10  and  C_11
REMARK    5  A    between atoms: C_11  and  C_12
REMARK    6  A    between atoms: C_12  and  C_14
REMARK    7  A    between atoms: C_12  and  N_22
REMARK    8  A    between atoms: C_17  and  O_20
REMARK    9  A    between atoms: O_20  and  C_21
REMARK   10  A    between atoms: S_28  and  N_31
REMARK                            x       y       z     vdW  Elec       q    Type
REMARK                         _______ _______ _______ _____ _____    ______ ____
ROOT
ATOM      1  C   UNL     1       6.906   0.701  -2.569  0.00  0.00    +0.244 C 
ATOM      2  O   UNL     1       7.450   0.321  -3.587  0.00  0.00    -0.270 OA
ATOM      3  N   UNL     1       7.473   1.668  -1.821  0.00  0.00    -0.313 N 
ATOM      4  H   UNL     1       6.981   2.012  -0.900  0.00  0.00    +0.149 HD
ENDROOT
BRANCH   1  11
ATOM      5  C   UNL     1       5.601  -1.230  -4.283  0.00  0.00    +0.044 C 
ATOM      6  C   UNL     1       4.982  -0.831  -2.969  0.00  0.00    -0.038 A 
ATOM      7  C   UNL     1       3.782  -1.385  -2.572  0.00  0.00    +0.006 A 
ATOM      8  C   UNL     1       3.215  -1.023  -1.364  0.00  0.00    +0.029 A 
ATOM      9  C   UNL     1       3.841  -0.095  -0.550  0.00  0.00    +0.106 A 
ATOM     10  C   UNL     1       5.040   0.467  -0.934  0.00  0.00    +0.041 A 
ATOM     11  C   UNL     1       5.620   0.102  -2.150  0.00  0.00    +0.041 A 
BRANCH   9  12
ATOM     12  S   UNL     1       3.106   0.364   0.985  0.00  0.00    +0.061 S 
ATOM     13  O   UNL     1       4.160   0.835   1.815  0.00  0.00    -0.153 OA
ATOM     14  O   UNL     1       2.258  -0.710   1.367  0.00  0.00    -0.153 OA
BRANCH  12  15
ATOM     15  N   UNL     1       2.122   1.662   0.688  0.00  0.00    -0.177 NA
ATOM     16  C   UNL     1       0.712   1.464   0.327  0.00  0.00    +0.109 C 
ATOM     17  C   UNL     1       0.427   2.216  -0.978  0.00  0.00    +0.017 C 
ATOM     18  C   UNL     1       0.835   3.682  -0.817  0.00  0.00    +0.003 C 
ATOM     19  C   UNL     1       2.336   3.767  -0.528  0.00  0.00    +0.017 C 
ATOM     20  C   UNL     1       2.642   3.033   0.781  0.00  0.00    +0.109 C 
ENDBRANCH  12  15
ENDBRANCH   9  12
ENDBRANCH   1  11
BRANCH   3  21
ATOM     21  C   UNL     1       8.747   2.262  -2.236  0.00  0.00    +0.094 C 
BRANCH  21  22
ATOM     22  C   UNL     1       9.228   3.239  -1.162  0.00  0.00    -0.020 C 
BRANCH  22  23
ATOM     23  N   UNL     1      10.509   3.829  -1.575  0.00  0.00    +0.385 N 
ATOM     24  C   UNL     1      11.484   2.784  -1.914  0.00  0.00    -0.078 C 
ATOM     25  C   UNL     1      12.752   3.431  -2.476  0.00  0.00    -0.019 C 
ATOM     26  C   UNL     1      13.339   4.383  -1.431  0.00  0.00    -0.004 C 
ATOM     27  C   UNL     1      12.287   5.432  -1.059  0.00  0.00    -0.019 C 
ATOM     28  C   UNL     1      11.033   4.727  -0.538  0.00  0.00    -0.078 C 
ATOM     29  H   UNL     1      10.331   4.428  -2.479  0.00  0.00    -0.081 HD
ENDBRANCH  22  23
BRANCH  22  30
ATOM     30  C   UNL     1       8.206   4.332  -0.984  0.00  0.00    -0.059 A 
ATOM     31  C   UNL     1       8.165   5.391  -1.873  0.00  0.00    +0.005 A 
ATOM     32  C   UNL     1       7.226   6.391  -1.715  0.00  0.00    +0.046 A 
ATOM     33  C   UNL     1       6.331   6.340  -0.657  0.00  0.00    +0.120 A 
ATOM     34  C   UNL     1       6.377   5.280   0.237  0.00  0.00    +0.046 A 
ATOM     35  C   UNL     1       7.315   4.279   0.071  0.00  0.00    +0.005 A 
BRANCH  33  36
ATOM     36  O   UNL     1       5.410   7.326  -0.496  0.00  0.00    -0.495 OA
ATOM     37  C   UNL     1       5.420   8.386  -1.454  0.00  0.00    +0.277 C 
ENDBRANCH  33  36
ENDBRANCH  22  30
ENDBRANCH  21  22
ENDBRANCH   3  21
TORSDOF 8
