REMARK  Name = ZINC39560846
REMARK  9 active torsions:
REMARK  status: ('A' for Active; 'I' for Inactive)
REMARK    1  A    between atoms: C_1  and  C_2
REMARK    2  A    between atoms: C_2  and  C_3
REMARK    3  A    between atoms: C_2  and  N_4
REMARK    4  A    between atoms: N_4  and  C_5
REMARK    5  A    between atoms: C_8  and  C_30
REMARK    6  A    between atoms: C_24  and  C_26
REMARK    7  A    between atoms: C_26  and  O_28
REMARK    8  A    between atoms: O_28  and  C_29
REMARK    9  A    between atoms: C_33  and  C_36
REMARK                            x       y       z     vdW  Elec       q    Type
REMARK                         _______ _______ _______ _____ _____    ______ ____
ROOT
ATOM      1  C   UNL     1       2.221  -0.243  -2.339  0.00  0.00    -0.068 C 
ATOM      2  C   UNL     1       2.595  -0.850  -0.984  0.00  0.00    +0.008 C 
ATOM      3  C   UNL     1       4.015  -0.418  -0.607  0.00  0.00    +0.087 C 
ATOM      4  N   UNL     1       4.951  -0.868  -1.644  0.00  0.00    -0.274 NA
ATOM      5  C   UNL     1       4.642  -0.241  -2.939  0.00  0.00    +0.106 C 
ATOM      6  C   UNL     1       3.247  -0.678  -3.390  0.00  0.00    +0.009 C 
ATOM      7  C   UNL     1       5.671  -0.697  -3.943  0.00  0.00    +0.063 C 
ATOM      8  N   UNL     1       5.619  -0.631  -5.249  0.00  0.00    -0.250 NA
ATOM      9  C   UNL     1       6.743  -1.149  -5.764  0.00  0.00    +0.068 C 
ATOM     10  C   UNL     1       7.149  -1.298  -7.089  0.00  0.00    +0.028 C 
ATOM     11  C   UNL     1       8.408  -1.889  -7.323  0.00  0.00    -0.002 C 
ATOM     12  C   UNL     1       9.217  -2.305  -6.354  0.00  0.00    -0.022 C 
ATOM     13  C   UNL     1       8.916  -2.212  -4.884  0.00  0.00    +0.064 C 
ATOM     14  C   UNL     1       7.569  -1.577  -4.681  0.00  0.00    -0.013 C 
ATOM     15  C   UNL     1       6.894  -1.290  -3.558  0.00  0.00    -0.017 C 
ATOM     16  C   UNL     1       7.276  -1.511  -2.115  0.00  0.00    +0.067 C 
ATOM     17  C   UNL     1       6.346  -0.652  -1.246  0.00  0.00    +0.172 C 
ENDROOT
BRANCH   3  18
ATOM     18  C   UNL     1       4.394  -1.036   0.715  0.00  0.00    -0.030 A 
ATOM     19  C   UNL     1       4.822  -2.349   0.767  0.00  0.00    +0.006 A 
ATOM     20  C   UNL     1       5.170  -2.915   1.979  0.00  0.00    +0.013 A 
ATOM     21  C   UNL     1       5.089  -2.168   3.139  0.00  0.00    +0.055 A 
ATOM     22  C   UNL     1       4.662  -0.854   3.087  0.00  0.00    +0.013 A 
ATOM     23  C   UNL     1       4.319  -0.287   1.874  0.00  0.00    +0.006 A 
BRANCH  21  24
ATOM     24  C   UNL     1       5.467  -2.785   4.461  0.00  0.00    +0.417 C 
ATOM     25  F   UNL     1       6.830  -2.578   4.700  0.00  0.00    -0.166 F 
ATOM     26  F   UNL     1       4.719  -2.192   5.483  0.00  0.00    -0.166 F 
ATOM     27  F   UNL     1       5.203  -4.159   4.426  0.00  0.00    -0.166 F 
ENDBRANCH  21  24
ENDBRANCH   3  18
BRANCH   1  28
ATOM     28  N   UNL     1       0.886  -0.711  -2.734  0.00  0.00    +0.383 N 
ATOM     29  H   UNL     1       0.867  -1.720  -2.725  0.00  0.00    -0.085 HD
ATOM     30  H   UNL     1       0.674  -0.379  -3.663  0.00  0.00    -0.085 HD
BRANCH  28  32
ATOM     31  C   UNL     1      -0.172   1.331  -1.893  0.00  0.00    -0.014 C 
ATOM     32  C   UNL     1      -0.113  -0.194  -1.789  0.00  0.00    -0.078 C 
ATOM     33  C   UNL     1      -1.485  -0.781  -2.126  0.00  0.00    -0.014 C 
ENDBRANCH  28  32
ENDBRANCH   1  28
BRANCH  17  34
ATOM     34  C   UNL     1       6.698   0.803  -1.423  0.00  0.00    +0.325 C 
ATOM     35  O   UNL     1       6.434   1.367  -2.459  0.00  0.00    -0.249 OA
BRANCH  34  36
ATOM     36  O   UNL     1       7.304   1.472  -0.430  0.00  0.00    -0.467 OA
ATOM     37  C   UNL     1       7.608   2.848  -0.666  0.00  0.00    +0.280 C 
ENDBRANCH  34  36
ENDBRANCH  17  34
TORSDOF 6
