REMARK  Name = ZINC43466461
REMARK  4 active torsions:
REMARK  status: ('A' for Active; 'I' for Inactive)
REMARK    1  A    between atoms: C_1  and  C_2
REMARK    2  A    between atoms: C_2  and  N_3
REMARK    3  A    between atoms: N_9  and  C_12
REMARK    4  A    between atoms: C_12  and  C_13
REMARK                            x       y       z     vdW  Elec       q    Type
REMARK                         _______ _______ _______ _____ _____    ______ ____
ROOT
ATOM      1  C   UNL     1      -6.925  -4.959   1.355  0.00  0.00    +0.095 A 
ATOM      2  N   UNL     1      -6.338  -5.644   0.413  0.00  0.00    -0.197 NA
ATOM      3  C   UNL     1      -6.681  -6.908   0.122  0.00  0.00    +0.282 A 
ATOM      4  O   UNL     1      -6.108  -7.517  -0.767  0.00  0.00    -0.265 OA
ATOM      5  C   UNL     1      -7.764  -7.553   0.897  0.00  0.00    +0.075 A 
ATOM      6  C   UNL     1      -8.309  -8.904   0.765  0.00  0.00    -0.023 A 
ATOM      7  C   UNL     1      -9.306  -9.246   1.607  0.00  0.00    -0.004 A 
ATOM      8  S   UNL     1      -9.572  -7.807   2.608  0.00  0.00    -0.075 S 
ATOM      9  C   UNL     1      -8.341  -6.754   1.889  0.00  0.00    +0.092 A 
ATOM     10  N   UNL     1      -7.914  -5.483   2.106  0.00  0.00    -0.339 N 
ATOM     11  C   UNL     1     -10.029 -10.556   1.675  0.00  0.00    +0.043 C 
ATOM     12  C   UNL     1      -9.723 -11.345   0.393  0.00  0.00    +0.005 C 
ATOM     13  C   UNL     1      -8.212 -11.308   0.143  0.00  0.00    +0.005 C 
ATOM     14  C   UNL     1      -7.787  -9.898  -0.269  0.00  0.00    +0.037 C 
ATOM     15  H   UNL     1      -8.327  -4.948   2.802  0.00  0.00    +0.167 HD
ENDROOT
BRANCH   1  16
ATOM     16  C   UNL     1      -6.479  -3.543   1.616  0.00  0.00    -0.003 C 
BRANCH  16  23
ATOM     17  N   UNL     1      -0.564  -2.701  -0.012  0.00  0.00    -0.300 N 
ATOM     18  C   UNL     1      -1.601  -1.839   0.007  0.00  0.00    +0.302 C 
ATOM     19  O   UNL     1      -1.397  -0.645   0.108  0.00  0.00    -0.253 OA
ATOM     20  N   UNL     1      -2.863  -2.302  -0.085  0.00  0.00    -0.289 N 
ATOM     21  C   UNL     1      -4.002  -1.377  -0.187  0.00  0.00    +0.091 C 
ATOM     22  C   UNL     1      -5.047  -1.775   0.860  0.00  0.00    -0.059 C 
ATOM     23  N   UNL     1      -5.399  -3.190   0.686  0.00  0.00    +0.386 N 
ATOM     24  C   UNL     1      -4.227  -4.033   0.956  0.00  0.00    -0.059 C 
ATOM     25  C   UNL     1      -3.141  -3.747  -0.092  0.00  0.00    +0.091 C 
ATOM     26  H   UNL     1      -0.728  -3.657  -0.019  0.00  0.00    +0.150 HD
ATOM     27  H   UNL     1      -5.710  -3.344  -0.262  0.00  0.00    -0.081 HD
BRANCH  17  29
ATOM     28  C   UNL     1       1.788  -3.370  -0.043  0.00  0.00    +0.024 C 
ATOM     29  C   UNL     1       0.810  -2.193  -0.021  0.00  0.00    +0.102 C 
ENDBRANCH  17  29
ENDBRANCH  16  23
ENDBRANCH   1  16
TORSDOF 3
