REMARK  Name = ZINC06996579
REMARK  11 active torsions:
REMARK  status: ('A' for Active; 'I' for Inactive)
REMARK    1  A    between atoms: C_1  and  C_2
REMARK    2  A    between atoms: C_2  and  C_3
REMARK    3  A    between atoms: C_3  and  C_4
REMARK    4  A    between atoms: C_4  and  N_5
REMARK    5  A    between atoms: C_9  and  S_26
REMARK    6  A    between atoms: C_13  and  C_14
REMARK    7  A    between atoms: C_14  and  N_52
REMARK    8  A    between atoms: C_15  and  C_17
REMARK    9  A    between atoms: C_15  and  C_18
REMARK   10  A    between atoms: C_15  and  N_52
REMARK   11  A    between atoms: S_26  and  N_29
REMARK                            x       y       z     vdW  Elec       q    Type
REMARK                         _______ _______ _______ _____ _____    ______ ____
ROOT
ATOM      1  N   UNL     1       4.410   1.865  -1.238  0.00  0.00    -0.329 N 
ATOM      2  C   UNL     1       5.498   2.714  -1.247  0.00  0.00    +0.069 A 
ATOM      3  C   UNL     1       6.872   2.526  -1.171  0.00  0.00    +0.030 A 
ATOM      4  C   UNL     1       7.713   3.617  -1.207  0.00  0.00    +0.030 A 
ATOM      5  C   UNL     1       7.197   4.901  -1.318  0.00  0.00    +0.107 A 
ATOM      6  C   UNL     1       5.848   5.104  -1.393  0.00  0.00    +0.058 A 
ATOM      7  C   UNL     1       4.976   4.013  -1.359  0.00  0.00    +0.091 A 
ATOM      8  N   UNL     1       3.624   3.892  -1.417  0.00  0.00    -0.234 NA
ATOM      9  C   UNL     1       3.294   2.636  -1.341  0.00  0.00    +0.094 A 
ENDROOT
BRANCH   5  10
ATOM     10  S   UNL     1       8.291   6.281  -1.362  0.00  0.00    +0.056 S 
ATOM     11  O   UNL     1       7.544   7.406  -0.919  0.00  0.00    -0.153 OA
ATOM     12  O   UNL     1       9.493   5.867  -0.726  0.00  0.00    -0.153 OA
BRANCH  10  13
ATOM     13  N   UNL     1       8.667   6.557  -2.951  0.00  0.00    -0.204 NA
ATOM     14  H   UNL     1       8.870   7.457  -3.252  0.00  0.00    +0.144 HD
ATOM     15  H   UNL     1       8.684   5.820  -3.581  0.00  0.00    +0.144 HD
ENDBRANCH  10  13
ENDBRANCH   5  10
BRANCH   1  16
ATOM     16  C   UNL     1       4.449   0.404  -1.138  0.00  0.00    +0.123 C 
BRANCH  16  17
ATOM     17  C   UNL     1       4.528  -0.202  -2.541  0.00  0.00    +0.021 C 
BRANCH  17  19
ATOM     18  C   UNL     1       4.648  -2.334  -3.838  0.00  0.00    +0.004 C 
ATOM     19  C   UNL     1       4.569  -1.728  -2.436  0.00  0.00    -0.002 C 
ENDBRANCH  17  19
ENDBRANCH  16  17
ENDBRANCH   1  16
BRANCH   9  20
ATOM     20  C   UNL     1       1.882   2.112  -1.371  0.00  0.00    -0.006 C 
BRANCH  20  21
ATOM     21  N   UNL     1       1.365   2.037   0.009  0.00  0.00    +0.388 N 
ATOM     22  H   UNL     1       1.380   2.974   0.427  0.00  0.00    -0.084 HD
ATOM     23  H   UNL     1       1.960   1.407   0.559  0.00  0.00    -0.084 HD
BRANCH  21  24
ATOM     24  C   UNL     1      -0.019   1.526   0.010  0.00  0.00    -0.043 C 
ATOM     25  C   UNL     1       0.002  -0.004   0.002  0.00  0.00    -0.009 C 
BRANCH  24  26
ATOM     26  C   UNL     1      -0.724   2.012   1.250  0.00  0.00    -0.059 A 
ATOM     27  C   UNL     1      -0.053   2.043   2.459  0.00  0.00    +0.005 A 
ATOM     28  C   UNL     1      -0.697   2.493   3.596  0.00  0.00    +0.041 A 
ATOM     29  C   UNL     1      -2.017   2.903   3.529  0.00  0.00    +0.158 A 
ATOM     30  C   UNL     1      -2.691   2.866   2.317  0.00  0.00    +0.159 A 
ATOM     31  C   UNL     1      -2.042   2.421   1.179  0.00  0.00    +0.043 A 
ATOM     32  F   UNL     1      -3.980   3.266   2.249  0.00  0.00    -0.202 F 
ATOM     33  F   UNL     1      -2.648   3.337   4.641  0.00  0.00    -0.202 F 
ENDBRANCH  24  26
ENDBRANCH  21  24
ENDBRANCH  20  21
ENDBRANCH   9  20
TORSDOF 9
