REMARK  Name = ZINC48095745
REMARK  11 active torsions:
REMARK  status: ('A' for Active; 'I' for Inactive)
REMARK    1  A    between atoms: C_1  and  N_2
REMARK    2  A    between atoms: N_2  and  C_3
REMARK    3  A    between atoms: N_2  and  C_4
REMARK    4  A    between atoms: C_4  and  C_6
REMARK    5  A    between atoms: C_4  and  C_23
REMARK    6  A    between atoms: C_6  and  N_7
REMARK    7  A    between atoms: N_10  and  C_11
REMARK    8  A    between atoms: C_16  and  O_17
REMARK    9  A    between atoms: O_17  and  C_18
REMARK   10  A    between atoms: C_18  and  C_19
REMARK   11  A    between atoms: C_19  and  C_20
REMARK                            x       y       z     vdW  Elec       q    Type
REMARK                         _______ _______ _______ _____ _____    ______ ____
ROOT
ATOM      1  N   UNL     1       0.486  -1.427   0.425  0.00  0.00    -0.300 N 
ATOM      2  C   UNL     1       1.116  -2.619   0.447  0.00  0.00    +0.304 C 
ATOM      3  O   UNL     1       1.171  -3.296  -0.562  0.00  0.00    -0.253 OA
ATOM      4  N   UNL     1       1.685  -3.060   1.586  0.00  0.00    -0.266 N 
ATOM      5  H   UNL     1       0.443  -0.887   1.230  0.00  0.00    +0.150 HD
ATOM      6  H   UNL     1       1.569  -2.562   2.410  0.00  0.00    +0.156 HD
ENDROOT
BRANCH   4   7
ATOM      7  C   UNL     1       2.444  -4.238   1.580  0.00  0.00    +0.077 A 
ATOM      8  C   UNL     1       2.943  -4.738   0.386  0.00  0.00    +0.027 A 
ATOM      9  C   UNL     1       3.691  -5.900   0.382  0.00  0.00    +0.002 A 
ATOM     10  C   UNL     1       3.944  -6.567   1.567  0.00  0.00    +0.004 A 
ATOM     11  C   UNL     1       3.450  -6.075   2.760  0.00  0.00    +0.047 A 
ATOM     12  C   UNL     1       2.704  -4.908   2.773  0.00  0.00    +0.142 A 
BRANCH  12  13
ATOM     13  O   UNL     1       2.223  -4.419   3.947  0.00  0.00    -0.490 OA
BRANCH  13  14
ATOM     14  C   UNL     1       2.529  -5.158   5.132  0.00  0.00    +0.238 C 
BRANCH  14  15
ATOM     15  C   UNL     1       1.907  -4.461   6.343  0.00  0.00    +0.136 C 
BRANCH  15  16
ATOM     16  C   UNL     1       2.230  -5.240   7.592  0.00  0.00    +0.214 C 
ATOM     17  O   UNL     1       2.893  -6.253   7.520  0.00  0.00    -0.276 OA
ATOM     18  N   UNL     1       1.783  -4.811   8.789  0.00  0.00    -0.329 N 
ATOM     19  H   UNL     1       1.254  -4.000   8.846  0.00  0.00    +0.145 HD
ATOM     20  H   UNL     1       1.991  -5.312   9.593  0.00  0.00    +0.145 HD
ENDBRANCH  15  16
ENDBRANCH  14  15
ENDBRANCH  13  14
ENDBRANCH  12  13
ENDBRANCH   4   7
BRANCH   1  21
ATOM     21  C   UNL     1      -0.132  -0.948  -0.813  0.00  0.00    +0.095 C 
BRANCH  21  22
ATOM     22  C   UNL     1      -0.882   0.357  -0.537  0.00  0.00    -0.021 C 
BRANCH  22  23
ATOM     23  C   UNL     1      -2.046   0.082   0.380  0.00  0.00    -0.059 A 
ATOM     24  C   UNL     1      -3.216  -0.449  -0.129  0.00  0.00    +0.005 A 
ATOM     25  C   UNL     1      -4.284  -0.702   0.711  0.00  0.00    +0.038 A 
ATOM     26  C   UNL     1      -4.182  -0.422   2.063  0.00  0.00    +0.123 A 
ATOM     27  C   UNL     1      -3.009   0.110   2.572  0.00  0.00    +0.038 A 
ATOM     28  C   UNL     1      -1.941   0.356   1.731  0.00  0.00    +0.005 A 
ATOM     29  F   UNL     1      -5.226  -0.668   2.885  0.00  0.00    -0.205 F 
ENDBRANCH  22  23
BRANCH  22  31
ATOM     30  C   UNL     1      -2.142   2.139  -1.532  0.00  0.00    -0.096 C 
ATOM     31  N   UNL     1      -1.377   0.915  -1.802  0.00  0.00    +0.382 N 
ATOM     32  C   UNL     1      -0.239   1.231  -2.676  0.00  0.00    -0.096 C 
ATOM     33  H   UNL     1      -1.973   0.239  -2.257  0.00  0.00    -0.082 HD
ENDBRANCH  22  31
ENDBRANCH  21  22
ENDBRANCH   1  21
TORSDOF 9
