REMARK  Name = ZINC41641685
REMARK  10 active torsions:
REMARK  status: ('A' for Active; 'I' for Inactive)
REMARK    1  A    between atoms: C_1  and  C_2
REMARK    2  A    between atoms: C_2  and  C_3
REMARK    3  A    between atoms: C_3  and  C_5
REMARK    4  A    between atoms: C_3  and  N_21
REMARK    5  A    between atoms: C_5  and  N_6
REMARK    6  A    between atoms: C_7  and  C_9
REMARK    7  A    between atoms: N_11  and  C_12
REMARK    8  A    between atoms: C_17  and  O_18
REMARK    9  A    between atoms: O_18  and  C_19
REMARK   10  A    between atoms: C_19  and  C_20
REMARK                            x       y       z     vdW  Elec       q    Type
REMARK                         _______ _______ _______ _____ _____    ______ ____
ROOT
ATOM      1  N   UNL     1       1.466  -2.477  -2.350  0.00  0.00    -0.309 N 
ATOM      2  C   UNL     1       1.457  -3.776  -2.709  0.00  0.00    +0.299 C 
ATOM      3  O   UNL     1       0.671  -4.543  -2.193  0.00  0.00    -0.265 OA
ATOM      4  H   UNL     1       2.094  -1.864  -2.763  0.00  0.00    +0.149 HD
ENDROOT
BRANCH   2   5
ATOM      5  C   UNL     1       2.414  -4.271  -3.743  0.00  0.00    +0.303 C 
ATOM      6  O   UNL     1       3.200  -3.504  -4.260  0.00  0.00    -0.265 OA
ATOM      7  N   UNL     1       2.405  -5.570  -4.102  0.00  0.00    -0.275 N 
ATOM      8  H   UNL     1       1.739  -6.171  -3.734  0.00  0.00    +0.155 HD
BRANCH   7   9
ATOM      9  C   UNL     1       3.357  -6.053  -5.007  0.00  0.00    +0.076 A 
ATOM     10  C   UNL     1       4.634  -5.510  -5.029  0.00  0.00    +0.027 A 
ATOM     11  C   UNL     1       5.573  -5.988  -5.923  0.00  0.00    +0.002 A 
ATOM     12  C   UNL     1       5.243  -7.008  -6.797  0.00  0.00    +0.004 A 
ATOM     13  C   UNL     1       3.973  -7.553  -6.782  0.00  0.00    +0.047 A 
ATOM     14  C   UNL     1       3.027  -7.083  -5.885  0.00  0.00    +0.142 A 
BRANCH  14  15
ATOM     15  O   UNL     1       1.780  -7.623  -5.865  0.00  0.00    -0.490 OA
BRANCH  15  16
ATOM     16  C   UNL     1       1.513  -8.676  -6.793  0.00  0.00    +0.226 C 
ATOM     17  C   UNL     1       0.069  -9.153  -6.623  0.00  0.00    +0.048 C 
ENDBRANCH  15  16
ENDBRANCH  14  15
ENDBRANCH   7   9
ENDBRANCH   2   5
BRANCH   1  18
ATOM     18  C   UNL     1       0.527  -1.991  -1.336  0.00  0.00    +0.089 C 
BRANCH  18  19
ATOM     19  C   UNL     1       0.841  -0.529  -1.010  0.00  0.00    -0.051 C 
BRANCH  19  20
ATOM     20  N   UNL     1       2.111  -0.454  -0.275  0.00  0.00    +0.385 N 
ATOM     21  C   UNL     1       3.191  -1.017  -1.100  0.00  0.00    -0.073 C 
ATOM     22  C   UNL     1       4.532  -0.655  -0.461  0.00  0.00    +0.017 C 
ATOM     23  C   UNL     1       4.519  -1.029   0.999  0.00  0.00    -0.048 A 
ATOM     24  C   UNL     1       5.726  -1.109   1.676  0.00  0.00    +0.004 A 
ATOM     25  C   UNL     1       5.754  -1.446   3.014  0.00  0.00    +0.000 A 
ATOM     26  C   UNL     1       4.571  -1.705   3.683  0.00  0.00    +0.000 A 
ATOM     27  C   UNL     1       3.369  -1.627   3.009  0.00  0.00    +0.002 A 
ATOM     28  C   UNL     1       3.340  -1.290   1.664  0.00  0.00    -0.061 A 
ATOM     29  C   UNL     1       2.007  -1.226   0.966  0.00  0.00    -0.042 C 
ATOM     30  H   UNL     1       2.318   0.510  -0.057  0.00  0.00    -0.081 HD
ENDBRANCH  19  20
BRANCH  19  32
ATOM     31  C   UNL     1       0.004   1.530   0.130  0.00  0.00    +0.002 C 
ATOM     32  C   UNL     1      -0.281   0.053  -0.148  0.00  0.00    -0.017 C 
ENDBRANCH  19  32
ENDBRANCH  18  19
ENDBRANCH   1  18
TORSDOF 8
