REMARK  Name = ZINC03840960
REMARK  10 active torsions:
REMARK  status: ('A' for Active; 'I' for Inactive)
REMARK    1  A    between atoms: C_1  and  C_2
REMARK    2  A    between atoms: C_10  and  C_12
REMARK    3  A    between atoms: C_12  and  N_71
REMARK    4  A    between atoms: C_13  and  N_71
REMARK    5  A    between atoms: C_14  and  N_71
REMARK    6  A    between atoms: C_16  and  C_37
REMARK    7  A    between atoms: C_19  and  O_36
REMARK    8  A    between atoms: C_21  and  C_25
REMARK    9  A    between atoms: C_25  and  C_27
REMARK   10  A    between atoms: C_25  and  C_28
REMARK                            x       y       z     vdW  Elec       q    Type
REMARK                         _______ _______ _______ _____ _____    ______ ____
ROOT
ATOM      1  C   UNL     1       4.619  -4.918  -2.057  0.00  0.00    +0.014 C 
ATOM      2  C   UNL     1       5.981  -4.252  -2.261  0.00  0.00    +0.042 C 
ATOM      3  C   UNL     1       6.987  -5.291  -2.730  0.00  0.00    +0.057 A 
ATOM      4  C   UNL     1       8.251  -5.290  -2.232  0.00  0.00    +0.015 A 
ATOM      5  S   UNL     1       9.003  -6.655  -3.077  0.00  0.00    -0.057 S 
ATOM      6  C   UNL     1       7.613  -7.120  -4.011  0.00  0.00    +0.165 A 
ATOM      7  N   UNL     1       6.715  -6.237  -3.626  0.00  0.00    -0.229 NA
ATOM      8  N   UNL     1       7.482  -8.156  -4.928  0.00  0.00    -0.266 N 
ATOM      9  C   UNL     1       8.532  -8.961  -5.189  0.00  0.00    +0.202 C 
ATOM     10  O   UNL     1       9.589  -8.781  -4.624  0.00  0.00    -0.277 OA
ATOM     11  C   UNL     1       8.831  -4.361  -1.225  0.00  0.00    +0.051 C 
ATOM     12  C   UNL     1       7.896  -3.145  -1.067  0.00  0.00    -0.022 C 
ATOM     13  C   UNL     1       6.455  -3.640  -0.935  0.00  0.00    +0.033 C 
ATOM     14  C   UNL     1       5.522  -2.468  -0.612  0.00  0.00    +0.123 C 
ATOM     15  C   UNL     1       5.965  -1.776   0.676  0.00  0.00    +0.029 C 
ATOM     16  C   UNL     1       7.385  -1.236   0.482  0.00  0.00    +0.007 C 
ATOM     17  C   UNL     1       8.323  -2.410   0.207  0.00  0.00    +0.008 C 
ATOM     18  C   UNL     1       8.024  -2.226  -2.284  0.00  0.00    +0.012 C 
ATOM     19  H   UNL     1       6.636  -8.300  -5.380  0.00  0.00    +0.157 HD
ENDROOT
BRANCH  15  20
ATOM     20  C   UNL     1       5.014  -0.619   0.989  0.00  0.00    +0.078 C 
ATOM     21  C   UNL     1       5.127   0.444  -0.106  0.00  0.00    +0.017 C 
BRANCH  20  22
ATOM     22  C   UNL     1       5.382  -0.012   2.318  0.00  0.00    +0.219 C 
ATOM     23  O   UNL     1       6.075   0.982   2.360  0.00  0.00    -0.275 OA
ATOM     24  N   UNL     1       4.941  -0.575   3.461  0.00  0.00    -0.300 N 
ATOM     25  C   UNL     1       5.391  -0.044   4.749  0.00  0.00    +0.118 C 
ATOM     26  C   UNL     1       6.245  -1.097   5.465  0.00  0.00    +0.088 C 
ATOM     27  S   UNL     1       5.263  -2.615   5.651  0.00  0.00    -0.158 S 
ATOM     28  C   UNL     1       4.710  -2.961   3.954  0.00  0.00    +0.088 C 
ATOM     29  C   UNL     1       4.019  -1.710   3.399  0.00  0.00    +0.118 C 
ENDBRANCH  20  22
ENDBRANCH  15  20
BRANCH  14  30
ATOM     30  O   UNL     1       4.188  -2.955  -0.453  0.00  0.00    -0.391 OA
ATOM     31  H   UNL     1       3.526  -2.259  -0.344  0.00  0.00    +0.210 HD
ENDBRANCH  14  30
BRANCH   9  32
ATOM     32  C   UNL     1       8.390 -10.085  -6.183  0.00  0.00    +0.018 C 
BRANCH  32  35
ATOM     33  C   UNL     1       9.504 -12.047  -7.062  0.00  0.00    -0.096 C 
ATOM     34  C   UNL     1      10.708  -9.955  -6.871  0.00  0.00    -0.096 C 
ATOM     35  N   UNL     1       9.672 -10.816  -6.262  0.00  0.00    +0.382 N 
ATOM     36  H   UNL     1       9.969 -11.072  -5.313  0.00  0.00    -0.082 HD
ENDBRANCH  32  35
ENDBRANCH   9  32
TORSDOF 5
