REMARK  Name = ZINC43525365
REMARK  8 active torsions:
REMARK  status: ('A' for Active; 'I' for Inactive)
REMARK    1  A    between atoms: C_1  and  N_2
REMARK    2  A    between atoms: C_3  and  C_12
REMARK    3  A    between atoms: C_5  and  C_7
REMARK    4  A    between atoms: C_21  and  C_23
REMARK    5  A    between atoms: C_23  and  O_24
REMARK    6  A    between atoms: O_24  and  C_25
REMARK    7  A    between atoms: N_27  and  C_28
REMARK    8  A    between atoms: C_32  and  C_34
REMARK                            x       y       z     vdW  Elec       q    Type
REMARK                         _______ _______ _______ _____ _____    ______ ____
ROOT
ATOM      1  C   UNL     1       0.171  -0.537  -2.329  0.00  0.00    +0.024 C 
ATOM      2  C   UNL     1       1.561  -0.254  -2.903  0.00  0.00    -0.068 C 
ATOM      3  N   UNL     1       1.831  -1.152  -4.028  0.00  0.00    +0.384 N 
ATOM      4  C   UNL     1       1.813  -2.549  -3.589  0.00  0.00    -0.078 C 
ATOM      5  C   UNL     1       0.431  -2.908  -3.038  0.00  0.00    -0.015 C 
ATOM      6  C   UNL     1      -0.478  -1.672  -3.132  0.00  0.00    -0.007 C 
ATOM      7  C   UNL     1      -0.556  -1.241  -4.603  0.00  0.00    -0.008 C 
ATOM      8  C   UNL     1       0.860  -0.937  -5.104  0.00  0.00    -0.030 C 
ATOM      9  H   UNL     1       2.753  -0.949  -4.385  0.00  0.00    -0.081 HD
ENDROOT
BRANCH   1  12
ATOM     10  C   UNL     1      -1.821   0.109  -0.043  0.00  0.00    +0.172 C 
ATOM     11  N   UNL     1      -0.581  -0.659   0.102  0.00  0.00    -0.271 N 
ATOM     12  C   UNL     1       0.294  -0.947  -0.884  0.00  0.00    +0.041 A 
ATOM     13  C   UNL     1       1.302  -1.670  -0.344  0.00  0.00    +0.048 A 
ATOM     14  C   UNL     1       1.034  -1.829   1.020  0.00  0.00    +0.066 A 
ATOM     15  N   UNL     1      -0.092  -1.218   1.289  0.00  0.00    -0.176 NA
BRANCH  14  16
ATOM     16  C   UNL     1       1.895  -2.571   2.009  0.00  0.00    +0.040 C 
ATOM     17  C   UNL     1       3.381  -2.444   1.615  0.00  0.00    +0.010 C 
ATOM     18  C   UNL     1       3.986  -3.826   1.964  0.00  0.00    +0.001 C 
ATOM     19  C   UNL     1       2.853  -4.805   1.568  0.00  0.00    +0.001 C 
ATOM     20  C   UNL     1       1.559  -4.072   1.980  0.00  0.00    +0.010 C 
ENDBRANCH  14  16
ENDBRANCH   1  12
BRANCH   8  21
ATOM     21  C   UNL     1       1.193  -1.858  -6.280  0.00  0.00    +0.219 C 
BRANCH  21  22
ATOM     22  O   UNL     1       2.490  -1.536  -6.785  0.00  0.00    -0.452 OA
BRANCH  22  23
ATOM     23  C   UNL     1       2.937  -2.260  -7.829  0.00  0.00    +0.404 C 
ATOM     24  O   UNL     1       2.244  -3.141  -8.298  0.00  0.00    -0.226 OA
ATOM     25  N   UNL     1       4.152  -2.008  -8.353  0.00  0.00    -0.251 N 
ATOM     26  H   UNL     1       4.736  -1.356  -7.934  0.00  0.00    +0.158 HD
BRANCH  25  27
ATOM     27  C   UNL     1       4.573  -2.686  -9.502  0.00  0.00    +0.037 A 
ATOM     28  C   UNL     1       3.650  -3.046 -10.476  0.00  0.00    +0.023 A 
ATOM     29  C   UNL     1       4.068  -3.715 -11.609  0.00  0.00    +0.002 A 
ATOM     30  C   UNL     1       5.405  -4.027 -11.775  0.00  0.00    +0.012 A 
ATOM     31  C   UNL     1       6.327  -3.671 -10.808  0.00  0.00    +0.057 A 
ATOM     32  C   UNL     1       5.915  -2.996  -9.675  0.00  0.00    +0.035 A 
BRANCH  31  33
ATOM     33  C   UNL     1       7.782  -4.014 -10.993  0.00  0.00    +0.417 C 
ATOM     34  F   UNL     1       7.952  -4.685 -12.209  0.00  0.00    -0.166 F 
ATOM     35  F   UNL     1       8.541  -2.839 -11.000  0.00  0.00    -0.166 F 
ATOM     36  F   UNL     1       8.205  -4.836  -9.943  0.00  0.00    -0.166 F 
ENDBRANCH  31  33
ENDBRANCH  25  27
ENDBRANCH  22  23
ENDBRANCH  21  22
ENDBRANCH   8  21
TORSDOF 7
