REMARK  Name = ZINC19904793
REMARK  12 active torsions:
REMARK  status: ('A' for Active; 'I' for Inactive)
REMARK    1  A    between atoms: C_1  and  C_2
REMARK    2  A    between atoms: C_3  and  C_32
REMARK    3  A    between atoms: C_4  and  C_25
REMARK    4  A    between atoms: C_10  and  C_15
REMARK    5  A    between atoms: C_18  and  O_23
REMARK    6  A    between atoms: C_19  and  O_21
REMARK    7  A    between atoms: O_21  and  C_22
REMARK    8  A    between atoms: O_23  and  C_24
REMARK    9  A    between atoms: C_28  and  O_31
REMARK   10  A    between atoms: C_32  and  O_34
REMARK   11  A    between atoms: O_34  and  C_35
REMARK   12  A    between atoms: C_35  and  C_36
REMARK                            x       y       z     vdW  Elec       q    Type
REMARK                         _______ _______ _______ _____ _____    ______ ____
ROOT
ATOM      1  C   UNL     1       2.584   8.020  -3.886  0.00  0.00    +0.061 C 
ATOM      2  C   UNL     1       2.229   7.525  -2.507  0.00  0.00    +0.016 C 
ATOM      3  C   UNL     1       2.349   8.348  -1.451  0.00  0.00    +0.065 C 
ATOM      4  C   UNL     1       1.999   7.893  -0.065  0.00  0.00    +0.092 C 
ATOM      5  C   UNL     1       1.942   6.388   0.013  0.00  0.00    +0.024 C 
ATOM      6  C   UNL     1       1.838   5.644  -1.108  0.00  0.00    +0.016 C 
ATOM      7  N   UNL     1       1.788   6.242  -2.338  0.00  0.00    -0.321 N 
ATOM      8  C   UNL     1       1.778   4.138  -1.038  0.00  0.00    +0.059 C 
ATOM      9  C   UNL     1       1.111   3.711   0.272  0.00  0.00    +0.032 C 
ATOM     10  C   UNL     1       1.917   4.292   1.438  0.00  0.00    +0.088 C 
ATOM     11  C   UNL     1       1.997   5.786   1.282  0.00  0.00    +0.162 C 
ATOM     12  O   UNL     1       2.111   6.484   2.269  0.00  0.00    -0.292 OA
ATOM     13  H   UNL     1       1.389   5.681  -3.196  0.00  0.00    +0.152 HD
ENDROOT
BRANCH   9  14
ATOM     14  C   UNL     1       1.096   2.207   0.365  0.00  0.00    -0.040 A 
ATOM     15  C   UNL     1       2.286   1.503   0.353  0.00  0.00    +0.008 A 
ATOM     16  C   UNL     1       2.278   0.123   0.440  0.00  0.00    +0.049 A 
ATOM     17  C   UNL     1       1.075  -0.557   0.538  0.00  0.00    +0.161 A 
ATOM     18  C   UNL     1      -0.123   0.151   0.550  0.00  0.00    +0.162 A 
ATOM     19  C   UNL     1      -0.107   1.534   0.463  0.00  0.00    +0.053 A 
BRANCH  18  20
ATOM     20  O   UNL     1      -1.306  -0.513   0.647  0.00  0.00    -0.491 OA
ATOM     21  C   UNL     1      -2.495   0.280   0.654  0.00  0.00    +0.277 C 
ENDBRANCH  18  20
BRANCH  17  22
ATOM     22  O   UNL     1       1.065  -1.915   0.622  0.00  0.00    -0.491 OA
ATOM     23  C   UNL     1       2.332  -2.575   0.604  0.00  0.00    +0.277 C 
ENDBRANCH  17  22
ENDBRANCH   9  14
BRANCH   4  24
ATOM     24  C   UNL     1       0.655   8.459   0.316  0.00  0.00    -0.035 A 
ATOM     25  C   UNL     1      -0.468   8.127  -0.420  0.00  0.00    +0.008 A 
ATOM     26  C   UNL     1      -1.702   8.640  -0.070  0.00  0.00    +0.046 A 
ATOM     27  C   UNL     1      -1.812   9.497   1.015  0.00  0.00    +0.117 A 
ATOM     28  C   UNL     1      -0.684   9.833   1.749  0.00  0.00    +0.046 A 
ATOM     29  C   UNL     1       0.547   9.313   1.398  0.00  0.00    +0.008 A 
BRANCH  27  30
ATOM     30  O   UNL     1      -3.024  10.008   1.359  0.00  0.00    -0.507 OA
ATOM     31  H   UNL     1      -3.111  10.688   2.219  0.00  0.00    +0.292 HD
ENDBRANCH  27  30
ENDBRANCH   4  24
BRANCH   3  32
ATOM     32  C   UNL     1       2.815   9.669  -1.651  0.00  0.00    +0.338 C 
ATOM     33  O   UNL     1       3.202  10.018  -2.750  0.00  0.00    -0.245 OA
BRANCH  32  34
ATOM     34  O   UNL     1       2.830  10.542  -0.621  0.00  0.00    -0.457 OA
BRANCH  34  35
ATOM     35  C   UNL     1       3.313  11.859  -0.894  0.00  0.00    +0.268 C 
BRANCH  35  36
ATOM     36  C   UNL     1       3.256  12.686   0.364  0.00  0.00    -0.010 A 
ATOM     37  C   UNL     1       2.122  13.419   0.659  0.00  0.00    +0.007 A 
ATOM     38  C   UNL     1       2.068  14.173   1.816  0.00  0.00    +0.000 A 
ATOM     39  C   UNL     1       3.152  14.203   2.673  0.00  0.00    +0.000 A 
ATOM     40  C   UNL     1       4.289  13.475   2.375  0.00  0.00    +0.000 A 
ATOM     41  C   UNL     1       4.341  12.716   1.221  0.00  0.00    +0.007 A 
ENDBRANCH  35  36
ENDBRANCH  34  35
ENDBRANCH  32  34
ENDBRANCH   3  32
TORSDOF 9
