REMARK  Name = ZINC04717945
REMARK  8 active torsions:
REMARK  status: ('A' for Active; 'I' for Inactive)
REMARK    1  A    between atoms: C_1  and  O_2
REMARK    2  A    between atoms: O_2  and  C_3
REMARK    3  A    between atoms: C_13  and  C_17
REMARK    4  A    between atoms: C_20  and  O_25
REMARK    5  A    between atoms: C_21  and  O_23
REMARK    6  A    between atoms: O_23  and  C_24
REMARK    7  A    between atoms: O_25  and  C_26
REMARK    8  A    between atoms: C_26  and  C_27
REMARK                            x       y       z     vdW  Elec       q    Type
REMARK                         _______ _______ _______ _____ _____    ______ ____
ROOT
ATOM      1  C   UNL     1       2.938   3.870  -0.007  0.00  0.00    +0.121 A 
ATOM      2  C   UNL     1       3.377   2.549  -0.017  0.00  0.00    +0.047 A 
ATOM      3  C   UNL     1       2.474   1.510  -0.012  0.00  0.00    +0.030 A 
ATOM      4  C   UNL     1       1.108   1.774   0.001  0.00  0.00    +0.047 A 
ATOM      5  C   UNL     1       0.660   3.109   0.012  0.00  0.00    +0.006 A 
ATOM      6  C   UNL     1       1.587   4.154   0.007  0.00  0.00    +0.056 A 
ATOM      7  C   UNL     1      -0.796   3.038   0.026  0.00  0.00    -0.022 A 
ATOM      8  C   UNL     1      -1.138   1.734   0.016  0.00  0.00    +0.010 A 
ATOM      9  N   UNL     1      -0.011   0.966   0.007  0.00  0.00    -0.359 N 
ATOM     10  H   UNL     1       0.002  -0.004   0.002  0.00  0.00    +0.166 HD
ATOM     11  C   UNL     1      -2.574   1.261   0.030  0.00  0.00    +0.007 C 
ATOM     12  C   UNL     1      -3.156   3.584   0.450  0.00  0.00    -0.076 C 
ATOM     13  C   UNL     1      -1.795   4.167   0.045  0.00  0.00    +0.018 C 
ATOM     14  N   UNL     1      -3.446   2.388  -0.368  0.00  0.00    +0.387 N 
ATOM     15  H   UNL     1      -4.428   2.119  -0.235  0.00  0.00    -0.084 HD
ATOM     16  H   UNL     1      -3.283   2.609  -1.358  0.00  0.00    -0.084 HD
ENDROOT
BRANCH  11  17
ATOM     17  C   UNL     1      -2.742   0.132  -0.953  0.00  0.00    -0.052 A 
ATOM     18  C   UNL     1      -2.863   0.404  -2.303  0.00  0.00    +0.006 A 
ATOM     19  C   UNL     1      -3.012  -0.629  -3.209  0.00  0.00    +0.049 A 
ATOM     20  C   UNL     1      -3.053  -1.940  -2.764  0.00  0.00    +0.163 A 
ATOM     21  C   UNL     1      -2.937  -2.215  -1.405  0.00  0.00    +0.162 A 
ATOM     22  C   UNL     1      -2.782  -1.175  -0.503  0.00  0.00    +0.051 A 
BRANCH  21  23
ATOM     23  O   UNL     1      -2.975  -3.500  -0.964  0.00  0.00    -0.491 OA
ATOM     24  C   UNL     1      -2.850  -3.706   0.445  0.00  0.00    +0.277 C 
ENDBRANCH  21  23
BRANCH  20  25
ATOM     25  O   UNL     1      -3.205  -2.957  -3.654  0.00  0.00    -0.479 OA
BRANCH  25  26
ATOM     26  C   UNL     1      -3.318  -2.601  -5.034  0.00  0.00    +0.324 C 
BRANCH  26  27
ATOM     27  C   UNL     1      -3.480  -3.849  -5.863  0.00  0.00    +0.248 C 
ATOM     28  O   UNL     1      -3.497  -4.936  -5.326  0.00  0.00    -0.272 OA
ATOM     29  N   UNL     1      -3.605  -3.757  -7.202  0.00  0.00    -0.327 N 
ATOM     30  H   UNL     1      -3.591  -2.887  -7.631  0.00  0.00    +0.145 HD
ATOM     31  H   UNL     1      -3.709  -4.560  -7.736  0.00  0.00    +0.145 HD
ENDBRANCH  26  27
ENDBRANCH  25  26
ENDBRANCH  20  25
ENDBRANCH  11  17
BRANCH   1  33
ATOM     32  C   UNL     1       5.225   4.521  -0.025  0.00  0.00    +0.277 C 
ATOM     33  O   UNL     1       3.843   4.885  -0.011  0.00  0.00    -0.495 OA
ENDBRANCH   1  33
TORSDOF 6
