REMARK  Name = ZINC45709529
REMARK  5 active torsions:
REMARK  status: ('A' for Active; 'I' for Inactive)
REMARK    1  A    between atoms: C_1  and  C_2
REMARK    2  A    between atoms: N_5  and  C_11
REMARK    3  A    between atoms: C_7  and  C_9
REMARK    4  A    between atoms: C_7  and  C_10
REMARK    5  A    between atoms: C_11  and  N_13
REMARK                            x       y       z     vdW  Elec       q    Type
REMARK                         _______ _______ _______ _____ _____    ______ ____
ROOT
ATOM      1  C   UNL     1      -0.023   1.524   0.012  0.00  0.00    +0.039 C 
ATOM      2  C   UNL     1      -0.001  -0.005   0.003  0.00  0.00    +0.133 C 
ATOM      3  C   UNL     1       0.720  -0.500  -1.256  0.00  0.00    +0.138 C 
ATOM      4  N   UNL     1       0.892  -1.957  -1.150  0.00  0.00    -0.308 N 
ATOM      5  C   UNL     1       1.481  -2.496   0.086  0.00  0.00    +0.141 C 
ATOM      6  C   UNL     1       0.723  -1.904   1.280  0.00  0.00    +0.080 C 
ATOM      7  O   UNL     1       0.691  -0.480   1.160  0.00  0.00    -0.368 OA
ATOM      8  C   UNL     1       1.432  -2.292   2.579  0.00  0.00    +0.043 C 
ATOM      9  C   UNL     1      -0.708  -2.446   1.296  0.00  0.00    +0.043 C 
ENDROOT
BRANCH   4  10
ATOM     10  C   UNL     1       0.523  -2.775  -2.156  0.00  0.00    +0.130 C 
ATOM     11  S   UNL     1       0.852  -4.452  -2.061  0.00  0.00    -0.019 S 
BRANCH  10  12
ATOM     12  N   UNL     1      -0.106  -2.272  -3.237  0.00  0.00    -0.340 N 
ATOM     13  H   UNL     1      -0.227  -1.313  -3.325  0.00  0.00    +0.144 HD
ATOM     14  H   UNL     1      -0.438  -2.868  -3.926  0.00  0.00    +0.144 HD
ENDBRANCH  10  12
ENDBRANCH   4  10
TORSDOF 2
