REMARK  Name = ZINC44335440
REMARK  9 active torsions:
REMARK  status: ('A' for Active; 'I' for Inactive)
REMARK    1  A    between atoms: C_1  and  C_2
REMARK    2  A    between atoms: C_3  and  C_12
REMARK    3  A    between atoms: C_4  and  O_11
REMARK    4  A    between atoms: C_6  and  C_9
REMARK    5  A    between atoms: C_12  and  C_13
REMARK    6  A    between atoms: C_13  and  C_15
REMARK    7  A    between atoms: C_13  and  N_19
REMARK    8  A    between atoms: C_15  and  O_17
REMARK    9  A    between atoms: O_17  and  C_18
REMARK                            x       y       z     vdW  Elec       q    Type
REMARK                         _______ _______ _______ _____ _____    ______ ____
ROOT
ATOM      1  C   UNL     1      -0.018   1.503   0.010  0.00  0.00    +0.045 C 
ATOM      2  C   UNL     1       0.002  -0.004   0.002  0.00  0.00    -0.030 A 
ATOM      3  C   UNL     1       0.006  -0.688  -1.199  0.00  0.00    -0.002 A 
ATOM      4  C   UNL     1       0.025  -2.074  -1.206  0.00  0.00    +0.134 A 
ATOM      5  C   UNL     1       0.041  -2.773  -0.007  0.00  0.00    +0.063 A 
ATOM      6  C   UNL     1       0.037  -2.085   1.192  0.00  0.00    -0.019 A 
ATOM      7  C   UNL     1       0.023  -0.701   1.196  0.00  0.00    +0.025 A 
ATOM      8 BR   UNL     1       0.025   0.237   2.838  0.00  0.00    -0.050 Br
ATOM      9  C   UNL     1       0.053  -2.842   2.495  0.00  0.00    +0.046 C 
ATOM     10 BR   UNL     1       0.066  -4.664  -0.013  0.00  0.00    -0.046 Br
ENDROOT
BRANCH   4  11
ATOM     11  O   UNL     1       0.028  -2.749  -2.387  0.00  0.00    -0.505 OA
ATOM     12  H   UNL     1       0.912  -2.931  -2.733  0.00  0.00    +0.292 HD
ENDBRANCH   4  11
BRANCH   3  13
ATOM     13  C   UNL     1      -0.012   0.073  -2.500  0.00  0.00    +0.034 C 
BRANCH  13  14
ATOM     14  C   UNL     1       1.425   0.351  -2.947  0.00  0.00    +0.040 C 
BRANCH  14  15
ATOM     15  N   UNL     1       2.074   1.248  -1.981  0.00  0.00    +0.387 N 
ATOM     16  H   UNL     1       1.563   2.116  -1.932  0.00  0.00    -0.089 HD
ATOM     17  H   UNL     1       2.083   0.811  -1.071  0.00  0.00    -0.089 HD
ATOM     18  H   UNL     1       3.021   1.431  -2.276  0.00  0.00    -0.089 HD
ENDBRANCH  14  15
BRANCH  14  19
ATOM     19  C   UNL     1       1.411   1.002  -4.306  0.00  0.00    +0.292 C 
ATOM     20  O   UNL     1       1.545   2.199  -4.404  0.00  0.00    -0.253 OA
BRANCH  19  21
ATOM     21  O   UNL     1       1.248   0.253  -5.408  0.00  0.00    -0.469 OA
ATOM     22  C   UNL     1       1.244   0.937  -6.662  0.00  0.00    +0.280 C 
ENDBRANCH  19  21
ENDBRANCH  14  19
ENDBRANCH  13  14
ENDBRANCH   3  13
TORSDOF 6
