REMARK  Name = ZINC04282402
REMARK  8 active torsions:
REMARK  status: ('A' for Active; 'I' for Inactive)
REMARK    1  A    between atoms: C_4  and  C_7
REMARK    2  A    between atoms: C_7  and  O_8
REMARK    3  A    between atoms: O_8  and  C_9
REMARK    4  A    between atoms: C_12  and  C_15
REMARK    5  A    between atoms: C_16  and  C_26
REMARK    6  A    between atoms: N_18  and  C_20
REMARK    7  A    between atoms: N_27  and  N_28
REMARK    8  A    between atoms: C_29  and  C_31
REMARK                            x       y       z     vdW  Elec       q    Type
REMARK                         _______ _______ _______ _____ _____    ______ ____
ROOT
ATOM      1  C   UNL     1       9.564  -2.140   4.429  0.00  0.00    +0.102 A 
ATOM      2  C   UNL     1       8.515  -3.163   4.453  0.00  0.00    +0.040 A 
ATOM      3  C   UNL     1       9.038  -4.243   5.110  0.00  0.00    +0.124 A 
ATOM      4  N   UNL     1      10.305  -3.944   5.464  0.00  0.00    -0.239 N 
ATOM      5  N   UNL     1      10.612  -2.647   5.042  0.00  0.00    -0.166 NA
ENDROOT
BRANCH   1   9
ATOM      6  C   UNL     1       9.274   1.736   2.703  0.00  0.00    +0.121 A 
ATOM      7  C   UNL     1       8.231   1.242   3.476  0.00  0.00    +0.046 A 
ATOM      8  C   UNL     1       8.322  -0.014   4.037  0.00  0.00    +0.013 A 
ATOM      9  C   UNL     1       9.463  -0.789   3.827  0.00  0.00    +0.003 A 
ATOM     10  C   UNL     1      10.510  -0.287   3.055  0.00  0.00    +0.013 A 
ATOM     11  C   UNL     1      10.411   0.967   2.493  0.00  0.00    +0.046 A 
BRANCH   6  12
ATOM     12  O   UNL     1       9.181   2.974   2.151  0.00  0.00    -0.487 OA
BRANCH  12  13
ATOM     13  C   UNL     1      10.289   3.420   1.368  0.00  0.00    +0.264 C 
BRANCH  13  17
ATOM     14  C   UNL     1       9.493   7.343  -0.123  0.00  0.00    +0.000 A 
ATOM     15  C   UNL     1      10.123   7.182   1.097  0.00  0.00    +0.000 A 
ATOM     16  C   UNL     1      10.381   5.913   1.579  0.00  0.00    +0.007 A 
ATOM     17  C   UNL     1      10.008   4.804   0.842  0.00  0.00    -0.010 A 
ATOM     18  C   UNL     1       9.383   4.965  -0.381  0.00  0.00    +0.007 A 
ATOM     19  C   UNL     1       9.121   6.235  -0.861  0.00  0.00    +0.000 A 
ENDBRANCH  13  17
ENDBRANCH  12  13
ENDBRANCH   6  12
ENDBRANCH   1   9
BRANCH   4  20
ATOM     20  C   UNL     1      11.175  -4.797   6.153  0.00  0.00    +0.065 A 
ATOM     21  C   UNL     1      10.754  -6.066   6.527  0.00  0.00    +0.028 A 
ATOM     22  C   UNL     1      11.617  -6.908   7.202  0.00  0.00    +0.002 A 
ATOM     23  C   UNL     1      12.895  -6.484   7.515  0.00  0.00    +0.000 A 
ATOM     24  C   UNL     1      13.316  -5.218   7.148  0.00  0.00    +0.002 A 
ATOM     25  C   UNL     1      12.460  -4.374   6.469  0.00  0.00    +0.028 A 
ENDBRANCH   4  20
BRANCH   2  26
ATOM     26  C   UNL     1       7.160  -3.049   3.886  0.00  0.00    +0.142 C 
ATOM     27  N   UNL     1       6.832  -2.001   3.194  0.00  0.00    -0.187 NA
BRANCH  27  28
ATOM     28  N   UNL     1       5.544  -1.892   2.655  0.00  0.00    -0.203 N 
ATOM     29  C   UNL     1       5.204  -0.804   1.936  0.00  0.00    +0.263 C 
ATOM     30  O   UNL     1       6.015   0.084   1.756  0.00  0.00    -0.268 OA
ATOM     31  H   UNL     1       4.897  -2.600   2.799  0.00  0.00    +0.178 HD
BRANCH  29  32
ATOM     32  C   UNL     1       3.846  -0.689   1.368  0.00  0.00    +0.042 A 
ATOM     33  C   UNL     1       2.913  -1.708   1.574  0.00  0.00    +0.017 A 
ATOM     34  C   UNL     1       1.646  -1.599   1.043  0.00  0.00    +0.050 A 
ATOM     35  C   UNL     1       1.292  -0.479   0.303  0.00  0.00    +0.166 A 
ATOM     36  C   UNL     1       2.220   0.542   0.094  0.00  0.00    +0.167 A 
ATOM     37  C   UNL     1       3.492   0.439   0.623  0.00  0.00    +0.062 A 
ATOM     38  O   UNL     1       1.631   1.519  -0.656  0.00  0.00    -0.453 OA
ATOM     39  C   UNL     1       0.215   1.277  -0.557  0.00  0.00    +0.466 C 
ATOM     40  O   UNL     1       0.126  -0.140  -0.316  0.00  0.00    -0.453 OA
ENDBRANCH  29  32
ENDBRANCH  27  28
ENDBRANCH   2  26
TORSDOF 8
