REMARK  Name = ZINC39167624
REMARK  16 active torsions:
REMARK  status: ('A' for Active; 'I' for Inactive)
REMARK    1  A    between atoms: C_1  and  C_2
REMARK    2  A    between atoms: C_2  and  N_3
REMARK    3  A    between atoms: N_3  and  C_4
REMARK    4  A    between atoms: C_4  and  C_5
REMARK    5  A    between atoms: C_4  and  N_35
REMARK    6  A    between atoms: C_5  and  C_7
REMARK    7  A    between atoms: C_7  and  O_8
REMARK    8  A    between atoms: O_8  and  C_9
REMARK    9  A    between atoms: C_12  and  C_17
REMARK   10  A    between atoms: C_14  and  O_15
REMARK   11  A    between atoms: O_15  and  C_16
REMARK   12  A    between atoms: C_19  and  C_33
REMARK   13  A    between atoms: C_20  and  N_32
REMARK   14  A    between atoms: C_26  and  C_28
REMARK   15  A    between atoms: N_35  and  C_36
REMARK   16  A    between atoms: C_36  and  C_37
REMARK                            x       y       z     vdW  Elec       q    Type
REMARK                         _______ _______ _______ _____ _____    ______ ____
ROOT
ATOM      1  C   UNL     1       1.709  -1.832   6.055  0.00  0.00    +0.163 A 
ATOM      2  C   UNL     1       0.962  -0.681   6.246  0.00  0.00    +0.050 A 
ATOM      3  C   UNL     1       0.859  -0.124   7.508  0.00  0.00    +0.008 A 
ATOM      4  C   UNL     1       1.501  -0.714   8.581  0.00  0.00    -0.030 A 
ATOM      5  C   UNL     1       2.248  -1.862   8.397  0.00  0.00    +0.054 A 
ATOM      6  C   UNL     1       2.350  -2.429   7.137  0.00  0.00    +0.162 A 
ENDROOT
BRANCH   4   7
ATOM      7  C   UNL     1       1.386  -0.103   9.954  0.00  0.00    +0.115 C 
ATOM      8  C   UNL     1      -0.071  -0.018  10.369  0.00  0.00    +0.099 C 
ATOM      9  C   UNL     1      -0.717   1.163  10.459  0.00  0.00    +0.195 C 
ATOM     10  O   UNL     1      -0.194   2.382  10.231  0.00  0.00    -0.448 OA
ATOM     11  C   UNL     1       0.988   2.451   9.430  0.00  0.00    +0.341 C 
ATOM     12  C   UNL     1       1.887   1.318   9.935  0.00  0.00    +0.096 C 
ATOM     13  N   UNL     1       2.986   1.858  10.285  0.00  0.00    -0.227 NA
ATOM     14  C   UNL     1       2.933   3.209  10.190  0.00  0.00    +0.233 C 
ATOM     15  N   UNL     1       1.786   3.648   9.713  0.00  0.00    -0.213 NA
BRANCH  14  16
ATOM     16  C   UNL     1       4.071   4.117  10.583  0.00  0.00    +0.452 C 
ATOM     17  F   UNL     1       3.702   5.448  10.366  0.00  0.00    -0.163 F 
ATOM     18  F   UNL     1       4.368   3.930  11.938  0.00  0.00    -0.163 F 
ATOM     19  F   UNL     1       5.198   3.813   9.812  0.00  0.00    -0.163 F 
ENDBRANCH  14  16
BRANCH   9  20
ATOM     20  N   UNL     1      -2.040   1.117  10.819  0.00  0.00    -0.329 N 
ATOM     21  H   UNL     1      -2.466   0.263  10.994  0.00  0.00    +0.145 HD
ATOM     22  H   UNL     1      -2.550   1.938  10.898  0.00  0.00    +0.145 HD
ENDBRANCH   9  20
BRANCH   8  23
ATOM     23  C   UNL     1      -0.780  -1.224  10.674  0.00  0.00    +0.101 C 
ATOM     24  N   UNL     1      -1.342  -2.181  10.916  0.00  0.00    -0.191 NA
ENDBRANCH   8  23
ENDBRANCH   4   7
BRANCH   6  25
ATOM     25  O   UNL     1       3.080  -3.562   6.955  0.00  0.00    -0.491 OA
ATOM     26  C   UNL     1       3.711  -4.119   8.111  0.00  0.00    +0.277 C 
ENDBRANCH   6  25
BRANCH   1  27
ATOM     27  O   UNL     1       1.811  -2.381   4.815  0.00  0.00    -0.481 OA
BRANCH  27  28
ATOM     28  C   UNL     1       1.126  -1.714   3.753  0.00  0.00    +0.302 C 
BRANCH  28  29
ATOM     29  C   UNL     1       1.352  -2.461   2.463  0.00  0.00    +0.170 C 
ATOM     30  O   UNL     1       2.029  -3.460   2.455  0.00  0.00    -0.294 OA
BRANCH  29  31
ATOM     31  C   UNL     1       0.733  -1.960   1.184  0.00  0.00    +0.067 C 
BRANCH  31  32
ATOM     32  N   UNL     1       0.713  -0.491   1.192  0.00  0.00    +0.394 N 
ATOM     33  H   UNL     1       1.659  -0.141   1.185  0.00  0.00    -0.083 HD
ATOM     34  H   UNL     1       0.240  -0.165   2.022  0.00  0.00    -0.083 HD
BRANCH  32  36
ATOM     35  C   UNL     1      -0.019   1.526   0.010  0.00  0.00    -0.017 C 
ATOM     36  C   UNL     1       0.002  -0.004   0.002  0.00  0.00    -0.083 C 
ENDBRANCH  32  36
ENDBRANCH  31  32
BRANCH  31  37
ATOM     37  N   UNL     1       1.523  -2.432   0.039  0.00  0.00    -0.323 NA
ATOM     38  H   UNL     1       2.126  -1.703  -0.309  0.00  0.00    +0.121 HD
BRANCH  37  39
ATOM     39  C   UNL     1       0.651  -2.948  -1.025  0.00  0.00    +0.076 C 
ATOM     40  C   UNL     1       1.508  -3.430  -2.197  0.00  0.00    +0.020 C 
ENDBRANCH  37  39
ENDBRANCH  31  37
ENDBRANCH  29  31
ENDBRANCH  28  29
ENDBRANCH  27  28
ENDBRANCH   1  27
TORSDOF 13
