REMARK  Name = ZINC16626200
REMARK  12 active torsions:
REMARK  status: ('A' for Active; 'I' for Inactive)
REMARK    1  A    between atoms: C_1  and  C_2
REMARK    2  A    between atoms: C_2  and  C_4
REMARK    3  A    between atoms: C_2  and  N_53
REMARK    4  A    between atoms: N_6  and  C_7
REMARK    5  A    between atoms: C_10  and  S_13
REMARK    6  A    between atoms: S_13  and  N_16
REMARK    7  A    between atoms: C_17  and  N_53
REMARK    8  A    between atoms: C_18  and  C_19
REMARK    9  A    between atoms: C_18  and  N_53
REMARK   10  A    between atoms: N_21  and  C_22
REMARK   11  A    between atoms: C_27  and  O_28
REMARK   12  A    between atoms: O_28  and  C_29
REMARK                            x       y       z     vdW  Elec       q    Type
REMARK                         _______ _______ _______ _____ _____    ______ ____
ROOT
ATOM      1  C   UNL     1       5.572   8.086   0.458  0.00  0.00    -0.004 C 
ATOM      2  C   UNL     1       4.539   8.208  -0.664  0.00  0.00    +0.017 C 
ENDROOT
BRANCH   2   3
ATOM      3  C   UNL     1       4.178   9.658  -0.859  0.00  0.00    +0.203 C 
ATOM      4  O   UNL     1       3.030  10.022  -0.713  0.00  0.00    -0.277 OA
ATOM      5  N   UNL     1       5.131  10.551  -1.194  0.00  0.00    -0.287 N 
ATOM      6  H   UNL     1       6.034  10.249  -1.378  0.00  0.00    +0.155 HD
BRANCH   5   7
ATOM      7  C   UNL     1       4.816  11.912  -1.277  0.00  0.00    +0.033 A 
ATOM      8  C   UNL     1       3.570  12.311  -1.741  0.00  0.00    +0.025 A 
ATOM      9  C   UNL     1       3.260  13.655  -1.815  0.00  0.00    +0.030 A 
ATOM     10  C   UNL     1       4.194  14.603  -1.441  0.00  0.00    +0.105 A 
ATOM     11  C   UNL     1       5.439  14.209  -0.985  0.00  0.00    +0.030 A 
ATOM     12  C   UNL     1       5.752  12.866  -0.901  0.00  0.00    +0.025 A 
BRANCH  10  13
ATOM     13  S   UNL     1       3.798  16.317  -1.545  0.00  0.00    +0.056 S 
ATOM     14  O   UNL     1       2.382  16.410  -1.485  0.00  0.00    -0.153 OA
ATOM     15  O   UNL     1       4.646  16.986  -0.621  0.00  0.00    -0.153 OA
BRANCH  13  16
ATOM     16  N   UNL     1       4.243  16.831  -3.055  0.00  0.00    -0.204 NA
ATOM     17  H   UNL     1       3.760  17.555  -3.482  0.00  0.00    +0.144 HD
ATOM     18  H   UNL     1       4.987  16.408  -3.512  0.00  0.00    +0.144 HD
ENDBRANCH  13  16
ENDBRANCH  10  13
ENDBRANCH   5   7
ENDBRANCH   2   3
BRANCH   2  20
ATOM     19  C   UNL     1       2.755   7.940   0.951  0.00  0.00    -0.094 C 
ATOM     20  N   UNL     1       3.315   7.451  -0.326  0.00  0.00    +0.391 N 
ATOM     21  H   UNL     1       2.621   7.591  -1.070  0.00  0.00    -0.080 HD
BRANCH  20  22
ATOM     22  C   UNL     1       3.625   6.010  -0.224  0.00  0.00    +0.020 C 
BRANCH  22  23
ATOM     23  C   UNL     1       2.333   5.243  -0.099  0.00  0.00    +0.201 C 
ATOM     24  O   UNL     1       1.275   5.836  -0.081  0.00  0.00    -0.278 OA
ATOM     25  N   UNL     1       2.354   3.898  -0.008  0.00  0.00    -0.284 N 
ATOM     26  H   UNL     1       3.201   3.430   0.058  0.00  0.00    +0.155 HD
BRANCH  25  27
ATOM     27  C   UNL     1       1.153   3.177  -0.010  0.00  0.00    +0.077 A 
ATOM     28  C   UNL     1       0.018   3.717  -0.598  0.00  0.00    +0.047 A 
ATOM     29  C   UNL     1      -1.166   3.004  -0.599  0.00  0.00    +0.043 A 
ATOM     30  C   UNL     1      -1.221   1.749  -0.019  0.00  0.00    +0.024 A 
ATOM     31  C   UNL     1      -0.096   1.207   0.574  0.00  0.00    +0.049 A 
ATOM     32  C   UNL     1       1.095   1.916   0.579  0.00  0.00    +0.141 A 
ATOM     33 CL   UNL     1      -2.585   3.681  -1.335  0.00  0.00    -0.083 Cl
BRANCH  32  34
ATOM     34  O   UNL     1       2.204   1.382   1.156  0.00  0.00    -0.493 OA
ATOM     35  C   UNL     1       2.070   0.084   1.740  0.00  0.00    +0.277 C 
ENDBRANCH  32  34
ENDBRANCH  25  27
ENDBRANCH  22  23
ENDBRANCH  20  22
ENDBRANCH   2  20
TORSDOF 9
