REMARK  Name = ZINC64109110
REMARK  8 active torsions:
REMARK  status: ('A' for Active; 'I' for Inactive)
REMARK    1  A    between atoms: C_1  and  C_2
REMARK    2  A    between atoms: C_4  and  C_16
REMARK    3  A    between atoms: C_5  and  C_15
REMARK    4  A    between atoms: N_7  and  C_8
REMARK    5  A    between atoms: C_16  and  C_17
REMARK    6  A    between atoms: N_19  and  N_20
REMARK    7  A    between atoms: C_21  and  C_23
REMARK    8  A    between atoms: C_23  and  C_24
REMARK                            x       y       z     vdW  Elec       q    Type
REMARK                         _______ _______ _______ _____ _____    ______ ____
ROOT
ATOM      1  C   UNL     1      -3.195   0.976  -0.672  0.00  0.00    +0.233 C 
ATOM      2  O   UNL     1      -2.852   1.649   0.277  0.00  0.00    -0.274 OA
ATOM      3  N   UNL     1      -4.207   1.389  -1.461  0.00  0.00    -0.234 N 
ATOM      4  H   UNL     1      -4.481   0.851  -2.219  0.00  0.00    +0.173 HD
ENDROOT
BRANCH   3   5
ATOM      5  N   UNL     1      -4.862   2.596  -1.185  0.00  0.00    -0.234 N 
ATOM      6  C   UNL     1      -5.874   3.009  -1.974  0.00  0.00    +0.233 C 
ATOM      7  O   UNL     1      -6.217   2.336  -2.922  0.00  0.00    -0.274 OA
ATOM      8  H   UNL     1      -4.587   3.135  -0.426  0.00  0.00    +0.173 HD
BRANCH   6   9
ATOM      9  C   UNL     1      -6.579   4.308  -1.677  0.00  0.00    +0.130 C 
BRANCH   9  10
ATOM     10  C   UNL     1      -7.662   4.537  -2.700  0.00  0.00    -0.033 C 
ATOM     11  C   UNL     1      -8.972   4.222  -2.581  0.00  0.00    -0.001 A 
ATOM     12  C   UNL     1      -9.750   3.596  -1.506  0.00  0.00    +0.010 A 
ATOM     13  C   UNL     1     -11.078   3.406  -1.683  0.00  0.00    +0.001 A 
ATOM     14  C   UNL     1     -11.727   3.791  -2.864  0.00  0.00    +0.002 A 
ATOM     15  C   UNL     1     -11.079   4.372  -3.896  0.00  0.00    +0.026 A 
ATOM     16  C   UNL     1      -9.680   4.620  -3.818  0.00  0.00    +0.043 A 
ATOM     17  N   UNL     1      -8.841   5.160  -4.669  0.00  0.00    -0.380 N 
ATOM     18  C   UNL     1      -7.505   5.171  -4.064  0.00  0.00    +0.145 C 
ATOM     19  H   UNL     1      -9.067   5.499  -5.549  0.00  0.00    +0.160 HD
ENDBRANCH   9  10
ENDBRANCH   6   9
ENDBRANCH   3   5
BRANCH   1  20
ATOM     20  C   UNL     1      -2.490  -0.323  -0.969  0.00  0.00    +0.131 C 
BRANCH  20  23
ATOM     21  C   UNL     1      -0.019   1.526   0.010  0.00  0.00    +0.034 C 
ATOM     22  C   UNL     1       0.002  -0.004   0.002  0.00  0.00    +0.119 C 
ATOM     23  C   UNL     1      -1.407  -0.551   0.054  0.00  0.00    -0.021 C 
ATOM     24  C   UNL     1      -1.515  -1.263   1.156  0.00  0.00    +0.020 C 
ATOM     25  N   UNL     1      -0.338  -1.274   1.880  0.00  0.00    -0.268 N 
ATOM     26  N   UNL     1       0.645  -0.516   1.224  0.00  0.00    -0.244 N 
ATOM     27  C   UNL     1      -2.772  -1.980   1.577  0.00  0.00    +0.062 C 
ATOM     28  H   UNL     1      -0.210  -1.740   2.721  0.00  0.00    +0.170 HD
BRANCH  26  29
ATOM     29  C   UNL     1       1.961  -0.292   1.643  0.00  0.00    +0.083 A 
ATOM     30  C   UNL     1       2.434   1.005   1.785  0.00  0.00    +0.027 A 
ATOM     31  C   UNL     1       3.734   1.223   2.199  0.00  0.00    +0.002 A 
ATOM     32  C   UNL     1       4.565   0.152   2.471  0.00  0.00    +0.003 A 
ATOM     33  C   UNL     1       4.098  -1.143   2.330  0.00  0.00    +0.040 A 
ATOM     34  C   UNL     1       2.796  -1.368   1.922  0.00  0.00    +0.146 A 
ATOM     35  F   UNL     1       2.338  -2.632   1.790  0.00  0.00    -0.203 F 
ENDBRANCH  26  29
ENDBRANCH  20  23
ENDBRANCH   1  20
TORSDOF 6
