REMARK  Name = ZINC31160358
REMARK  12 active torsions:
REMARK  status: ('A' for Active; 'I' for Inactive)
REMARK    1  A    between atoms: C_3  and  O_39
REMARK    2  A    between atoms: C_4  and  O_38
REMARK    3  A    between atoms: C_6  and  C_7
REMARK    4  A    between atoms: C_9  and  O_37
REMARK    5  A    between atoms: C_13  and  O_36
REMARK    6  A    between atoms: C_15  and  O_19
REMARK    7  A    between atoms: O_19  and  C_20
REMARK    8  A    between atoms: C_22  and  O_35
REMARK    9  A    between atoms: C_24  and  O_34
REMARK   10  A    between atoms: C_26  and  O_33
REMARK   11  A    between atoms: C_28  and  C_31
REMARK   12  A    between atoms: C_31  and  O_32
REMARK                            x       y       z     vdW  Elec       q    Type
REMARK                         _______ _______ _______ _____ _____    ______ ____
ROOT
ATOM      1  C   UNL     1       4.745   1.492  -0.401  0.00  0.00    +0.232 C 
ATOM      2  C   UNL     1       4.856   0.175   0.378  0.00  0.00    +0.164 C 
ATOM      3  C   UNL     1       3.706  -0.737  -0.054  0.00  0.00    +0.078 C 
ATOM      4  C   UNL     1       2.409   0.031  -0.025  0.00  0.00    +0.038 A 
ATOM      5  C   UNL     1       1.212  -0.677  -0.015  0.00  0.00    +0.127 A 
ATOM      6  C   UNL     1       0.002  -0.004   0.002  0.00  0.00    +0.091 A 
ATOM      7  C   UNL     1      -0.017   1.383   0.010  0.00  0.00    +0.131 A 
ATOM      8  C   UNL     1       1.174   2.089   0.002  0.00  0.00    +0.092 A 
ATOM      9  C   UNL     1       2.390   1.414  -0.013  0.00  0.00    +0.132 A 
ATOM     10  O   UNL     1       3.536   2.145  -0.011  0.00  0.00    -0.481 OA
ENDROOT
BRANCH   1  16
ATOM     11  C   UNL     1       5.944   3.096   1.099  0.00  0.00    +0.011 A 
ATOM     12  C   UNL     1       7.026   3.901   1.402  0.00  0.00    +0.049 A 
ATOM     13  C   UNL     1       8.089   3.995   0.519  0.00  0.00    +0.158 A 
ATOM     14  C   UNL     1       8.067   3.272  -0.670  0.00  0.00    +0.159 A 
ATOM     15  C   UNL     1       6.982   2.462  -0.965  0.00  0.00    +0.056 A 
ATOM     16  C   UNL     1       5.924   2.373  -0.079  0.00  0.00    -0.001 A 
BRANCH  14  17
ATOM     17  O   UNL     1       9.107   3.360  -1.541  0.00  0.00    -0.503 OA
ATOM     18  H   UNL     1       9.089   2.788  -2.481  0.00  0.00    +0.292 HD
ENDBRANCH  14  17
BRANCH  13  19
ATOM     19  O   UNL     1       9.152   4.790   0.813  0.00  0.00    -0.503 OA
ATOM     20  H   UNL     1       9.995   4.863   0.110  0.00  0.00    +0.292 HD
ENDBRANCH  13  19
ENDBRANCH   1  16
BRANCH   5  21
ATOM     21  O   UNL     1       1.231  -2.036  -0.022  0.00  0.00    -0.506 OA
ATOM     22  H   UNL     1       0.286  -2.599  -0.014  0.00  0.00    +0.292 HD
ENDBRANCH   5  21
BRANCH   2  23
ATOM     23  O   UNL     1       6.105  -0.453   0.086  0.00  0.00    -0.387 OA
ATOM     24  H   UNL     1       6.361  -1.414   0.556  0.00  0.00    +0.210 HD
ENDBRANCH   2  23
BRANCH   7  25
ATOM     25  O   UNL     1      -1.202   2.047   0.019  0.00  0.00    -0.461 OA
BRANCH  25  26
ATOM     26  C   UNL     1      -2.391   1.254   0.020  0.00  0.00    +0.339 C 
ATOM     27  C   UNL     1      -3.613   2.165   0.156  0.00  0.00    +0.214 C 
ATOM     28  C   UNL     1      -4.885   1.314   0.096  0.00  0.00    +0.180 C 
ATOM     29  C   UNL     1      -4.894   0.521  -1.214  0.00  0.00    +0.177 C 
ATOM     30  C   UNL     1      -3.622  -0.328  -1.297  0.00  0.00    +0.179 C 
ATOM     31  O   UNL     1      -2.477   0.523  -1.205  0.00  0.00    -0.331 OA
BRANCH  29  32
ATOM     32  O   UNL     1      -6.040  -0.333  -1.249  0.00  0.00    -0.386 OA
ATOM     33  H   UNL     1      -6.215  -0.983  -2.118  0.00  0.00    +0.210 HD
ENDBRANCH  29  32
BRANCH  28  34
ATOM     34  O   UNL     1      -6.032   2.164   0.148  0.00  0.00    -0.386 OA
ATOM     35  H   UNL     1      -7.042   1.728   0.116  0.00  0.00    +0.210 HD
ENDBRANCH  28  34
BRANCH  27  36
ATOM     36  O   UNL     1      -3.558   2.854   1.407  0.00  0.00    -0.383 OA
ATOM     37  H   UNL     1      -4.357   3.559   1.682  0.00  0.00    +0.210 HD
ENDBRANCH  27  36
BRANCH  30  38
ATOM     38  C   UNL     1      -3.594  -1.077  -2.631  0.00  0.00    +0.190 C 
BRANCH  38  39
ATOM     39  O   UNL     1      -2.467  -1.956  -2.660  0.00  0.00    -0.392 OA
ATOM     40  H   UNL     1      -2.281  -2.582  -3.545  0.00  0.00    +0.210 HD
ENDBRANCH  38  39
ENDBRANCH  30  38
ENDBRANCH  25  26
ENDBRANCH   7  25
TORSDOF 12
