REMARK  Name = ZINC43261471
REMARK  12 active torsions:
REMARK  status: ('A' for Active; 'I' for Inactive)
REMARK    1  A    between atoms: C_1  and  C_2
REMARK    2  A    between atoms: C_2  and  C_3
REMARK    3  A    between atoms: C_3  and  C_4
REMARK    4  A    between atoms: C_4  and  C_5
REMARK    5  A    between atoms: C_5  and  C_6
REMARK    6  A    between atoms: C_9  and  C_12
REMARK    7  A    between atoms: C_17  and  C_20
REMARK    8  A    between atoms: N_22  and  C_23
REMARK    9  A    between atoms: C_23  and  C_24
REMARK   10  A    between atoms: C_24  and  C_25
REMARK   11  A    between atoms: C_28  and  S_31
REMARK   12  A    between atoms: S_31  and  N_34
REMARK                            x       y       z     vdW  Elec       q    Type
REMARK                         _______ _______ _______ _____ _____    ______ ____
ROOT
ATOM      1  C   UNL     1       1.513  -8.277  -2.528  0.00  0.00    -0.030 C 
ATOM      2  C   UNL     1       2.021  -8.748  -3.896  0.00  0.00    +0.058 C 
ATOM      3  S   UNL     1       2.119 -10.566  -3.873  0.00  0.00    -0.163 S 
ATOM      4  C   UNL     1       0.483 -11.044  -3.233  0.00  0.00    +0.062 C 
ATOM      5  C   UNL     1       0.206 -10.229  -1.964  0.00  0.00    +0.027 C 
ATOM      6  N   UNL     1       0.167  -8.802  -2.291  0.00  0.00    +0.392 N 
ATOM      7  H   UNL     1      -0.253  -8.299  -1.523  0.00  0.00    -0.084 HD
ATOM      8  H   UNL     1      -0.392  -8.666  -3.119  0.00  0.00    -0.084 HD
ENDROOT
BRANCH   1  12
ATOM      9  C   UNL     1       1.406  -4.007  -2.452  0.00  0.00    -0.047 A 
ATOM     10  C   UNL     1       2.461  -4.683  -1.867  0.00  0.00    +0.004 A 
ATOM     11  C   UNL     1       2.496  -6.064  -1.892  0.00  0.00    +0.002 A 
ATOM     12  C   UNL     1       1.475  -6.770  -2.501  0.00  0.00    -0.061 A 
ATOM     13  C   UNL     1       0.420  -6.095  -3.084  0.00  0.00    +0.002 A 
ATOM     14  C   UNL     1       0.383  -4.713  -3.056  0.00  0.00    +0.004 A 
BRANCH   9  15
ATOM     15  C   UNL     1       1.369  -2.501  -2.425  0.00  0.00    +0.035 C 
BRANCH  15  16
ATOM     16  C   UNL     1       0.643  -2.031  -1.162  0.00  0.00    +0.005 C 
BRANCH  16  17
ATOM     17  C   UNL     1       0.605  -0.502  -1.135  0.00  0.00    +0.000 C 
BRANCH  17  19
ATOM     18  C   UNL     1      -0.159   1.497   0.155  0.00  0.00    +0.004 C 
ATOM     19  C   UNL     1      -0.120  -0.032   0.128  0.00  0.00    -0.003 C 
ENDBRANCH  17  19
ENDBRANCH  16  17
ENDBRANCH  15  16
ENDBRANCH   9  15
ENDBRANCH   1  12
BRANCH   5  20
ATOM     20  C   UNL     1       1.298 -10.483  -0.957  0.00  0.00    +0.200 C 
ATOM     21  O   UNL     1       1.681  -9.585  -0.239  0.00  0.00    -0.278 OA
ATOM     22  N   UNL     1       1.849 -11.709  -0.855  0.00  0.00    -0.316 N 
ATOM     23  H   UNL     1       1.542 -12.428  -1.430  0.00  0.00    +0.149 HD
BRANCH  22  24
ATOM     24  C   UNL     1       2.910 -11.956   0.124  0.00  0.00    +0.109 C 
BRANCH  24  25
ATOM     25  C   UNL     1       3.357 -13.416   0.034  0.00  0.00    +0.054 C 
BRANCH  25  26
ATOM     26  C   UNL     1       4.449 -13.670   1.041  0.00  0.00    -0.046 A 
ATOM     27  C   UNL     1       5.772 -13.480   0.689  0.00  0.00    +0.005 A 
ATOM     28  C   UNL     1       6.774 -13.713   1.612  0.00  0.00    +0.029 A 
ATOM     29  C   UNL     1       6.452 -14.136   2.889  0.00  0.00    +0.105 A 
ATOM     30  C   UNL     1       5.129 -14.326   3.241  0.00  0.00    +0.029 A 
ATOM     31  C   UNL     1       4.127 -14.089   2.319  0.00  0.00    +0.005 A 
BRANCH  29  32
ATOM     32  S   UNL     1       7.729 -14.434   4.066  0.00  0.00    +0.056 S 
ATOM     33  O   UNL     1       7.199 -15.346   5.018  0.00  0.00    -0.153 OA
ATOM     34  O   UNL     1       8.910 -14.708   3.324  0.00  0.00    -0.153 OA
BRANCH  32  35
ATOM     35  N   UNL     1       7.996 -13.011   4.870  0.00  0.00    -0.204 NA
ATOM     36  H   UNL     1       7.478 -12.222   4.644  0.00  0.00    +0.144 HD
ATOM     37  H   UNL     1       8.669 -12.966   5.566  0.00  0.00    +0.144 HD
ENDBRANCH  32  35
ENDBRANCH  29  32
ENDBRANCH  25  26
ENDBRANCH  24  25
ENDBRANCH  22  24
ENDBRANCH   5  20
TORSDOF 11
