REMARK  Name = ZINC63888585
REMARK  11 active torsions:
REMARK  status: ('A' for Active; 'I' for Inactive)
REMARK    1  A    between atoms: C_1  and  C_2
REMARK    2  A    between atoms: C_5  and  C_26
REMARK    3  A    between atoms: C_7  and  N_8
REMARK    4  A    between atoms: N_8  and  C_9
REMARK    5  A    between atoms: C_9  and  C_10
REMARK    6  A    between atoms: N_12  and  C_13
REMARK    7  A    between atoms: C_13  and  C_14
REMARK    8  A    between atoms: N_16  and  C_17
REMARK    9  A    between atoms: C_18  and  C_25
REMARK   10  A    between atoms: C_20  and  C_24
REMARK   11  A    between atoms: C_22  and  C_23
REMARK                            x       y       z     vdW  Elec       q    Type
REMARK                         _______ _______ _______ _____ _____    ______ ____
ROOT
ATOM      1  C   UNL     1       0.666   1.157   5.057  0.00  0.00    +0.231 C 
ATOM      2  O   UNL     1      -0.195   1.970   4.795  0.00  0.00    -0.274 OA
ATOM      3  N   UNL     1       0.771   0.665   6.308  0.00  0.00    -0.305 N 
ATOM      4  H   UNL     1       1.459   0.015   6.517  0.00  0.00    +0.149 HD
ENDROOT
BRANCH   1   5
ATOM      5  C   UNL     1       1.619   0.696   3.984  0.00  0.00    +0.197 C 
BRANCH   5   6
ATOM      6  N   UNL     1       1.299   1.372   2.725  0.00  0.00    -0.335 N 
ATOM      7  H   UNL     1       0.566   2.006   2.687  0.00  0.00    +0.147 HD
BRANCH   6  14
ATOM      8  C   UNL     1       0.608   2.729   0.326  0.00  0.00    +0.045 C 
ATOM      9  C   UNL     1       1.748   1.746   0.383  0.00  0.00    -0.030 A 
ATOM     10  C   UNL     1       2.494   1.489  -0.753  0.00  0.00    +0.006 A 
ATOM     11  C   UNL     1       3.539   0.590  -0.709  0.00  0.00    +0.013 A 
ATOM     12  C   UNL     1       3.848  -0.064   0.485  0.00  0.00    +0.038 A 
ATOM     13  C   UNL     1       3.097   0.195   1.631  0.00  0.00    +0.036 A 
ATOM     14  C   UNL     1       2.051   1.105   1.578  0.00  0.00    +0.031 A 
BRANCH  12  15
ATOM     15  C   UNL     1       4.968  -1.029   0.535  0.00  0.00    +0.242 C 
ATOM     16  O   UNL     1       5.235  -1.597   1.575  0.00  0.00    -0.270 OA
ATOM     17  N   UNL     1       5.692  -1.278  -0.574  0.00  0.00    -0.325 N 
ATOM     18  H   UNL     1       5.479  -0.824  -1.405  0.00  0.00    +0.145 HD
ATOM     19  H   UNL     1       6.427  -1.911  -0.542  0.00  0.00    +0.145 HD
ENDBRANCH  12  15
ENDBRANCH   6  14
ENDBRANCH   5   6
ENDBRANCH   1   5
BRANCH   3  20
ATOM     20  C   UNL     1      -0.155   1.113   7.351  0.00  0.00    +0.200 C 
BRANCH  20  21
ATOM     21  C   UNL     1       0.173   0.418   8.647  0.00  0.00    +0.234 C 
ATOM     22  O   UNL     1       1.091  -0.374   8.694  0.00  0.00    -0.274 OA
ATOM     23  N   UNL     1      -0.552   0.676   9.753  0.00  0.00    -0.284 N 
ATOM     24  H   UNL     1      -1.238   1.362   9.734  0.00  0.00    +0.155 HD
BRANCH  23  25
ATOM     25  C   UNL     1      -0.317  -0.046  10.928  0.00  0.00    +0.039 A 
ATOM     26  C   UNL     1      -0.050   0.625  12.115  0.00  0.00    -0.029 A 
ATOM     27  C   UNL     1       0.182  -0.091  13.273  0.00  0.00    +0.008 A 
ATOM     28  C   UNL     1       0.149  -1.473  13.252  0.00  0.00    -0.050 A 
ATOM     29  C   UNL     1      -0.117  -2.143  12.073  0.00  0.00    +0.008 A 
ATOM     30  C   UNL     1      -0.356  -1.434  10.912  0.00  0.00    -0.029 A 
ATOM     31  C   UNL     1      -0.652  -2.165   9.628  0.00  0.00    +0.045 C 
ATOM     32  C   UNL     1       0.402  -2.250  14.518  0.00  0.00    +0.044 C 
ATOM     33  C   UNL     1      -0.012   2.131  12.138  0.00  0.00    +0.045 C 
ENDBRANCH  23  25
ENDBRANCH  20  21
ENDBRANCH   3  20
TORSDOF 7
