REMARK  Name = ZINC21253061
REMARK  9 active torsions:
REMARK  status: ('A' for Active; 'I' for Inactive)
REMARK    1  A    between atoms: C_1  and  C_2
REMARK    2  A    between atoms: C_2  and  C_3
REMARK    3  A    between atoms: C_2  and  O_4
REMARK    4  A    between atoms: O_4  and  C_5
REMARK    5  A    between atoms: C_8  and  C_11
REMARK    6  A    between atoms: C_16  and  C_26
REMARK    7  A    between atoms: C_28  and  O_34
REMARK    8  A    between atoms: C_29  and  O_33
REMARK    9  A    between atoms: O_34  and  C_35
REMARK                            x       y       z     vdW  Elec       q    Type
REMARK                         _______ _______ _______ _____ _____    ______ ____
ROOT
ATOM      1  C   UNL     1      -4.266   6.437   0.755  0.00  0.00    +0.032 C 
ATOM      2  C   UNL     1      -3.234   7.439   0.240  0.00  0.00    +0.059 C 
ATOM      3  C   UNL     1      -3.881   8.804   0.069  0.00  0.00    +0.017 C 
ATOM      4  C   UNL     1      -5.170   8.904  -0.293  0.00  0.00    +0.036 C 
ATOM      5  C   UNL     1      -5.930  10.190  -0.520  0.00  0.00    +0.136 C 
ATOM      6  N   UNL     1      -5.243  11.380  -0.064  0.00  0.00    -0.331 N 
ATOM      7  C   UNL     1      -4.045  11.787  -0.647  0.00  0.00    +0.049 A 
ATOM      8  C   UNL     1      -3.950  12.976  -1.354  0.00  0.00    +0.025 A 
ATOM      9  C   UNL     1      -2.751  13.317  -1.954  0.00  0.00    +0.002 A 
ATOM     10  C   UNL     1      -1.655  12.480  -1.854  0.00  0.00    +0.002 A 
ATOM     11  C   UNL     1      -1.741  11.300  -1.135  0.00  0.00    +0.025 A 
ATOM     12  C   UNL     1      -2.933  10.968  -0.516  0.00  0.00    +0.052 A 
ATOM     13  N   UNL     1      -3.056   9.855   0.307  0.00  0.00    -0.316 N 
ATOM     14  C   UNL     1      -5.949   7.739  -0.485  0.00  0.00    +0.163 C 
ATOM     15  O   UNL     1      -7.108   7.860  -0.833  0.00  0.00    -0.292 OA
ATOM     16  C   UNL     1      -5.399   6.360  -0.275  0.00  0.00    +0.088 C 
ATOM     17  H   UNL     1      -5.665  11.979   0.756  0.00  0.00    +0.147 HD
ATOM     18  H   UNL     1      -2.423   9.866   1.207  0.00  0.00    +0.152 HD
ENDROOT
BRANCH   5  19
ATOM     19  C   UNL     1      -6.201  10.331  -1.996  0.00  0.00    -0.018 A 
ATOM     20  C   UNL     1      -7.503  10.330  -2.461  0.00  0.00    +0.055 A 
ATOM     21  C   UNL     1      -7.755  10.465  -3.817  0.00  0.00    +0.163 A 
ATOM     22  C   UNL     1      -6.695  10.590  -4.709  0.00  0.00    +0.177 A 
ATOM     23  C   UNL     1      -5.391  10.585  -4.238  0.00  0.00    +0.086 A 
ATOM     24  C   UNL     1      -5.147  10.455  -2.882  0.00  0.00    +0.029 A 
ATOM     25 CL   UNL     1      -4.066  10.742  -5.347  0.00  0.00    -0.080 Cl
BRANCH  22  26
ATOM     26  O   UNL     1      -6.937  10.718  -6.042  0.00  0.00    -0.502 OA
ATOM     27  H   UNL     1      -6.098  10.818  -6.746  0.00  0.00    +0.292 HD
ENDBRANCH  22  26
BRANCH  21  28
ATOM     28  O   UNL     1      -9.035  10.470  -4.275  0.00  0.00    -0.491 OA
ATOM     29  C   UNL     1     -10.073  10.337  -3.301  0.00  0.00    +0.277 C 
ENDBRANCH  21  28
ENDBRANCH   5  19
BRANCH   1  33
ATOM     30  C   UNL     1      -2.454   2.593   1.203  0.00  0.00    +0.121 A 
ATOM     31  C   UNL     1      -2.465   3.216  -0.036  0.00  0.00    +0.046 A 
ATOM     32  C   UNL     1      -3.056   4.456  -0.180  0.00  0.00    +0.007 A 
ATOM     33  C   UNL     1      -3.627   5.081   0.913  0.00  0.00    -0.043 A 
ATOM     34  C   UNL     1      -3.612   4.465   2.151  0.00  0.00    +0.007 A 
ATOM     35  C   UNL     1      -3.027   3.223   2.299  0.00  0.00    +0.046 A 
BRANCH  30  36
ATOM     36  O   UNL     1      -1.877   1.371   1.346  0.00  0.00    -0.489 OA
BRANCH  36  38
ATOM     37  C   UNL     1      -0.639  -0.160   2.748  0.00  0.00    +0.051 C 
ATOM     38  C   UNL     1      -1.790   0.845   2.672  0.00  0.00    +0.167 C 
ATOM     39  C   UNL     1      -3.103   0.146   3.031  0.00  0.00    +0.051 C 
ENDBRANCH  36  38
ENDBRANCH  30  36
ENDBRANCH   1  33
TORSDOF 6
