REMARK  Name = ZINC09100998
REMARK  11 active torsions:
REMARK  status: ('A' for Active; 'I' for Inactive)
REMARK    1  A    between atoms: C_1  and  C_2
REMARK    2  A    between atoms: C_2  and  C_4
REMARK    3  A    between atoms: C_2  and  N_53
REMARK    4  A    between atoms: C_7  and  S_16
REMARK    5  A    between atoms: N_8  and  C_9
REMARK    6  A    between atoms: S_16  and  C_17
REMARK    7  A    between atoms: C_17  and  C_19
REMARK    8  A    between atoms: C_17  and  C_20
REMARK    9  A    between atoms: N_22  and  C_23
REMARK   10  A    between atoms: C_31  and  N_53
REMARK   11  A    between atoms: C_32  and  N_53
REMARK                            x       y       z     vdW  Elec       q    Type
REMARK                         _______ _______ _______ _____ _____    ______ ____
ROOT
ATOM      1  C   UNL     1      -1.493   3.499   2.483  0.00  0.00    +0.125 A 
ATOM      2  N   UNL     1      -2.604   3.013   2.960  0.00  0.00    -0.135 NA
ATOM      3  N   UNL     1      -2.922   3.619   4.047  0.00  0.00    -0.122 NA
ATOM      4  C   UNL     1      -2.024   4.535   4.328  0.00  0.00    +0.197 A 
ATOM      5  N   UNL     1      -1.079   4.484   3.341  0.00  0.00    -0.275 N 
ENDROOT
BRANCH   5   6
ATOM      6  C   UNL     1       0.073   5.277   3.228  0.00  0.00    +0.050 A 
ATOM      7  C   UNL     1       1.330   4.695   3.321  0.00  0.00    +0.028 A 
ATOM      8  C   UNL     1       2.462   5.477   3.205  0.00  0.00    +0.022 A 
ATOM      9  C   UNL     1       2.345   6.841   3.007  0.00  0.00    +0.041 A 
ATOM     10  C   UNL     1       1.093   7.425   2.919  0.00  0.00    +0.022 A 
ATOM     11  C   UNL     1      -0.042   6.646   3.029  0.00  0.00    +0.028 A 
ATOM     12 CL   UNL     1       3.770   7.823   2.868  0.00  0.00    -0.084 Cl
ENDBRANCH   5   6
BRANCH   1  14
ATOM     13  C   UNL     1      -1.544   3.589   0.006  0.00  0.00    -0.005 C 
ATOM     14  C   UNL     1      -0.790   3.056   1.226  0.00  0.00    -0.003 C 
BRANCH  14  17
ATOM     15  C   UNL     1      -0.074   1.119  -0.038  0.00  0.00    -0.096 C 
ATOM     16  C   UNL     1      -0.119   1.037   2.381  0.00  0.00    -0.096 C 
ATOM     17  N   UNL     1      -0.781   1.579   1.176  0.00  0.00    +0.382 N 
ATOM     18  H   UNL     1      -1.750   1.240   1.147  0.00  0.00    -0.082 HD
ENDBRANCH  14  17
ENDBRANCH   1  14
BRANCH   4  19
ATOM     19  S   UNL     1      -2.031   5.618   5.718  0.00  0.00    -0.073 S 
BRANCH  19  20
ATOM     20  C   UNL     1      -3.554   5.076   6.531  0.00  0.00    +0.137 C 
ATOM     21  C   UNL     1      -4.752   5.390   5.632  0.00  0.00    +0.029 C 
BRANCH  20  22
ATOM     22  C   UNL     1      -3.708   5.801   7.843  0.00  0.00    +0.230 C 
ATOM     23  O   UNL     1      -3.179   6.880   8.006  0.00  0.00    -0.274 OA
ATOM     24  N   UNL     1      -4.434   5.250   8.836  0.00  0.00    -0.283 N 
ATOM     25  H   UNL     1      -4.911   4.418   8.685  0.00  0.00    +0.155 HD
BRANCH  24  26
ATOM     26  C   UNL     1      -4.500   5.877  10.086  0.00  0.00    +0.053 A 
ATOM     27  C   UNL     1      -4.494   7.263  10.170  0.00  0.00    +0.025 A 
ATOM     28  C   UNL     1      -4.560   7.879  11.405  0.00  0.00    +0.003 A 
ATOM     29  C   UNL     1      -4.632   7.118  12.557  0.00  0.00    +0.021 A 
ATOM     30  C   UNL     1      -4.638   5.737  12.478  0.00  0.00    +0.061 A 
ATOM     31  C   UNL     1      -4.578   5.114  11.245  0.00  0.00    +0.080 A 
ATOM     32 CL   UNL     1      -4.592   3.380  11.145  0.00  0.00    -0.080 Cl
ATOM     33 CL   UNL     1      -4.729   4.785  13.927  0.00  0.00    -0.082 Cl
ENDBRANCH  24  26
ENDBRANCH  20  22
ENDBRANCH  19  20
ENDBRANCH   4  19
TORSDOF 7
