REMARK  Name = ZINC25680151
REMARK  6 active torsions:
REMARK  status: ('A' for Active; 'I' for Inactive)
REMARK    1  A    between atoms: C_3  and  O_35
REMARK    2  A    between atoms: C_6  and  C_7
REMARK    3  A    between atoms: N_10  and  C_13
REMARK    4  A    between atoms: C_13  and  C_14
REMARK    5  A    between atoms: N_19  and  S_22
REMARK    6  A    between atoms: S_22  and  C_25
REMARK                            x       y       z     vdW  Elec       q    Type
REMARK                         _______ _______ _______ _____ _____    ______ ____
ROOT
ATOM      1  C   UNL     1       1.256   8.257   1.607  0.00  0.00    +0.199 C 
ATOM      2  O   UNL     1       1.405   7.480   2.526  0.00  0.00    -0.278 OA
ATOM      3  N   UNL     1       1.013   9.559   1.857  0.00  0.00    -0.300 N 
ATOM      4  C   UNL     1       0.837  10.512   0.752  0.00  0.00    +0.125 C 
ATOM      5  C   UNL     1      -0.516  11.221   0.934  0.00  0.00    +0.128 C 
ATOM      6  N   UNL     1      -0.604  11.714   2.316  0.00  0.00    -0.174 NA
ATOM      7  C   UNL     1      -0.423  10.762   3.420  0.00  0.00    +0.128 C 
ATOM      8  C   UNL     1       0.924  10.051   3.238  0.00  0.00    +0.125 C 
ENDROOT
BRANCH   6   9
ATOM      9  S   UNL     1      -0.903  13.314   2.622  0.00  0.00    +0.061 S 
ATOM     10  O   UNL     1      -1.563  13.831   1.476  0.00  0.00    -0.153 OA
ATOM     11  O   UNL     1      -1.471  13.379   3.923  0.00  0.00    -0.153 OA
BRANCH   9  12
ATOM     12  C   UNL     1       0.658  14.127   2.714  0.00  0.00    +0.106 A 
ATOM     13  C   UNL     1       1.314  14.234   3.926  0.00  0.00    +0.029 A 
ATOM     14  C   UNL     1       2.537  14.869   3.989  0.00  0.00    +0.006 A 
ATOM     15  C   UNL     1       3.110  15.412   2.846  0.00  0.00    -0.044 A 
ATOM     16  C   UNL     1       2.456  15.306   1.640  0.00  0.00    -0.042 A 
ATOM     17  C   UNL     1       1.227  14.662   1.578  0.00  0.00    +0.032 A 
ATOM     18  C   UNL     1       3.022  15.862   0.359  0.00  0.00    +0.035 C 
ATOM     19  C   UNL     1       4.119  16.883   0.656  0.00  0.00    +0.005 C 
ATOM     20  C   UNL     1       5.119  16.250   1.629  0.00  0.00    +0.005 C 
ATOM     21  C   UNL     1       4.441  16.103   2.990  0.00  0.00    +0.035 C 
ENDBRANCH   9  12
ENDBRANCH   6   9
BRANCH   1  22
ATOM     22  C   UNL     1       1.345   7.766   0.185  0.00  0.00    +0.019 C 
BRANCH  22  26
ATOM     23  C   UNL     1       2.982   3.912  -0.242  0.00  0.00    -0.048 C 
ATOM     24  C   UNL     1       2.199   4.386  -1.187  0.00  0.00    -0.041 C 
ATOM     25  C   UNL     1       1.645   5.781  -1.168  0.00  0.00    -0.050 C 
ATOM     26  N   UNL     1       1.760   6.357   0.178  0.00  0.00    +0.388 N 
ATOM     27  C   UNL     1       3.137   6.211   0.678  0.00  0.00    -0.073 C 
ATOM     28  C   UNL     1       3.400   4.727   0.950  0.00  0.00    +0.017 C 
ATOM     29  H   UNL     1       1.083   5.808   0.848  0.00  0.00    -0.081 HD
BRANCH  23  35
ATOM     30  C   UNL     1       4.329   2.171  -1.407  0.00  0.00    +0.012 A 
ATOM     31  C   UNL     1       4.787   0.875  -1.513  0.00  0.00    +0.046 A 
ATOM     32  C   UNL     1       4.400  -0.078  -0.581  0.00  0.00    +0.117 A 
ATOM     33  C   UNL     1       3.551   0.269   0.462  0.00  0.00    +0.046 A 
ATOM     34  C   UNL     1       3.089   1.563   0.575  0.00  0.00    +0.012 A 
ATOM     35  C   UNL     1       3.475   2.524  -0.360  0.00  0.00    -0.022 A 
BRANCH  32  36
ATOM     36  O   UNL     1       4.854  -1.354  -0.689  0.00  0.00    -0.507 OA
ATOM     37  H   UNL     1       4.549  -2.111   0.049  0.00  0.00    +0.292 HD
ENDBRANCH  32  36
ENDBRANCH  23  35
ENDBRANCH  22  26
ENDBRANCH   1  22
TORSDOF 6
