REMARK  Name = ZINC12497983
REMARK  7 active torsions:
REMARK  status: ('A' for Active; 'I' for Inactive)
REMARK    1  A    between atoms: C_1  and  O_2
REMARK    2  A    between atoms: O_2  and  C_3
REMARK    3  A    between atoms: C_3  and  C_5
REMARK    4  A    between atoms: C_5  and  C_34
REMARK    5  A    between atoms: C_10  and  C_12
REMARK    6  A    between atoms: C_15  and  O_18
REMARK    7  A    between atoms: N_21  and  C_24
REMARK                            x       y       z     vdW  Elec       q    Type
REMARK                         _______ _______ _______ _____ _____    ______ ____
ROOT
ATOM      1  C   UNL     1      -7.135  -1.356   0.381  0.00  0.00    +0.070 C 
ATOM      2  C   UNL     1      -5.780  -1.318  -0.329  0.00  0.00    +0.090 C 
ATOM      3  C   UNL     1      -5.123  -2.550   0.411  0.00  0.00    +0.078 C 
ATOM      4  C   UNL     1      -6.171  -3.576   0.284  0.00  0.00    -0.026 C 
ATOM      5  C   UNL     1      -3.723  -2.342   0.139  0.00  0.00    +0.229 C 
ATOM      6  O   UNL     1      -2.873  -3.184  -0.053  0.00  0.00    -0.275 OA
ATOM      7  N   UNL     1      -3.564  -0.978   0.148  0.00  0.00    -0.210 N 
ATOM      8  C   UNL     1      -4.754  -0.308   0.118  0.00  0.00    +0.229 C 
ATOM      9  O   UNL     1      -4.944   0.858   0.392  0.00  0.00    -0.275 OA
ATOM     10  N   UNL     1      -7.403  -2.797   0.626  0.00  0.00    +0.398 N 
ATOM     11  H   UNL     1      -8.184  -3.109   0.038  0.00  0.00    -0.083 HD
ATOM     12  H   UNL     1      -7.640  -2.942   1.615  0.00  0.00    -0.083 HD
ENDROOT
BRANCH   7  13
ATOM     13  C   UNL     1      -2.314  -0.342   0.189  0.00  0.00    +0.048 A 
ATOM     14  C   UNL     1      -2.241   1.045   0.195  0.00  0.00    +0.028 A 
ATOM     15  C   UNL     1      -1.011   1.672   0.230  0.00  0.00    +0.051 A 
ATOM     16  C   UNL     1       0.154   0.920   0.268  0.00  0.00    +0.162 A 
ATOM     17  C   UNL     1       0.084  -0.469   0.264  0.00  0.00    +0.164 A 
ATOM     18  C   UNL     1      -1.151  -1.097   0.224  0.00  0.00    +0.073 A 
ATOM     19  O   UNL     1       1.215  -1.224   0.301  0.00  0.00    -0.485 OA
ATOM     20  C   UNL     1       2.440  -0.565  -0.037  0.00  0.00    +0.270 C 
ATOM     21  C   UNL     1       2.487   0.775   0.710  0.00  0.00    +0.270 C 
ATOM     22  O   UNL     1       1.358   1.556   0.302  0.00  0.00    -0.485 OA
ENDBRANCH   7  13
BRANCH   4  23
ATOM     23  C   UNL     1      -6.241  -4.102  -1.126  0.00  0.00    -0.060 A 
ATOM     24  C   UNL     1      -6.909  -3.382  -2.099  0.00  0.00    +0.005 A 
ATOM     25  C   UNL     1      -6.970  -3.859  -3.394  0.00  0.00    +0.045 A 
ATOM     26  C   UNL     1      -6.370  -5.069  -3.715  0.00  0.00    +0.117 A 
ATOM     27  C   UNL     1      -5.706  -5.792  -2.736  0.00  0.00    +0.045 A 
ATOM     28  C   UNL     1      -5.643  -5.307  -1.444  0.00  0.00    +0.005 A 
BRANCH  26  29
ATOM     29  O   UNL     1      -6.434  -5.543  -4.987  0.00  0.00    -0.507 OA
ATOM     30  H   UNL     1      -7.203  -6.105  -5.159  0.00  0.00    +0.292 HD
ENDBRANCH  26  29
ENDBRANCH   4  23
BRANCH   1  31
ATOM     31  C   UNL     1      -8.203  -0.764  -0.502  0.00  0.00    -0.047 A 
ATOM     32  C   UNL     1      -7.880   0.230  -1.407  0.00  0.00    +0.003 A 
ATOM     33  C   UNL     1      -8.859   0.770  -2.219  0.00  0.00    +0.000 A 
ATOM     34  C   UNL     1     -10.163   0.322  -2.121  0.00  0.00    +0.000 A 
ATOM     35  C   UNL     1     -10.487  -0.668  -1.212  0.00  0.00    +0.000 A 
ATOM     36  C   UNL     1      -9.507  -1.211  -0.403  0.00  0.00    +0.003 A 
ENDBRANCH   1  31
BRANCH   1  37
ATOM     37  C   UNL     1      -7.060  -0.606   1.686  0.00  0.00    +0.301 C 
ATOM     38  O   UNL     1      -7.386   0.556   1.734  0.00  0.00    -0.252 OA
BRANCH  37  40
ATOM     39  C   UNL     1      -6.587  -0.446   4.016  0.00  0.00    +0.280 C 
ATOM     40  O   UNL     1      -6.632  -1.230   2.795  0.00  0.00    -0.469 OA
ENDBRANCH  37  40
ENDBRANCH   1  37
TORSDOF 6
