REMARK  Name = ZINC20155138
REMARK  8 active torsions:
REMARK  status: ('A' for Active; 'I' for Inactive)
REMARK    1  A    between atoms: C_1  and  C_2
REMARK    2  A    between atoms: C_8  and  N_10
REMARK    3  A    between atoms: N_10  and  C_11
REMARK    4  A    between atoms: C_11  and  C_12
REMARK    5  A    between atoms: N_14  and  C_15
REMARK    6  A    between atoms: C_18  and  N_34
REMARK    7  A    between atoms: C_20  and  C_21
REMARK    8  A    between atoms: N_23  and  C_24
REMARK                            x       y       z     vdW  Elec       q    Type
REMARK                         _______ _______ _______ _____ _____    ______ ____
ROOT
ATOM      1  C   UNL     1       4.955  -4.130   0.143  0.00  0.00    +0.046 A 
ATOM      2  C   UNL     1       6.169  -4.798   0.237  0.00  0.00    +0.026 A 
ATOM      3  C   UNL     1       7.345  -4.084   0.338  0.00  0.00    +0.034 A 
ATOM      4  C   UNL     1       7.327  -2.698   0.340  0.00  0.00    +0.127 A 
ATOM      5  C   UNL     1       6.132  -2.018   0.241  0.00  0.00    +0.047 A 
ATOM      6  C   UNL     1       4.933  -2.728   0.139  0.00  0.00    +0.060 A 
ENDROOT
BRANCH   1   9
ATOM      7  C   UNL     1       3.734  -6.012  -0.635  0.00  0.00    +0.200 C 
ATOM      8  O   UNL     1       4.757  -6.473  -1.095  0.00  0.00    -0.278 OA
ATOM      9  N   UNL     1       3.766  -4.850   0.047  0.00  0.00    -0.286 N 
ATOM     10  H   UNL     1       2.853  -4.469   0.528  0.00  0.00    +0.155 HD
BRANCH   7  11
ATOM     11  C   UNL     1       2.428  -6.738  -0.826  0.00  0.00    +0.016 C 
BRANCH  11  12
ATOM     12  N   UNL     1       2.659  -7.968  -1.596  0.00  0.00    +0.387 N 
ATOM     13  H   UNL     1       3.369  -8.601  -1.044  0.00  0.00    -0.085 HD
ATOM     14  H   UNL     1       3.090  -7.697  -2.571  0.00  0.00    -0.085 HD
BRANCH  12  21
ATOM     15  C   UNL     1       2.606 -10.347  -3.250  0.00  0.00    +0.006 C 
ATOM     16  C   UNL     1       1.712 -10.186  -2.018  0.00  0.00    -0.028 C 
ATOM     17  C   UNL     1       0.406 -10.953  -2.233  0.00  0.00    +0.002 C 
ATOM     18  C   UNL     1      -0.316 -10.396  -3.462  0.00  0.00    +0.000 C 
ATOM     19  C   UNL     1      -0.624  -8.914  -3.246  0.00  0.00    -0.002 C 
ATOM     20  C   UNL     1       0.683  -8.147  -3.031  0.00  0.00    -0.015 C 
ATOM     21  C   UNL     1       1.404  -8.703  -1.802  0.00  0.00    -0.068 C 
ENDBRANCH  12  21
ENDBRANCH  11  12
ENDBRANCH   7  11
ENDBRANCH   1   9
BRANCH   6  22
ATOM     22  C   UNL     1       3.651  -2.006   0.033  0.00  0.00    +0.250 C 
ATOM     23  O   UNL     1       2.603  -2.624   0.035  0.00  0.00    -0.270 OA
ATOM     24  N   UNL     1       3.640  -0.662  -0.066  0.00  0.00    -0.281 N 
ATOM     25  H   UNL     1       4.587  -0.109  -0.144  0.00  0.00    +0.155 HD
BRANCH  24  26
ATOM     26  C   UNL     1       2.423   0.030  -0.070  0.00  0.00    +0.037 A 
ATOM     27  C   UNL     1       2.330   1.276   0.536  0.00  0.00    +0.027 A 
ATOM     28  C   UNL     1       1.129   1.958   0.535  0.00  0.00    +0.051 A 
ATOM     29  C   UNL     1       0.012   1.401  -0.072  0.00  0.00    +0.162 A 
ATOM     30  C   UNL     1       0.102   0.155  -0.682  0.00  0.00    +0.164 A 
ATOM     31  C   UNL     1       1.308  -0.530  -0.678  0.00  0.00    +0.072 A 
ATOM     32  O   UNL     1      -0.980  -0.403  -1.289  0.00  0.00    -0.485 OA
ATOM     33  C   UNL     1      -2.260   0.140  -0.949  0.00  0.00    +0.270 C 
ATOM     34  C   UNL     1      -2.162   1.671  -0.998  0.00  0.00    +0.270 C 
ATOM     35  O   UNL     1      -1.165   2.085  -0.056  0.00  0.00    -0.485 OA
ENDBRANCH  24  26
ENDBRANCH   6  22
BRANCH   4  36
ATOM     36  N   UNL     1       8.596  -1.945   0.449  0.00  0.00    +0.056 N 
ATOM     37  O   UNL     1       8.583  -0.727   0.451  0.00  0.00    -0.126 OA
ATOM     38  O   UNL     1       9.653  -2.543   0.536  0.00  0.00    -0.126 OA
ENDBRANCH   4  36
TORSDOF 7
