REMARK  Name = ZINC22473104
REMARK  10 active torsions:
REMARK  status: ('A' for Active; 'I' for Inactive)
REMARK    1  A    between atoms: C_1  and  O_2
REMARK    2  A    between atoms: O_2  and  C_3
REMARK    3  A    between atoms: C_6  and  C_10
REMARK    4  A    between atoms: N_12  and  C_13
REMARK    5  A    between atoms: N_12  and  C_28
REMARK    6  A    between atoms: C_13  and  C_14
REMARK    7  A    between atoms: C_14  and  C_15
REMARK    8  A    between atoms: C_15  and  N_16
REMARK    9  A    between atoms: C_19  and  O_20
REMARK   10  A    between atoms: C_28  and  C_29
REMARK                            x       y       z     vdW  Elec       q    Type
REMARK                         _______ _______ _______ _____ _____    ______ ____
ROOT
ATOM      1  C   UNL     1      -6.832   2.829   1.124  0.00  0.00    +0.247 C 
ATOM      2  O   UNL     1      -7.576   3.782   0.994  0.00  0.00    -0.270 OA
ATOM      3  N   UNL     1      -6.382   2.172   0.037  0.00  0.00    -0.293 N 
ENDROOT
BRANCH   1   7
ATOM      4  C   UNL     1      -5.645   1.574   5.004  0.00  0.00    +0.134 A 
ATOM      5  C   UNL     1      -4.854   1.266   3.904  0.00  0.00    +0.047 A 
ATOM      6  C   UNL     1      -5.238   1.667   2.643  0.00  0.00    +0.017 A 
ATOM      7  C   UNL     1      -6.419   2.393   2.473  0.00  0.00    +0.038 A 
ATOM      8  C   UNL     1      -7.212   2.701   3.581  0.00  0.00    +0.032 A 
ATOM      9  C   UNL     1      -6.824   2.292   4.838  0.00  0.00    +0.060 A 
ATOM     10 BR   UNL     1      -7.896   2.708   6.340  0.00  0.00    -0.046 Br
BRANCH   4  12
ATOM     11  C   UNL     1      -4.043   0.439   6.343  0.00  0.00    +0.277 C 
ATOM     12  O   UNL     1      -5.266   1.173   6.244  0.00  0.00    -0.494 OA
ENDBRANCH   4  12
ENDBRANCH   1   7
BRANCH   3  13
ATOM     13  C   UNL     1      -5.548   0.978   0.195  0.00  0.00    +0.110 C 
BRANCH  13  14
ATOM     14  C   UNL     1      -4.098   1.319  -0.152  0.00  0.00    +0.040 C 
BRANCH  14  15
ATOM     15  C   UNL     1      -3.227   0.072   0.014  0.00  0.00    +0.114 C 
BRANCH  15  16
ATOM     16  N   UNL     1      -1.838   0.399  -0.319  0.00  0.00    -0.384 N 
ATOM     17  C   UNL     1      -0.865  -0.572  -0.242  0.00  0.00    +0.053 A 
ATOM     18  C   UNL     1      -1.172  -1.852   0.142  0.00  0.00    +0.113 A 
ATOM     19  C   UNL     1      -0.162  -2.820   0.205  0.00  0.00    +0.286 A 
ATOM     20  O   UNL     1       1.114  -2.534  -0.102  0.00  0.00    -0.425 OA
ATOM     21  C   UNL     1       1.492  -1.296  -0.489  0.00  0.00    +0.141 A 
ATOM     22  C   UNL     1       0.537  -0.270  -0.577  0.00  0.00    +0.041 A 
ATOM     23  C   UNL     1       0.923   1.010  -0.976  0.00  0.00    +0.013 A 
ATOM     24  C   UNL     1       2.243   1.259  -1.283  0.00  0.00    +0.001 A 
ATOM     25  C   UNL     1       3.185   0.245  -1.196  0.00  0.00    +0.004 A 
ATOM     26  C   UNL     1       2.817  -1.024  -0.801  0.00  0.00    +0.047 A 
ATOM     27  H   UNL     1      -1.572   1.421  -0.629  0.00  0.00    +0.160 HD
BRANCH  19  28
ATOM     28  O   UNL     1      -0.448  -3.954   0.548  0.00  0.00    -0.480 OA
ATOM     29  H   UNL     1       0.333  -4.726   0.603  0.00  0.00    +0.295 HD
ENDBRANCH  19  28
ENDBRANCH  15  16
ENDBRANCH  14  15
ENDBRANCH  13  14
ENDBRANCH   3  13
BRANCH   3  30
ATOM     30  C   UNL     1      -6.728   2.652  -1.304  0.00  0.00    +0.143 C 
BRANCH  30  31
ATOM     31  C   UNL     1      -8.056   2.072  -1.718  0.00  0.00    -0.030 A 
ATOM     32  C   UNL     1      -8.100   0.911  -2.467  0.00  0.00    +0.005 A 
ATOM     33  C   UNL     1      -9.318   0.377  -2.842  0.00  0.00    +0.000 A 
ATOM     34  C   UNL     1     -10.492   1.009  -2.478  0.00  0.00    +0.000 A 
ATOM     35  C   UNL     1     -10.448   2.173  -1.734  0.00  0.00    +0.000 A 
ATOM     36  C   UNL     1      -9.230   2.705  -1.353  0.00  0.00    +0.005 A 
ENDBRANCH  30  31
ENDBRANCH   3  30
TORSDOF 9
