REMARK  Name = ZINC38051454
REMARK  3 active torsions:
REMARK  status: ('A' for Active; 'I' for Inactive)
REMARK    1  A    between atoms: C_6  and  N_7
REMARK    2  A    between atoms: N_8  and  C_12
REMARK    3  A    between atoms: C_12  and  C_13
REMARK                            x       y       z     vdW  Elec       q    Type
REMARK                         _______ _______ _______ _____ _____    ______ ____
ROOT
ATOM      1  C   UNL     1      -0.017   1.384   0.010  0.00  0.00    +0.024 A 
ATOM      2  C   UNL     1       1.172   2.087   0.002  0.00  0.00    +0.018 A 
ATOM      3  C   UNL     1       2.386   1.413  -0.010  0.00  0.00    +0.029 A 
ATOM      4  C   UNL     1       2.413   0.021  -0.010  0.00  0.00    +0.046 A 
ATOM      5  C   UNL     1       1.211  -0.682  -0.009  0.00  0.00    +0.047 A 
ATOM      6  C   UNL     1       0.002  -0.004   0.002  0.00  0.00    +0.026 A 
ATOM      7  N   UNL     1       3.601  -0.711   0.001  0.00  0.00    -0.315 N 
ATOM      8  C   UNL     1       4.888  -0.146  -0.393  0.00  0.00    +0.117 C 
ATOM      9  C   UNL     1       5.145   1.123   0.434  0.00  0.00    +0.093 C 
ATOM     10  S   UNL     1       3.884   2.347  -0.029  0.00  0.00    -0.122 S 
ENDROOT
BRANCH   6  11
ATOM     11  N   UNL     1      -1.201  -0.720   0.005  0.00  0.00    -0.358 N 
ATOM     12  H   UNL     1      -2.047  -0.246   0.013  0.00  0.00    +0.142 HD
ATOM     13  H   UNL     1      -1.188  -1.690   0.000  0.00  0.00    +0.142 HD
ENDBRANCH   6  11
BRANCH   7  14
ATOM     14  C   UNL     1       3.554  -2.111   0.430  0.00  0.00    +0.224 C 
BRANCH  14  15
ATOM     15  C   UNL     1       3.309  -2.974  -0.737  0.00  0.00    +0.082 C 
ATOM     16  N   UNL     1       3.119  -3.639  -1.638  0.00  0.00    -0.195 NA
ENDBRANCH  14  15
ENDBRANCH   7  14
TORSDOF 3
