REMARK  Name = ZINC63161732
REMARK  10 active torsions:
REMARK  status: ('A' for Active; 'I' for Inactive)
REMARK    1  A    between atoms: C_1  and  C_2
REMARK    2  A    between atoms: C_2  and  C_3
REMARK    3  A    between atoms: C_2  and  N_4
REMARK    4  A    between atoms: N_4  and  C_5
REMARK    5  A    between atoms: N_4  and  C_6
REMARK    6  A    between atoms: C_6  and  C_7
REMARK    7  A    between atoms: C_12  and  C_13
REMARK    8  A    between atoms: C_13  and  N_14
REMARK    9  A    between atoms: N_17  and  C_18
REMARK   10  A    between atoms: C_20  and  C_26
REMARK                            x       y       z     vdW  Elec       q    Type
REMARK                         _______ _______ _______ _____ _____    ______ ____
ROOT
ATOM      1  N   UNL     1      -2.043  -3.378  -2.585  0.00  0.00    -0.295 N 
ATOM      2  C   UNL     1      -1.450  -3.189  -3.780  0.00  0.00    +0.304 C 
ATOM      3  O   UNL     1      -1.578  -2.129  -4.362  0.00  0.00    -0.252 OA
ATOM      4  N   UNL     1      -0.714  -4.175  -4.331  0.00  0.00    -0.265 N 
ATOM      5  H   UNL     1      -1.941  -4.224  -2.121  0.00  0.00    +0.151 HD
ATOM      6  H   UNL     1      -0.664  -5.042  -3.899  0.00  0.00    +0.157 HD
ENDROOT
BRANCH   4   7
ATOM      7  C   UNL     1      -0.020  -3.946  -5.527  0.00  0.00    +0.100 A 
ATOM      8  C   UNL     1       1.339  -4.100  -5.580  0.00  0.00    +0.042 A 
ATOM      9  C   UNL     1       2.008  -3.866  -6.789  0.00  0.00    +0.073 A 
ATOM     10  C   UNL     1       1.312  -3.493  -7.887  0.00  0.00    +0.098 A 
ATOM     11  N   UNL     1      -0.038  -3.339  -7.837  0.00  0.00    -0.327 N 
ATOM     12  H   UNL     1      -0.520  -3.071  -8.635  0.00  0.00    +0.168 HD
ATOM     13  C   UNL     1      -0.715  -3.561  -6.694  0.00  0.00    +0.270 A 
ATOM     14  O   UNL     1      -1.927  -3.425  -6.666  0.00  0.00    -0.266 OA
BRANCH   9  15
ATOM     15  C   UNL     1       3.504  -4.030  -6.866  0.00  0.00    +0.419 C 
ATOM     16  F   UNL     1       3.939  -3.744  -8.165  0.00  0.00    -0.166 F 
ATOM     17  F   UNL     1       4.116  -3.151  -5.965  0.00  0.00    -0.166 F 
ATOM     18  F   UNL     1       3.847  -5.346  -6.539  0.00  0.00    -0.166 F 
ENDBRANCH   9  15
ENDBRANCH   4   7
BRANCH   1  19
ATOM     19  C   UNL     1      -2.843  -2.307  -1.986  0.00  0.00    +0.141 C 
BRANCH  19  25
ATOM     20  C   UNL     1      -2.427  -2.578   0.467  0.00  0.00    -0.059 A 
ATOM     21  C   UNL     1      -2.835  -2.953   1.733  0.00  0.00    +0.002 A 
ATOM     22  C   UNL     1      -4.100  -3.475   1.925  0.00  0.00    +0.000 A 
ATOM     23  C   UNL     1      -4.957  -3.623   0.850  0.00  0.00    +0.000 A 
ATOM     24  C   UNL     1      -4.550  -3.248  -0.416  0.00  0.00    +0.005 A 
ATOM     25  C   UNL     1      -3.286  -2.721  -0.607  0.00  0.00    -0.029 A 
BRANCH  20  26
ATOM     26  C   UNL     1      -1.048  -2.008   0.257  0.00  0.00    -0.043 C 
BRANCH  26  27
ATOM     27  N   UNL     1      -0.150  -3.063  -0.231  0.00  0.00    +0.382 N 
ATOM     28  C   UNL     1       0.009  -4.090   0.808  0.00  0.00    -0.095 C 
ATOM     29  H   UNL     1      -0.544  -3.482  -1.060  0.00  0.00    -0.081 HD
BRANCH  27  31
ATOM     30  C   UNL     1       2.095  -3.582  -1.059  0.00  0.00    -0.014 C 
ATOM     31  C   UNL     1       1.161  -2.483  -0.550  0.00  0.00    -0.075 C 
ATOM     32  C   UNL     1       0.995  -1.414  -1.632  0.00  0.00    -0.014 C 
ENDBRANCH  27  31
ENDBRANCH  26  27
ENDBRANCH  20  26
ENDBRANCH  19  25
ENDBRANCH   1  19
TORSDOF 7
