REMARK  Name = ZINC31973832
REMARK  3 active torsions:
REMARK  status: ('A' for Active; 'I' for Inactive)
REMARK    1  A    between atoms: C_3  and  C_6
REMARK    2  A    between atoms: C_7  and  C_18
REMARK    3  A    between atoms: C_18  and  N_19
REMARK                            x       y       z     vdW  Elec       q    Type
REMARK                         _______ _______ _______ _____ _____    ______ ____
ROOT
ATOM      1  C   UNL     1      -1.740   7.282   0.229  0.00  0.00    +0.098 A 
ATOM      2  C   UNL     1      -1.351   6.185   0.928  0.00  0.00    +0.035 A 
ATOM      3  N   UNL     1      -1.294   5.119   0.035  0.00  0.00    -0.296 N 
ATOM      4  C   UNL     1      -0.979   3.764   0.091  0.00  0.00    +0.036 A 
ATOM      5  C   UNL     1      -1.050   3.053  -1.040  0.00  0.00    +0.013 A 
ATOM      6  S   UNL     1      -1.562   4.238  -2.257  0.00  0.00    -0.054 S 
ATOM      7  C   UNL     1      -1.657   5.646  -1.173  0.00  0.00    +0.178 A 
ATOM      8  N   UNL     1      -1.918   6.915  -1.058  0.00  0.00    -0.221 NA
ATOM      9  C   UNL     1      -0.763   1.598  -1.231  0.00  0.00    +0.044 C 
ATOM     10  C   UNL     1      -0.013   1.086   0.008  0.00  0.00    +0.006 C 
ATOM     11  C   UNL     1      -0.737   1.583   1.263  0.00  0.00    +0.006 C 
ATOM     12  C   UNL     1      -0.563   3.095   1.400  0.00  0.00    +0.054 C 
ENDROOT
BRANCH   1  15
ATOM     13  C   UNL     1      -1.948  11.001   0.912  0.00  0.00    +0.008 A 
ATOM     14  C   UNL     1      -1.682   9.852   0.196  0.00  0.00    +0.018 A 
ATOM     15  C   UNL     1      -1.933   8.640   0.781  0.00  0.00    +0.039 A 
ATOM     16  S   UNL     1      -2.546   9.126   2.386  0.00  0.00    -0.095 S 
ATOM     17  C   UNL     1      -2.437  10.895   2.173  0.00  0.00    +0.046 A 
ENDBRANCH   1  15
BRANCH   2  18
ATOM     18  C   UNL     1      -1.041   6.131   2.401  0.00  0.00    -0.029 C 
BRANCH  18  19
ATOM     19  N   UNL     1       0.386   6.410   2.611  0.00  0.00    +0.382 N 
ATOM     20  H   UNL     1       0.613   6.371   3.687  0.00  0.00    -0.090 HD
ATOM     21  H   UNL     1       0.625   7.411   2.223  0.00  0.00    -0.090 HD
ATOM     22  H   UNL     1       0.989   5.658   2.082  0.00  0.00    -0.090 HD
ENDBRANCH  18  19
ENDBRANCH   2  18
TORSDOF 3
