REMARK  Name = ZINC20231117
REMARK  12 active torsions:
REMARK  status: ('A' for Active; 'I' for Inactive)
REMARK    1  A    between atoms: C_1  and  C_2
REMARK    2  A    between atoms: C_2  and  C_4
REMARK    3  A    between atoms: C_2  and  N_27
REMARK    4  A    between atoms: C_4  and  O_6
REMARK    5  A    between atoms: O_6  and  C_7
REMARK    6  A    between atoms: C_11  and  C_17
REMARK    7  A    between atoms: C_12  and  C_13
REMARK    8  A    between atoms: C_13  and  C_15
REMARK    9  A    between atoms: C_15  and  N_16
REMARK   10  A    between atoms: C_17  and  O_19
REMARK   11  A    between atoms: O_19  and  C_20
REMARK   12  A    between atoms: C_20  and  C_21
REMARK                            x       y       z     vdW  Elec       q    Type
REMARK                         _______ _______ _______ _____ _____    ______ ____
ROOT
ATOM      1  C   UNL     1      -1.381   5.091  -2.067  0.00  0.00    +0.143 A 
ATOM      2  C   UNL     1      -0.669   5.792  -1.101  0.00  0.00    +0.047 A 
ATOM      3  C   UNL     1      -0.733   7.170  -1.050  0.00  0.00    +0.004 A 
ATOM      4  C   UNL     1      -1.506   7.873  -1.958  0.00  0.00    +0.016 A 
ATOM      5  C   UNL     1      -2.228   7.196  -2.934  0.00  0.00    +0.073 A 
ATOM      6  C   UNL     1      -2.164   5.787  -2.997  0.00  0.00    +0.072 A 
ENDROOT
BRANCH   6   7
ATOM      7  C   UNL     1      -2.917   5.057  -4.025  0.00  0.00    +0.150 C 
ATOM      8  O   UNL     1      -4.040   4.665  -3.791  0.00  0.00    -0.294 OA
BRANCH   7   9
ATOM      9  C   UNL     1      -2.293   4.795  -5.372  0.00  0.00    -0.005 C 
BRANCH   9  10
ATOM     10  N   UNL     1      -3.241   4.054  -6.215  0.00  0.00    +0.383 N 
ATOM     11  H   UNL     1      -2.786   3.863  -7.198  0.00  0.00    -0.089 HD
ATOM     12  H   UNL     1      -4.158   4.648  -6.344  0.00  0.00    -0.089 HD
ATOM     13  H   UNL     1      -3.489   3.097  -5.733  0.00  0.00    -0.089 HD
ENDBRANCH   9  10
ENDBRANCH   7   9
ENDBRANCH   6   7
BRANCH   5  14
ATOM     14  C   UNL     1      -3.053   7.946  -3.903  0.00  0.00    +0.340 C 
ATOM     15  O   UNL     1      -3.764   7.349  -4.686  0.00  0.00    -0.245 OA
BRANCH  14  16
ATOM     16  O   UNL     1      -3.017   9.293  -3.918  0.00  0.00    -0.456 OA
BRANCH  16  17
ATOM     17  C   UNL     1      -3.854   9.964  -4.897  0.00  0.00    +0.268 C 
BRANCH  17  18
ATOM     18  C   UNL     1      -3.683  11.455  -4.766  0.00  0.00    -0.010 A 
ATOM     19  C   UNL     1      -4.507  12.173  -3.919  0.00  0.00    +0.007 A 
ATOM     20  C   UNL     1      -4.348  13.541  -3.795  0.00  0.00    +0.000 A 
ATOM     21  C   UNL     1      -3.371  14.192  -4.525  0.00  0.00    +0.000 A 
ATOM     22  C   UNL     1      -2.551  13.475  -5.375  0.00  0.00    +0.000 A 
ATOM     23  C   UNL     1      -2.707  12.106  -5.496  0.00  0.00    +0.007 A 
ENDBRANCH  17  18
ENDBRANCH  16  17
ENDBRANCH  14  16
ENDBRANCH   5  14
BRANCH   1  24
ATOM     24  O   UNL     1      -1.314   3.737  -2.113  0.00  0.00    -0.424 OA
BRANCH  24  25
ATOM     25  C   UNL     1      -2.269   3.057  -1.457  0.00  0.00    +0.329 C 
ATOM     26  O   UNL     1      -3.101   3.651  -0.814  0.00  0.00    -0.249 OA
BRANCH  25  28
ATOM     27  C   UNL     1      -0.995   0.987  -0.964  0.00  0.00    +0.036 C 
ATOM     28  C   UNL     1      -2.302   1.552  -1.524  0.00  0.00    +0.158 C 
BRANCH  28  29
ATOM     29  N   UNL     1      -3.432   1.051  -0.729  0.00  0.00    -0.319 NA
ATOM     30  H   UNL     1      -4.372   1.457  -1.132  0.00  0.00    +0.119 HD
ATOM     31  H   UNL     1      -3.456  -0.048  -0.778  0.00  0.00    +0.119 HD
ENDBRANCH  28  29
ENDBRANCH  25  28
ENDBRANCH  24  25
ENDBRANCH   1  24
TORSDOF 11
