REMARK  Name = ZINC61409562
REMARK  7 active torsions:
REMARK  status: ('A' for Active; 'I' for Inactive)
REMARK    1  A    between atoms: C_1  and  C_2
REMARK    2  A    between atoms: C_2  and  C_3
REMARK    3  A    between atoms: C_2  and  C_4
REMARK    4  A    between atoms: C_4  and  C_5
REMARK    5  A    between atoms: C_5  and  N_6
REMARK    6  A    between atoms: C_7  and  C_9
REMARK    7  A    between atoms: C_9  and  N_10
REMARK                            x       y       z     vdW  Elec       q    Type
REMARK                         _______ _______ _______ _____ _____    ______ ____
ROOT
ATOM      1  N   UNL     1      -4.418  -5.869  -0.335  0.00  0.00    -0.215 N 
ATOM      2  C   UNL     1      -4.448  -6.527  -1.513  0.00  0.00    +0.247 C 
ATOM      3  O   UNL     1      -4.492  -6.043  -2.623  0.00  0.00    -0.273 OA
ATOM      4  C   UNL     1      -4.414  -7.995  -1.155  0.00  0.00    +0.109 C 
ATOM      5  C   UNL     1      -3.170  -8.658  -1.738  0.00  0.00    +0.016 C 
ATOM      6  C   UNL     1      -3.187 -10.151  -1.399  0.00  0.00    -0.080 C 
ATOM      7  N   UNL     1      -4.400 -10.767  -1.952  0.00  0.00    +0.379 N 
ATOM      8  C   UNL     1      -5.590 -10.187  -1.317  0.00  0.00    -0.080 C 
ATOM      9  C   UNL     1      -5.674  -8.696  -1.653  0.00  0.00    +0.016 C 
ATOM     10  N   UNL     1      -4.364  -8.005   0.312  0.00  0.00    -0.285 N 
ATOM     11  C   UNL     1      -4.365  -6.715   0.701  0.00  0.00    +0.310 C 
ATOM     12  O   UNL     1      -4.325  -6.359   1.863  0.00  0.00    -0.252 OA
ATOM     13  H   UNL     1      -4.436 -10.601  -2.946  0.00  0.00    -0.086 HD
ATOM     14  H   UNL     1      -4.333  -8.785   0.887  0.00  0.00    +0.151 HD
ATOM     15  H   UNL     1      -4.379 -11.761  -1.780  0.00  0.00    -0.086 HD
ENDROOT
BRANCH   1  16
ATOM     16  C   UNL     1      -4.435  -4.410  -0.207  0.00  0.00    +0.213 C 
BRANCH  16  18
ATOM     17  N   UNL     1      -2.790  -2.565  -0.111  0.00  0.00    -0.314 N 
ATOM     18  C   UNL     1      -3.021  -3.888  -0.217  0.00  0.00    +0.231 C 
ATOM     19  O   UNL     1      -2.091  -4.660  -0.322  0.00  0.00    -0.274 OA
ATOM     20  H   UNL     1      -3.534  -1.948  -0.027  0.00  0.00    +0.149 HD
BRANCH  17  21
ATOM     21  C   UNL     1      -1.416  -2.058  -0.121  0.00  0.00    +0.104 C 
BRANCH  21  22
ATOM     22  C   UNL     1      -1.433  -0.534   0.013  0.00  0.00    +0.022 C 
BRANCH  22  24
ATOM     23  C   UNL     1      -0.019   1.526   0.010  0.00  0.00    +0.007 C 
ATOM     24  C   UNL     1       0.002  -0.004   0.002  0.00  0.00    -0.016 C 
ATOM     25  C   UNL     1       0.742  -0.511   1.242  0.00  0.00    +0.007 C 
ENDBRANCH  22  24
ENDBRANCH  21  22
ENDBRANCH  17  21
ENDBRANCH  16  18
ENDBRANCH   1  16
TORSDOF 5
