REMARK  Name = ZINC15480350
REMARK  12 active torsions:
REMARK  status: ('A' for Active; 'I' for Inactive)
REMARK    1  A    between atoms: C_1  and  C_2
REMARK    2  A    between atoms: C_6  and  N_9
REMARK    3  A    between atoms: C_7  and  C_8
REMARK    4  A    between atoms: C_10  and  C_12
REMARK    5  A    between atoms: C_12  and  N_13
REMARK    6  A    between atoms: N_13  and  C_14
REMARK    7  A    between atoms: N_13  and  C_15
REMARK    8  A    between atoms: C_15  and  C_16
REMARK    9  A    between atoms: N_18  and  C_19
REMARK   10  A    between atoms: C_22  and  N_25
REMARK   11  A    between atoms: N_28  and  C_31
REMARK   12  A    between atoms: C_31  and  C_32
REMARK                            x       y       z     vdW  Elec       q    Type
REMARK                         _______ _______ _______ _____ _____    ______ ____
ROOT
ATOM      1  C   UNL     1       0.842  -9.012   6.263  0.00  0.00    +0.201 C 
ATOM      2  O   UNL     1       1.288  -9.823   7.048  0.00  0.00    -0.278 OA
ATOM      3  N   UNL     1       0.344  -9.423   5.080  0.00  0.00    -0.287 N 
ATOM      4  H   UNL     1       0.065  -8.771   4.419  0.00  0.00    +0.155 HD
ENDROOT
BRANCH   3   5
ATOM      5  C   UNL     1       0.231 -10.793   4.805  0.00  0.00    +0.033 A 
ATOM      6  C   UNL     1       0.253 -11.241   3.491  0.00  0.00    +0.025 A 
ATOM      7  C   UNL     1       0.141 -12.591   3.220  0.00  0.00    +0.025 A 
ATOM      8  C   UNL     1       0.008 -13.499   4.262  0.00  0.00    +0.030 A 
ATOM      9  C   UNL     1      -0.014 -13.050   5.577  0.00  0.00    +0.025 A 
ATOM     10  C   UNL     1       0.103 -11.702   5.847  0.00  0.00    +0.025 A 
BRANCH   8  11
ATOM     11  N   UNL     1      -0.105 -14.866   3.988  0.00  0.00    -0.327 N 
ATOM     12  C   UNL     1      -0.368 -15.833   5.065  0.00  0.00    +0.120 C 
ATOM     13  C   UNL     1      -1.558 -16.708   4.654  0.00  0.00    +0.103 C 
ATOM     14  N   UNL     1      -1.292 -17.302   3.337  0.00  0.00    -0.295 NA
ATOM     15  C   UNL     1      -1.170 -16.268   2.301  0.00  0.00    +0.103 C 
ATOM     16  C   UNL     1       0.029 -15.374   2.614  0.00  0.00    +0.120 C 
BRANCH  14  17
ATOM     17  C   UNL     1      -2.329 -18.281   2.983  0.00  0.00    +0.119 C 
BRANCH  17  18
ATOM     18  C   UNL     1      -1.901 -19.043   1.754  0.00  0.00    -0.033 A 
ATOM     19  C   UNL     1      -2.236 -18.572   0.498  0.00  0.00    +0.005 A 
ATOM     20  C   UNL     1      -1.844 -19.271  -0.628  0.00  0.00    +0.000 A 
ATOM     21  C   UNL     1      -1.117 -20.439  -0.499  0.00  0.00    +0.000 A 
ATOM     22  C   UNL     1      -0.782 -20.909   0.757  0.00  0.00    +0.000 A 
ATOM     23  C   UNL     1      -1.170 -20.209   1.883  0.00  0.00    +0.005 A 
ENDBRANCH  17  18
ENDBRANCH  14  17
ENDBRANCH   8  11
ENDBRANCH   3   5
BRANCH   1  24
ATOM     24  C   UNL     1       0.846  -7.546   6.611  0.00  0.00    +0.019 C 
BRANCH  24  25
ATOM     25  N   UNL     1       1.436  -7.360   7.943  0.00  0.00    +0.389 N 
ATOM     26  C   UNL     1       0.578  -7.997   8.952  0.00  0.00    -0.095 C 
ATOM     27  H   UNL     1       2.353  -7.781   7.967  0.00  0.00    -0.081 HD
BRANCH  25  28
ATOM     28  C   UNL     1       1.549  -5.924   8.233  0.00  0.00    +0.019 C 
BRANCH  28  30
ATOM     29  N   UNL     1       2.485  -4.488  10.016  0.00  0.00    -0.287 N 
ATOM     30  C   UNL     1       2.265  -5.731   9.544  0.00  0.00    +0.201 C 
ATOM     31  O   UNL     1       2.644  -6.695  10.176  0.00  0.00    -0.278 OA
ATOM     32  H   UNL     1       2.110  -3.721   9.554  0.00  0.00    +0.155 HD
BRANCH  29  38
ATOM     33  C   UNL     1       3.649  -1.750  13.930  0.00  0.00    +0.044 C 
ATOM     34  C   UNL     1       3.838  -2.985  13.086  0.00  0.00    -0.046 A 
ATOM     35  C   UNL     1       4.772  -3.936  13.454  0.00  0.00    +0.004 A 
ATOM     36  C   UNL     1       4.948  -5.070  12.683  0.00  0.00    +0.002 A 
ATOM     37  C   UNL     1       4.191  -5.256  11.542  0.00  0.00    +0.023 A 
ATOM     38  C   UNL     1       3.253  -4.303  11.171  0.00  0.00    +0.036 A 
ATOM     39  C   UNL     1       3.075  -3.167  11.950  0.00  0.00    -0.026 A 
ATOM     40  C   UNL     1       2.053  -2.132  11.554  0.00  0.00    +0.046 C 
ENDBRANCH  29  38
ENDBRANCH  28  30
ENDBRANCH  25  28
ENDBRANCH  24  25
ENDBRANCH   1  24
TORSDOF 9
