REMARK  Name = ZINC08811235
REMARK  7 active torsions:
REMARK  status: ('A' for Active; 'I' for Inactive)
REMARK    1  A    between atoms: C_1  and  C_2
REMARK    2  A    between atoms: C_5  and  S_24
REMARK    3  A    between atoms: C_10  and  C_11
REMARK    4  A    between atoms: N_16  and  C_19
REMARK    5  A    between atoms: S_24  and  N_27
REMARK    6  A    between atoms: C_29  and  C_36
REMARK    7  A    between atoms: C_32  and  C_35
REMARK                            x       y       z     vdW  Elec       q    Type
REMARK                         _______ _______ _______ _____ _____    ______ ____
ROOT
ATOM      1  C   UNL     1      -1.743  -1.012   4.692  0.00  0.00    +0.048 C 
ATOM      2  C   UNL     1      -1.950   0.472   4.529  0.00  0.00    +0.008 A 
ATOM      3  C   UNL     1      -2.514   1.395   5.514  0.00  0.00    +0.026 A 
ATOM      4  C   UNL     1      -3.007   1.250   6.813  0.00  0.00    +0.040 A 
ATOM      5  C   UNL     1      -3.482   2.343   7.482  0.00  0.00    +0.106 A 
ATOM      6  C   UNL     1      -3.478   3.594   6.879  0.00  0.00    +0.032 A 
ATOM      7  C   UNL     1      -2.995   3.757   5.599  0.00  0.00    +0.049 A 
ATOM      8  C   UNL     1      -2.507   2.660   4.898  0.00  0.00    +0.136 A 
ATOM      9  O   UNL     1      -1.984   2.510   3.666  0.00  0.00    -0.450 OA
ATOM     10  C   UNL     1      -1.649   1.223   3.439  0.00  0.00    +0.194 A 
ENDROOT
BRANCH  10  11
ATOM     11  C   UNL     1      -1.054   0.710   2.197  0.00  0.00    +0.282 C 
ATOM     12  O   UNL     1      -0.656  -0.438   2.142  0.00  0.00    -0.267 OA
ATOM     13  N   UNL     1      -0.948   1.512   1.119  0.00  0.00    -0.292 N 
ATOM     14  C   UNL     1      -0.218   1.074  -0.080  0.00  0.00    +0.127 C 
ATOM     15  C   UNL     1      -1.114   1.284  -1.305  0.00  0.00    +0.125 C 
ATOM     16  N   UNL     1      -1.578   2.678  -1.336  0.00  0.00    -0.314 N 
ATOM     17  C   UNL     1      -2.408   2.989  -0.164  0.00  0.00    +0.125 C 
ATOM     18  C   UNL     1      -1.564   2.849   1.107  0.00  0.00    +0.127 C 
BRANCH  16  19
ATOM     19  C   UNL     1      -2.259   2.950  -2.516  0.00  0.00    +0.099 A 
ATOM     20  C   UNL     1      -2.778   4.223  -2.734  0.00  0.00    +0.042 A 
ATOM     21  C   UNL     1      -3.454   4.480  -3.913  0.00  0.00    +0.005 A 
ATOM     22  C   UNL     1      -3.589   3.453  -4.838  0.00  0.00    +0.018 A 
ATOM     23  C   UNL     1      -3.049   2.214  -4.556  0.00  0.00    +0.084 A 
ATOM     24  N   UNL     1      -2.374   1.927  -3.411  0.00  0.00    -0.350 N 
ATOM     25  H   UNL     1      -1.975   0.998  -3.231  0.00  0.00    +0.166 HD
ENDBRANCH  16  19
ENDBRANCH  10  11
BRANCH   5  26
ATOM     26  S   UNL     1      -4.104   2.163   9.121  0.00  0.00    +0.061 S 
ATOM     27  O   UNL     1      -4.998   3.246   9.336  0.00  0.00    -0.153 OA
ATOM     28  O   UNL     1      -4.504   0.806   9.257  0.00  0.00    -0.153 OA
BRANCH  26  29
ATOM     29  N   UNL     1      -2.831   2.387  10.155  0.00  0.00    -0.176 NA
ATOM     30  C   UNL     1      -2.008   1.249  10.588  0.00  0.00    +0.112 C 
ATOM     31  C   UNL     1      -0.535   1.571  10.293  0.00  0.00    +0.002 C 
ATOM     32  C   UNL     1      -0.168   2.900  10.957  0.00  0.00    +0.009 C 
ATOM     33  C   UNL     1      -1.031   4.020  10.373  0.00  0.00    +0.002 C 
ATOM     34  C   UNL     1      -2.506   3.727  10.664  0.00  0.00    +0.112 C 
ATOM     35  C   UNL     1      -0.640   5.354  11.013  0.00  0.00    +0.009 C 
ATOM     36  C   UNL     1      -0.325   1.680   8.781  0.00  0.00    +0.009 C 
ENDBRANCH  26  29
ENDBRANCH   5  26
TORSDOF 4
