REMARK  Name = ZINC67224863
REMARK  13 active torsions:
REMARK  status: ('A' for Active; 'I' for Inactive)
REMARK    1  A    between atoms: C_1  and  C_2
REMARK    2  A    between atoms: C_2  and  O_3
REMARK    3  A    between atoms: O_3  and  C_4
REMARK    4  A    between atoms: C_6  and  C_14
REMARK    5  A    between atoms: C_9  and  O_10
REMARK    6  A    between atoms: O_10  and  C_11
REMARK    7  A    between atoms: C_14  and  N_15
REMARK    8  A    between atoms: N_15  and  C_16
REMARK    9  A    between atoms: C_16  and  C_17
REMARK   10  A    between atoms: C_17  and  C_19
REMARK   11  A    between atoms: C_17  and  O_28
REMARK   12  A    between atoms: C_19  and  O_20
REMARK   13  A    between atoms: O_20  and  C_21
REMARK                            x       y       z     vdW  Elec       q    Type
REMARK                         _______ _______ _______ _____ _____    ______ ____
ROOT
ATOM      1  N   UNL     1      -1.621  -5.283   0.127  0.00  0.00    +0.383 N 
ATOM      2  H   UNL     1      -2.161  -4.431   0.100  0.00  0.00    -0.085 HD
ATOM      3  H   UNL     1      -1.647  -5.726  -0.779  0.00  0.00    -0.085 HD
ENDROOT
BRANCH   1   4
ATOM      4  C   UNL     1      -0.229  -4.969   0.477  0.00  0.00    -0.047 C 
BRANCH   4   7
ATOM      5  C   UNL     1       0.777  -1.811  -1.336  0.00  0.00    +0.162 A 
ATOM      6  C   UNL     1       0.243  -2.669  -0.388  0.00  0.00    +0.051 A 
ATOM      7  C   UNL     1       0.352  -4.037  -0.555  0.00  0.00    -0.061 A 
ATOM      8  C   UNL     1       0.992  -4.552  -1.667  0.00  0.00    +0.005 A 
ATOM      9  C   UNL     1       1.526  -3.702  -2.616  0.00  0.00    +0.050 A 
ATOM     10  C   UNL     1       1.416  -2.330  -2.458  0.00  0.00    +0.168 A 
BRANCH   5  11
ATOM     11  O   UNL     1       0.671  -0.465  -1.174  0.00  0.00    -0.489 OA
BRANCH  11  13
ATOM     12  C   UNL     1      -0.019   1.526   0.010  0.00  0.00    +0.048 C 
ATOM     13  C   UNL     1       0.002  -0.004   0.002  0.00  0.00    +0.226 C 
ENDBRANCH  11  13
ENDBRANCH   5  11
BRANCH  10  14
ATOM     14  O   UNL     1       1.936  -1.492  -3.394  0.00  0.00    -0.431 OA
BRANCH  14  15
ATOM     15  C   UNL     1       2.578  -2.095  -4.520  0.00  0.00    +0.541 C 
ATOM     16  F   UNL     1       3.650  -2.879  -4.080  0.00  0.00    -0.166 F 
ATOM     17  F   UNL     1       1.661  -2.900  -5.204  0.00  0.00    -0.166 F 
ENDBRANCH  14  15
ENDBRANCH  10  14
ENDBRANCH   4   7
ENDBRANCH   1   4
BRANCH   1  18
ATOM     18  C   UNL     1      -2.187  -6.191   1.133  0.00  0.00    -0.047 C 
BRANCH  18  19
ATOM     19  C   UNL     1      -3.636  -6.518   0.767  0.00  0.00    +0.135 C 
BRANCH  19  20
ATOM     20  O   UNL     1      -3.664  -7.249  -0.460  0.00  0.00    -0.390 OA
ATOM     21  H   UNL     1      -3.181  -8.086  -0.430  0.00  0.00    +0.210 HD
ENDBRANCH  19  20
BRANCH  19  22
ATOM     22  C   UNL     1      -4.264  -7.362   1.878  0.00  0.00    +0.258 C 
BRANCH  22  23
ATOM     23  O   UNL     1      -5.649  -7.569   1.593  0.00  0.00    -0.489 OA
BRANCH  23  24
ATOM     24  C   UNL     1      -6.359  -8.305   2.488  0.00  0.00    +0.123 A 
ATOM     25  C   UNL     1      -5.737  -8.812   3.620  0.00  0.00    +0.046 A 
ATOM     26  C   UNL     1      -6.460  -9.560   4.529  0.00  0.00    +0.006 A 
ATOM     27  C   UNL     1      -7.804  -9.804   4.312  0.00  0.00    +0.038 A 
ATOM     28  C   UNL     1      -8.428  -9.299   3.184  0.00  0.00    +0.127 A 
ATOM     29  C   UNL     1      -7.708  -8.545   2.274  0.00  0.00    +0.084 A 
ATOM     30  F   UNL     1      -9.741  -9.539   2.974  0.00  0.00    -0.205 F 
ENDBRANCH  23  24
ENDBRANCH  22  23
ENDBRANCH  19  22
ENDBRANCH  18  19
ENDBRANCH   1  18
TORSDOF 12
