REMARK  Name = ZINC12558550
REMARK  12 active torsions:
REMARK  status: ('A' for Active; 'I' for Inactive)
REMARK    1  A    between atoms: C_1  and  C_2
REMARK    2  A    between atoms: C_2  and  C_4
REMARK    3  A    between atoms: C_2  and  N_14
REMARK    4  A    between atoms: C_15  and  C_17
REMARK    5  A    between atoms: C_17  and  S_18
REMARK    6  A    between atoms: S_18  and  C_19
REMARK    7  A    between atoms: C_22  and  C_31
REMARK    8  A    between atoms: N_23  and  C_24
REMARK    9  A    between atoms: C_31  and  C_33
REMARK   10  A    between atoms: C_31  and  N_62
REMARK   11  A    between atoms: C_34  and  N_62
REMARK   12  A    between atoms: C_35  and  N_62
REMARK                            x       y       z     vdW  Elec       q    Type
REMARK                         _______ _______ _______ _____ _____    ______ ____
ROOT
ATOM      1  S   UNL     1       8.401   3.623   1.925  0.00  0.00    -0.076 S 
ENDROOT
BRANCH   1   2
ATOM      2  C   UNL     1       9.467   4.936   2.420  0.00  0.00    +0.197 A 
ATOM      3  N   UNL     1       9.199   6.220   2.371  0.00  0.00    -0.122 NA
ATOM      4  N   UNL     1      10.201   6.893   2.811  0.00  0.00    -0.135 NA
ATOM      5  C   UNL     1      11.163   6.088   3.164  0.00  0.00    +0.125 A 
ATOM      6  N   UNL     1      10.729   4.810   2.933  0.00  0.00    -0.275 N 
BRANCH   6   7
ATOM      7  C   UNL     1      11.433   3.619   3.170  0.00  0.00    +0.050 A 
ATOM      8  C   UNL     1      11.767   3.256   4.468  0.00  0.00    +0.029 A 
ATOM      9  C   UNL     1      12.454   2.081   4.700  0.00  0.00    +0.040 A 
ATOM     10  C   UNL     1      12.821   1.271   3.638  0.00  0.00    +0.124 A 
ATOM     11  C   UNL     1      12.493   1.634   2.343  0.00  0.00    +0.040 A 
ATOM     12  C   UNL     1      11.800   2.806   2.107  0.00  0.00    +0.029 A 
ATOM     13  F   UNL     1      13.498   0.125   3.866  0.00  0.00    -0.205 F 
ENDBRANCH   6   7
BRANCH   5  14
ATOM     14  C   UNL     1      12.502   6.488   3.728  0.00  0.00    -0.003 C 
ATOM     15  C   UNL     1      12.333   6.922   5.185  0.00  0.00    -0.005 C 
BRANCH  14  18
ATOM     16  C   UNL     1      12.227   8.812   3.104  0.00  0.00    -0.096 C 
ATOM     17  C   UNL     1      14.448   7.867   3.309  0.00  0.00    -0.096 C 
ATOM     18  N   UNL     1      13.048   7.597   2.917  0.00  0.00    +0.382 N 
ATOM     19  H   UNL     1      13.025   7.329   1.926  0.00  0.00    -0.082 HD
ENDBRANCH  14  18
ENDBRANCH   5  14
ENDBRANCH   1   2
BRANCH   1  20
ATOM     20  C   UNL     1       6.960   4.575   1.384  0.00  0.00    +0.173 C 
BRANCH  20  22
ATOM     21  N   UNL     1       4.715   4.121   0.450  0.00  0.00    -0.308 N 
ATOM     22  C   UNL     1       5.887   3.633   0.904  0.00  0.00    +0.224 C 
ATOM     23  O   UNL     1       6.077   2.435   0.925  0.00  0.00    -0.275 OA
ATOM     24  H   UNL     1       4.563   5.079   0.433  0.00  0.00    +0.149 HD
BRANCH  21  26
ATOM     25  C   UNL     1       3.898   2.885  -1.496  0.00  0.00    +0.033 C 
ATOM     26  C   UNL     1       3.671   3.205  -0.017  0.00  0.00    +0.101 C 
BRANCH  26  27
ATOM     27  C   UNL     1       2.321   3.851   0.157  0.00  0.00    -0.020 A 
ATOM     28  C   UNL     1       2.206   5.208   0.152  0.00  0.00    +0.006 A 
ATOM     29  C   UNL     1       0.967   5.823   0.311  0.00  0.00    +0.001 A 
ATOM     30  C   UNL     1      -0.166   5.086   0.475  0.00  0.00    +0.008 A 
ATOM     31  C   UNL     1      -0.087   3.683   0.484  0.00  0.00    -0.018 A 
ATOM     32  C   UNL     1       1.174   3.057   0.323  0.00  0.00    -0.013 A 
ATOM     33  C   UNL     1       1.253   1.654   0.333  0.00  0.00    +0.009 A 
ATOM     34  C   UNL     1       0.120   0.917   0.496  0.00  0.00    +0.001 A 
ATOM     35  C   UNL     1      -1.121   1.533   0.649  0.00  0.00    +0.001 A 
ATOM     36  C   UNL     1      -1.235   2.889   0.651  0.00  0.00    +0.008 A 
ENDBRANCH  26  27
ENDBRANCH  21  26
ENDBRANCH  20  22
ENDBRANCH   1  20
TORSDOF 8
