REMARK  Name = ZINC21740778
REMARK  11 active torsions:
REMARK  status: ('A' for Active; 'I' for Inactive)
REMARK    1  A    between atoms: C_1  and  C_2
REMARK    2  A    between atoms: C_3  and  C_33
REMARK    3  A    between atoms: C_4  and  C_30
REMARK    4  A    between atoms: C_5  and  S_9
REMARK    5  A    between atoms: C_7  and  C_8
REMARK    6  A    between atoms: S_9  and  C_10
REMARK    7  A    between atoms: C_10  and  C_11
REMARK    8  A    between atoms: C_11  and  O_13
REMARK    9  A    between atoms: O_13  and  C_14
REMARK   10  A    between atoms: C_14  and  C_15
REMARK   11  A    between atoms: N_21  and  C_22
REMARK                            x       y       z     vdW  Elec       q    Type
REMARK                         _______ _______ _______ _____ _____    ______ ____
ROOT
ATOM      1  O   UNL     1       4.524   2.203   5.311  0.00  0.00    -0.456 OA
ENDROOT
BRANCH   1   2
ATOM      2  C   UNL     1       3.240   2.520   5.540  0.00  0.00    +0.318 C 
ATOM      3  O   UNL     1       2.873   2.779   6.662  0.00  0.00    -0.250 OA
BRANCH   2   4
ATOM      4  C   UNL     1       2.257   2.554   4.399  0.00  0.00    +0.196 C 
BRANCH   4   5
ATOM      5  S   UNL     1       0.622   3.012   5.025  0.00  0.00    -0.094 S 
BRANCH   5  10
ATOM      6  C   UNL     1      -2.426   2.873  -0.144  0.00  0.00    +0.046 C 
ATOM      7  C   UNL     1      -1.702   2.917   1.177  0.00  0.00    -0.026 A 
ATOM      8  C   UNL     1      -2.385   3.245   2.335  0.00  0.00    -0.031 A 
ATOM      9  C   UNL     1      -1.674   3.280   3.540  0.00  0.00    +0.071 A 
ATOM     10  C   UNL     1      -0.301   2.976   3.524  0.00  0.00    +0.110 A 
ATOM     11  N   UNL     1       0.302   2.663   2.387  0.00  0.00    -0.245 NA
ATOM     12  C   UNL     1      -0.351   2.625   1.242  0.00  0.00    +0.043 A 
ATOM     13  C   UNL     1       0.388   2.263  -0.020  0.00  0.00    +0.066 C 
ATOM     14  C   UNL     1      -3.858   3.562   2.299  0.00  0.00    +0.045 C 
BRANCH   9  15
ATOM     15  C   UNL     1      -2.351   3.630   4.801  0.00  0.00    +0.244 C 
ATOM     16  O   UNL     1      -2.407   4.790   5.160  0.00  0.00    -0.270 OA
ATOM     17  N   UNL     1      -2.908   2.663   5.557  0.00  0.00    -0.325 N 
ATOM     18  H   UNL     1      -3.413   2.924   6.499  0.00  0.00    +0.145 HD
ATOM     19  H   UNL     1      -2.857   1.613   5.233  0.00  0.00    +0.145 HD
ENDBRANCH   9  15
ENDBRANCH   5  10
ENDBRANCH   4   5
ENDBRANCH   2   4
ENDBRANCH   1   2
BRANCH   1  20
ATOM     20  C   UNL     1       5.415   2.189   6.458  0.00  0.00    +0.308 C 
BRANCH  20  21
ATOM     21  C   UNL     1       6.804   1.814   6.011  0.00  0.00    +0.173 A 
ATOM     22  N   UNL     1       7.654   2.755   5.639  0.00  0.00    -0.196 NA
ATOM     23  C   UNL     1       8.882   2.428   5.244  0.00  0.00    +0.217 A 
ATOM     24  N   UNL     1       9.253   1.152   5.222  0.00  0.00    -0.181 NA
ATOM     25  C   UNL     1       8.396   0.208   5.596  0.00  0.00    +0.224 A 
ATOM     26  N   UNL     1       7.171   0.544   5.996  0.00  0.00    -0.196 NA
ATOM     27  N   UNL     1       8.776  -1.119   5.575  0.00  0.00    -0.284 N 
ATOM     28  N   UNL     1       9.769   3.411   4.856  0.00  0.00    -0.327 N 
ATOM     29  H   UNL     1       8.100  -1.892   5.970  0.00  0.00    +0.155 HD
ATOM     30  H   UNL     1      10.783   3.140   4.529  0.00  0.00    +0.145 HD
ATOM     31  H   UNL     1       9.461   4.467   4.873  0.00  0.00    +0.145 HD
BRANCH  27  32
ATOM     32  C   UNL     1      10.023  -1.482   5.052  0.00  0.00    +0.034 A 
ATOM     33  C   UNL     1      10.567  -0.767   3.993  0.00  0.00    +0.026 A 
ATOM     34  C   UNL     1      11.799  -1.123   3.481  0.00  0.00    +0.040 A 
ATOM     35  C   UNL     1      12.487  -2.199   4.017  0.00  0.00    +0.124 A 
ATOM     36  C   UNL     1      11.944  -2.917   5.069  0.00  0.00    +0.040 A 
ATOM     37  C   UNL     1      10.714  -2.561   5.587  0.00  0.00    +0.026 A 
ATOM     38  F   UNL     1      13.690  -2.549   3.511  0.00  0.00    -0.205 F 
ENDBRANCH  27  32
ENDBRANCH  20  21
ENDBRANCH   1  20
TORSDOF 8
