REMARK  Name = ZINC16619640
REMARK  5 active torsions:
REMARK  status: ('A' for Active; 'I' for Inactive)
REMARK    1  A    between atoms: C_1  and  C_2
REMARK    2  A    between atoms: N_13  and  C_16
REMARK    3  A    between atoms: C_16  and  C_17
REMARK    4  A    between atoms: N_19  and  C_20
REMARK    5  A    between atoms: C_21  and  C_25
REMARK                            x       y       z     vdW  Elec       q    Type
REMARK                         _______ _______ _______ _____ _____    ______ ____
ROOT
ATOM      1  C   UNL     1      -2.396  -9.588  -5.484  0.00  0.00    +0.008 C 
ATOM      2  C   UNL     1      -1.477  -8.988  -4.418  0.00  0.00    -0.009 C 
ATOM      3  C   UNL     1      -1.290  -7.491  -4.683  0.00  0.00    +0.008 C 
ATOM      4  C   UNL     1      -0.188  -6.937  -3.781  0.00  0.00    +0.037 C 
ATOM      5  C   UNL     1      -0.497  -7.316  -2.335  0.00  0.00    -0.023 A 
ATOM      6  C   UNL     1      -1.361  -8.314  -2.054  0.00  0.00    -0.004 A 
ATOM      7  S   UNL     1      -1.408  -8.397  -0.284  0.00  0.00    -0.073 S 
ATOM      8  C   UNL     1      -0.265  -7.087   0.073  0.00  0.00    +0.116 A 
ATOM      9  C   UNL     1       0.115  -6.629  -1.198  0.00  0.00    +0.076 A 
ATOM     10  C   UNL     1       1.054  -5.546  -1.212  0.00  0.00    +0.263 A 
ATOM     11  O   UNL     1       1.445  -5.079  -2.268  0.00  0.00    -0.267 OA
ATOM     12  N   UNL     1       1.498  -5.055  -0.040  0.00  0.00    -0.290 N 
ATOM     13  C   UNL     1       1.078  -5.567   1.145  0.00  0.00    +0.203 A 
ATOM     14  N   UNL     1       0.218  -6.550   1.190  0.00  0.00    -0.230 NA
ATOM     15  C   UNL     1      -2.112  -9.166  -3.031  0.00  0.00    +0.046 C 
ENDROOT
BRANCH  12  16
ATOM     16  C   UNL     1       2.458  -3.949  -0.043  0.00  0.00    +0.222 C 
BRANCH  16  17
ATOM     17  C   UNL     1       1.715  -2.638  -0.029  0.00  0.00    +0.237 C 
ATOM     18  O   UNL     1       0.502  -2.629  -0.017  0.00  0.00    -0.273 OA
ATOM     19  N   UNL     1       2.397  -1.476  -0.029  0.00  0.00    -0.278 N 
ATOM     20  H   UNL     1       3.367  -1.483  -0.039  0.00  0.00    +0.155 HD
BRANCH  19  21
ATOM     21  C   UNL     1       1.713  -0.270  -0.016  0.00  0.00    +0.084 A 
ATOM     22  C   UNL     1       2.234   1.018  -0.014  0.00  0.00    +0.065 A 
ATOM     23  C   UNL     1       1.283   2.104   0.001  0.00  0.00    +0.022 A 
ATOM     24  C   UNL     1      -0.022   1.776   0.012  0.00  0.00    +0.048 A 
ATOM     25  S   UNL     1       0.002  -0.004   0.002  0.00  0.00    -0.081 S 
BRANCH  22  26
ATOM     26  C   UNL     1       3.680   1.263  -0.026  0.00  0.00    +0.244 C 
ATOM     27  O   UNL     1       4.456   0.326  -0.038  0.00  0.00    -0.270 OA
ATOM     28  N   UNL     1       4.149   2.527  -0.024  0.00  0.00    -0.325 N 
ATOM     29  H   UNL     1       3.531   3.274  -0.014  0.00  0.00    +0.145 HD
ATOM     30  H   UNL     1       5.106   2.689  -0.032  0.00  0.00    +0.145 HD
ENDBRANCH  22  26
ENDBRANCH  19  21
ENDBRANCH  16  17
ENDBRANCH  12  16
TORSDOF 4
