REMARK  Name = ZINC64961003
REMARK  3 active torsions:
REMARK  status: ('A' for Active; 'I' for Inactive)
REMARK    1  A    between atoms: C_3  and  C_26
REMARK    2  A    between atoms: C_6  and  C_7
REMARK    3  A    between atoms: C_9  and  C_13
REMARK                            x       y       z     vdW  Elec       q    Type
REMARK                         _______ _______ _______ _____ _____    ______ ____
ROOT
ATOM      1  C   UNL     1      -1.268  -0.765   0.011  0.00  0.00    +0.134 C 
ATOM      2  N   UNL     1      -1.415  -1.937   0.546  0.00  0.00    -0.339 N 
ATOM      3  C   UNL     1      -2.804  -2.370   0.359  0.00  0.00    +0.279 C 
ATOM      4  O   UNL     1      -3.446  -1.301  -0.352  0.00  0.00    -0.243 OA
ATOM      5  N   UNL     1      -2.442  -0.316  -0.542  0.00  0.00    -0.247 N 
ATOM      6  H   UNL     1      -2.565   0.535  -0.992  0.00  0.00    +0.196 HD
ATOM      7  H   UNL     1      -0.720  -2.444   0.995  0.00  0.00    +0.164 HD
ENDROOT
BRANCH   3   8
ATOM      8  C   UNL     1      -2.851  -3.640  -0.451  0.00  0.00    +0.067 A 
ATOM      9  H   UNL     1      -0.833  -5.712  -1.897  0.00  0.00    +0.165 HD
ATOM     10  C   UNL     1      -1.705  -4.206  -0.882  0.00  0.00    +0.095 A 
ATOM     11  N   UNL     1      -1.686  -5.347  -1.613  0.00  0.00    -0.360 N 
ATOM     12  C   UNL     1      -2.847  -6.000  -1.963  0.00  0.00    +0.050 A 
ATOM     13  C   UNL     1      -2.814  -7.171  -2.714  0.00  0.00    +0.029 A 
ATOM     14  C   UNL     1      -3.990  -7.805  -3.049  0.00  0.00    +0.040 A 
ATOM     15  C   UNL     1      -5.215  -7.287  -2.645  0.00  0.00    +0.124 A 
ATOM     16  C   UNL     1      -5.270  -6.128  -1.901  0.00  0.00    +0.052 A 
ATOM     17  C   UNL     1      -4.086  -5.477  -1.554  0.00  0.00    +0.048 A 
ATOM     18  C   UNL     1      -4.096  -4.239  -0.754  0.00  0.00    +0.197 A 
ATOM     19  O   UNL     1      -5.143  -3.745  -0.370  0.00  0.00    -0.287 OA
ATOM     20  F   UNL     1      -6.358  -7.923  -2.984  0.00  0.00    -0.205 F 
ENDBRANCH   3   8
BRANCH   1  26
ATOM     21  C   UNL     1      -0.017   1.390   0.010  0.00  0.00    +0.012 A 
ATOM     22  C   UNL     1       1.170   2.094   0.002  0.00  0.00    +0.013 A 
ATOM     23  C   UNL     1       2.378   1.418  -0.013  0.00  0.00    +0.055 A 
ATOM     24  C   UNL     1       2.403   0.035  -0.021  0.00  0.00    +0.013 A 
ATOM     25  C   UNL     1       1.222  -0.679  -0.013  0.00  0.00    +0.012 A 
ATOM     26  C   UNL     1       0.002  -0.004   0.002  0.00  0.00    +0.017 A 
BRANCH  23  27
ATOM     27  C   UNL     1       3.671   2.192  -0.022  0.00  0.00    +0.417 C 
ATOM     28  F   UNL     1       4.083   2.425   1.294  0.00  0.00    -0.166 F 
ATOM     29  F   UNL     1       4.651   1.455  -0.695  0.00  0.00    -0.166 F 
ATOM     30  F   UNL     1       3.477   3.415  -0.673  0.00  0.00    -0.166 F 
ENDBRANCH  23  27
ENDBRANCH   1  26
TORSDOF 3
