REMARK  Name = ZINC43291159
REMARK  7 active torsions:
REMARK  status: ('A' for Active; 'I' for Inactive)
REMARK    1  A    between atoms: C_1  and  C_2
REMARK    2  A    between atoms: C_2  and  C_4
REMARK    3  A    between atoms: C_2  and  N_21
REMARK    4  A    between atoms: C_4  and  C_6
REMARK    5  A    between atoms: C_4  and  S_12
REMARK    6  A    between atoms: S_12  and  C_13
REMARK    7  A    between atoms: C_17  and  N_19
REMARK                            x       y       z     vdW  Elec       q    Type
REMARK                         _______ _______ _______ _____ _____    ______ ____
ROOT
ATOM      1  C   UNL     1       0.712  -0.479   1.247  0.00  0.00    +0.076 C 
ENDROOT
BRANCH   1   2
ATOM      2  C   UNL     1      -0.112   0.117   2.359  0.00  0.00    +0.003 A 
ATOM      3  C   UNL     1       0.281   0.929   3.371  0.00  0.00    +0.027 A 
ATOM      4  C   UNL     1      -0.660   1.359   4.289  0.00  0.00    +0.025 A 
ATOM      5  C   UNL     1      -1.946   0.955   4.149  0.00  0.00    +0.060 A 
ATOM      6  S   UNL     1      -1.859  -0.058   2.682  0.00  0.00    -0.099 S 
ATOM      7 BR   UNL     1      -0.159   2.493   5.717  0.00  0.00    -0.050 Br
ENDBRANCH   1   2
BRANCH   1   9
ATOM      8  C   UNL     1       0.328   1.518  -0.204  0.00  0.00    -0.013 C 
ATOM      9  C   UNL     1       0.171  -0.000  -0.102  0.00  0.00    -0.060 C 
BRANCH   9  10
ATOM     10  N   UNL     1       0.922  -0.645  -1.187  0.00  0.00    +0.381 N 
ATOM     11  H   UNL     1       1.908  -0.470  -1.064  0.00  0.00    -0.090 HD
ATOM     12  H   UNL     1       0.751  -1.639  -1.170  0.00  0.00    -0.090 HD
ATOM     13  H   UNL     1       0.622  -0.267  -2.074  0.00  0.00    -0.090 HD
ENDBRANCH   9  10
ENDBRANCH   1   9
BRANCH   1  14
ATOM     14  S   UNL     1       0.619  -2.289   1.328  0.00  0.00    -0.079 S 
BRANCH  14  15
ATOM     15  C   UNL     1       1.483  -2.694   2.809  0.00  0.00    +0.192 A 
ATOM     16  N   UNL     1       2.087  -1.730   3.489  0.00  0.00    -0.207 NA
ATOM     17  C   UNL     1       2.748  -1.999   4.612  0.00  0.00    +0.122 A 
ATOM     18  C   UNL     1       2.801  -3.313   5.069  0.00  0.00    +0.086 A 
ATOM     19  C   UNL     1       2.155  -4.298   4.328  0.00  0.00    +0.122 A 
ATOM     20  N   UNL     1       1.508  -3.955   3.217  0.00  0.00    -0.207 NA
ATOM     21  N   UNL     1       3.377  -0.985   5.316  0.00  0.00    -0.343 N 
ATOM     22  H   UNL     1       3.337  -0.071   4.992  0.00  0.00    +0.144 HD
ATOM     23  H   UNL     1       3.858  -1.188   6.134  0.00  0.00    +0.144 HD
BRANCH  19  24
ATOM     24  N   UNL     1       2.182  -5.620   4.745  0.00  0.00    -0.343 N 
ATOM     25  H   UNL     1       2.652  -5.863   5.558  0.00  0.00    +0.144 HD
ATOM     26  H   UNL     1       1.729  -6.302   4.224  0.00  0.00    +0.144 HD
ENDBRANCH  19  24
ENDBRANCH  14  15
ENDBRANCH   1  14
TORSDOF 6
