REMARK  Name = ZINC40783622
REMARK  8 active torsions:
REMARK  status: ('A' for Active; 'I' for Inactive)
REMARK    1  A    between atoms: C_1  and  C_2
REMARK    2  A    between atoms: C_13  and  N_30
REMARK    3  A    between atoms: C_14  and  N_18
REMARK    4  A    between atoms: N_18  and  C_19
REMARK    5  A    between atoms: N_18  and  C_20
REMARK    6  A    between atoms: C_25  and  C_26
REMARK    7  A    between atoms: C_26  and  O_28
REMARK    8  A    between atoms: O_28  and  C_29
REMARK                            x       y       z     vdW  Elec       q    Type
REMARK                         _______ _______ _______ _____ _____    ______ ____
ROOT
ATOM      1  C   UNL     1       1.558   1.704  -0.555  0.00  0.00    +0.044 C 
ATOM      2  C   UNL     1       1.439   0.202  -0.519  0.00  0.00    -0.049 A 
ATOM      3  C   UNL     1       1.642  -0.545  -1.670  0.00  0.00    +0.005 A 
ATOM      4  C   UNL     1       1.539  -1.912  -1.664  0.00  0.00    +0.029 A 
ATOM      5  C   UNL     1       1.220  -2.607  -0.475  0.00  0.00    +0.080 A 
ATOM      6  C   UNL     1       1.020  -1.814   0.678  0.00  0.00    +0.041 A 
ATOM      7  C   UNL     1       1.131  -0.446   0.664  0.00  0.00    +0.020 A 
ATOM      8  S   UNL     1       0.652  -3.032   1.917  0.00  0.00    -0.052 S 
ATOM      9  C   UNL     1       0.782  -4.471   0.864  0.00  0.00    +0.165 A 
ATOM     10  N   UNL     1       1.082  -3.939  -0.299  0.00  0.00    -0.225 NA
ATOM     11  N   UNL     1       0.610  -5.802   1.190  0.00  0.00    -0.277 N 
ATOM     12  C   UNL     1       0.756  -6.782   0.214  0.00  0.00    +0.150 A 
ATOM     13  C   UNL     1       0.580  -8.131   0.530  0.00  0.00    +0.104 A 
ATOM     14  C   UNL     1       0.738  -9.073  -0.487  0.00  0.00    +0.129 A 
ATOM     15  N   UNL     1       1.050  -8.654  -1.712  0.00  0.00    -0.333 N 
ATOM     16  C   UNL     1       1.208  -7.371  -1.968  0.00  0.00    +0.200 A 
ATOM     17  N   UNL     1       1.062  -6.449  -1.038  0.00  0.00    -0.221 NA
ATOM     18  H   UNL     1       0.387  -6.054   2.100  0.00  0.00    +0.156 HD
ATOM     19  H   UNL     1       1.163  -9.301  -2.425  0.00  0.00    +0.168 HD
ENDROOT
BRANCH  13  20
ATOM     20  N   UNL     1       0.252  -8.528   1.836  0.00  0.00    -0.353 N 
ATOM     21  H   UNL     1       0.238  -7.874   2.552  0.00  0.00    +0.143 HD
ATOM     22  H   UNL     1       0.038  -9.456   2.021  0.00  0.00    +0.143 HD
ENDBRANCH  13  20
BRANCH  14  23
ATOM     23  N   UNL     1       0.574 -10.429  -0.226  0.00  0.00    -0.287 N 
ATOM     24  C   UNL     1      -0.769 -11.015  -0.212  0.00  0.00    +0.137 C 
BRANCH  23  25
ATOM     25  C   UNL     1       1.683 -11.229   0.021  0.00  0.00    +0.049 A 
ATOM     26  C   UNL     1       2.248 -11.266   1.290  0.00  0.00    +0.024 A 
ATOM     27  C   UNL     1       3.350 -12.060   1.533  0.00  0.00    +0.002 A 
ATOM     28  C   UNL     1       3.901 -12.826   0.518  0.00  0.00    +0.001 A 
ATOM     29  C   UNL     1       3.356 -12.802  -0.747  0.00  0.00    +0.017 A 
ATOM     30  C   UNL     1       2.236 -12.007  -1.008  0.00  0.00    +0.080 A 
BRANCH  30  31
ATOM     31  C   UNL     1       1.644 -11.982  -2.357  0.00  0.00    +0.341 C 
ATOM     32  O   UNL     1       0.611 -11.373  -2.555  0.00  0.00    -0.245 OA
BRANCH  31  33
ATOM     33  O   UNL     1       2.248 -12.633  -3.370  0.00  0.00    -0.464 OA
ATOM     34  C   UNL     1       1.617 -12.566  -4.651  0.00  0.00    +0.280 C 
ENDBRANCH  31  33
ENDBRANCH  30  31
ENDBRANCH  23  25
ENDBRANCH  14  23
TORSDOF 5
