REMARK  Name = ZINC45766037
REMARK  11 active torsions:
REMARK  status: ('A' for Active; 'I' for Inactive)
REMARK    1  A    between atoms: C_1  and  C_2
REMARK    2  A    between atoms: N_16  and  C_17
REMARK    3  A    between atoms: C_17  and  C_18
REMARK    4  A    between atoms: N_20  and  C_21
REMARK    5  A    between atoms: C_21  and  C_22
REMARK    6  A    between atoms: C_24  and  O_32
REMARK    7  A    between atoms: C_25  and  O_30
REMARK    8  A    between atoms: C_27  and  O_28
REMARK    9  A    between atoms: O_28  and  C_29
REMARK   10  A    between atoms: O_30  and  C_31
REMARK   11  A    between atoms: O_32  and  C_33
REMARK                            x       y       z     vdW  Elec       q    Type
REMARK                         _______ _______ _______ _____ _____    ______ ____
ROOT
ATOM      1  C   UNL     1      -0.126   1.424  -0.048  0.00  0.00    -0.008 C 
ATOM      2  C   UNL     1      -0.046  -0.103   0.002  0.00  0.00    -0.040 C 
ATOM      3  C   UNL     1       0.531  -0.611  -1.293  0.00  0.00    -0.054 A 
ATOM      4  C   UNL     1       0.126  -0.017  -2.478  0.00  0.00    +0.051 A 
ATOM      5  C   UNL     1       0.628  -0.456  -3.691  0.00  0.00    +0.162 A 
ATOM      6  C   UNL     1       1.546  -1.499  -3.719  0.00  0.00    +0.162 A 
ATOM      7  C   UNL     1       1.948  -2.091  -2.533  0.00  0.00    +0.053 A 
ATOM      8  C   UNL     1       1.442  -1.647  -1.322  0.00  0.00    -0.038 A 
ATOM      9  C   UNL     1       1.907  -2.312  -0.054  0.00  0.00    -0.019 C 
ATOM     10  C   UNL     1       3.341  -1.855   0.276  0.00  0.00    +0.010 C 
ATOM     11  C   UNL     1       4.020  -3.125   0.847  0.00  0.00    +0.001 C 
ATOM     12  C   UNL     1       3.427  -4.255  -0.032  0.00  0.00    +0.001 C 
ATOM     13  C   UNL     1       1.958  -3.834  -0.249  0.00  0.00    +0.010 C 
ATOM     14  C   UNL     1       0.975  -1.964   1.104  0.00  0.00    -0.066 C 
ATOM     15  N   UNL     1       0.792  -0.505   1.136  0.00  0.00    +0.390 N 
ATOM     16  O   UNL     1       2.059  -1.945  -4.899  0.00  0.00    -0.485 OA
ATOM     17  C   UNL     1       1.350  -1.577  -6.088  0.00  0.00    +0.270 C 
ATOM     18  C   UNL     1       1.020  -0.081  -6.007  0.00  0.00    +0.270 C 
ATOM     19  O   UNL     1       0.214   0.139  -4.844  0.00  0.00    -0.485 OA
ATOM     20  H   UNL     1       1.690  -0.050   1.070  0.00  0.00    -0.080 HD
ENDROOT
BRANCH  15  21
ATOM     21  C   UNL     1       0.135  -0.120   2.392  0.00  0.00    +0.019 C 
BRANCH  21  22
ATOM     22  C   UNL     1       1.065  -0.389   3.547  0.00  0.00    +0.197 C 
ATOM     23  O   UNL     1       2.203  -0.751   3.338  0.00  0.00    -0.278 OA
ATOM     24  N   UNL     1       0.632  -0.227   4.813  0.00  0.00    -0.313 N 
ATOM     25  H   UNL     1      -0.279   0.063   4.981  0.00  0.00    +0.149 HD
BRANCH  24  26
ATOM     26  C   UNL     1       1.535  -0.488   5.936  0.00  0.00    +0.143 C 
BRANCH  26  27
ATOM     27  C   UNL     1       0.812  -0.234   7.233  0.00  0.00    +0.015 A 
ATOM     28  C   UNL     1       1.001   0.958   7.908  0.00  0.00    +0.058 A 
ATOM     29  C   UNL     1       0.336   1.194   9.100  0.00  0.00    +0.162 A 
ATOM     30  C   UNL     1      -0.523   0.230   9.619  0.00  0.00    +0.165 A 
ATOM     31  C   UNL     1      -0.711  -0.963   8.942  0.00  0.00    +0.095 A 
ATOM     32  C   UNL     1      -0.048  -1.194   7.746  0.00  0.00    +0.128 A 
BRANCH  32  33
ATOM     33  O   UNL     1      -0.237  -2.363   7.079  0.00  0.00    -0.495 OA
ATOM     34  C   UNL     1      -1.136  -3.307   7.664  0.00  0.00    +0.277 C 
ENDBRANCH  32  33
BRANCH  30  35
ATOM     35  O   UNL     1      -1.176   0.460  10.789  0.00  0.00    -0.491 OA
ATOM     36  C   UNL     1      -2.042  -0.574  11.263  0.00  0.00    +0.277 C 
ENDBRANCH  30  35
BRANCH  29  37
ATOM     37  O   UNL     1       0.524   2.368   9.763  0.00  0.00    -0.491 OA
ATOM     38  C   UNL     1       1.420   3.311   9.172  0.00  0.00    +0.277 C 
ENDBRANCH  29  37
ENDBRANCH  26  27
ENDBRANCH  24  26
ENDBRANCH  21  22
ENDBRANCH  15  21
TORSDOF 7
