REMARK  Name = ZINC67584887
REMARK  12 active torsions:
REMARK  status: ('A' for Active; 'I' for Inactive)
REMARK    1  A    between atoms: C_1  and  C_2
REMARK    2  A    between atoms: C_2  and  C_3
REMARK    3  A    between atoms: C_3  and  C_4
REMARK    4  A    between atoms: N_6  and  C_7
REMARK    5  A    between atoms: C_11  and  N_14
REMARK    6  A    between atoms: C_12  and  C_13
REMARK    7  A    between atoms: N_17  and  C_18
REMARK    8  A    between atoms: C_18  and  C_19
REMARK    9  A    between atoms: C_19  and  C_21
REMARK   10  A    between atoms: C_19  and  N_26
REMARK   11  A    between atoms: N_26  and  C_27
REMARK   12  A    between atoms: N_26  and  C_28
REMARK                            x       y       z     vdW  Elec       q    Type
REMARK                         _______ _______ _______ _____ _____    ______ ____
ROOT
ATOM      1  N   UNL     1       3.080  -6.697  -4.069  0.00  0.00    -0.269 N 
ATOM      2  C   UNL     1       3.014  -8.041  -4.133  0.00  0.00    +0.304 C 
ATOM      3  O   UNL     1       2.428  -8.663  -3.267  0.00  0.00    -0.253 OA
ATOM      4  N   UNL     1       3.596  -8.697  -5.156  0.00  0.00    -0.300 N 
ATOM      5  H   UNL     1       3.601  -6.205  -4.723  0.00  0.00    +0.156 HD
ATOM      6  H   UNL     1       4.063  -8.201  -5.847  0.00  0.00    +0.150 HD
ENDROOT
BRANCH   1  11
ATOM      7  C   UNL     1       1.173  -4.084  -2.311  0.00  0.00    +0.038 A 
ATOM      8  C   UNL     1       1.051  -4.655  -1.051  0.00  0.00    +0.024 A 
ATOM      9  C   UNL     1       1.600  -5.897  -0.797  0.00  0.00    +0.004 A 
ATOM     10  C   UNL     1       2.273  -6.575  -1.796  0.00  0.00    +0.024 A 
ATOM     11  C   UNL     1       2.398  -6.010  -3.058  0.00  0.00    +0.039 A 
ATOM     12  C   UNL     1       1.842  -4.765  -3.318  0.00  0.00    -0.008 A 
ATOM     13  C   UNL     1       1.970  -4.152  -4.688  0.00  0.00    +0.047 C 
BRANCH   7  16
ATOM     14  C   UNL     1      -0.417  -2.383  -1.824  0.00  0.00    +0.217 C 
ATOM     15  O   UNL     1      -0.927  -3.111  -0.998  0.00  0.00    -0.275 OA
ATOM     16  N   UNL     1       0.615  -2.827  -2.567  0.00  0.00    -0.285 N 
ATOM     17  H   UNL     1       0.972  -2.274  -3.280  0.00  0.00    +0.155 HD
BRANCH  14  18
ATOM     18  C   UNL     1      -0.940  -0.983  -2.018  0.00  0.00    +0.096 C 
BRANCH  18  20
ATOM     19  C   UNL     1      -2.634   0.687  -1.255  0.00  0.00    +0.004 C 
ATOM     20  C   UNL     1      -2.104  -0.735  -1.058  0.00  0.00    +0.006 C 
ENDBRANCH  18  20
ENDBRANCH  14  18
ENDBRANCH   7  16
ENDBRANCH   1  11
BRANCH   4  21
ATOM     21  C   UNL     1       3.524 -10.159  -5.226  0.00  0.00    +0.095 C 
BRANCH  21  22
ATOM     22  C   UNL     1       4.364 -10.655  -6.404  0.00  0.00    -0.020 C 
BRANCH  22  23
ATOM     23  C   UNL     1       5.817 -10.351  -6.148  0.00  0.00    -0.052 A 
ATOM     24  C   UNL     1       6.417  -9.252  -6.734  0.00  0.00    +0.009 A 
ATOM     25  C   UNL     1       7.726  -9.006  -6.484  0.00  0.00    +0.045 A 
ATOM     26  S   UNL     1       8.152 -10.351  -5.389  0.00  0.00    -0.105 S 
ATOM     27  C   UNL     1       6.555 -11.146  -5.336  0.00  0.00    +0.047 A 
ENDBRANCH  22  23
BRANCH  22  28
ATOM     28  N   UNL     1       4.187 -12.106  -6.554  0.00  0.00    +0.382 N 
ATOM     29  C   UNL     1       2.793 -12.394  -6.918  0.00  0.00    -0.096 C 
ATOM     30  C   UNL     1       5.081 -12.601  -7.609  0.00  0.00    -0.096 C 
ATOM     31  H   UNL     1       4.409 -12.564  -5.683  0.00  0.00    -0.082 HD
ENDBRANCH  22  28
ENDBRANCH  21  22
ENDBRANCH   4  21
TORSDOF 8
