REMARK  Name = ZINC66310584
REMARK  11 active torsions:
REMARK  status: ('A' for Active; 'I' for Inactive)
REMARK    1  A    between atoms: C_1  and  C_2
REMARK    2  A    between atoms: C_5  and  C_7
REMARK    3  A    between atoms: C_7  and  C_9
REMARK    4  A    between atoms: C_7  and  N_10
REMARK    5  A    between atoms: N_10  and  C_11
REMARK    6  A    between atoms: C_11  and  C_12
REMARK    7  A    between atoms: C_14  and  O_24
REMARK    8  A    between atoms: C_15  and  O_19
REMARK    9  A    between atoms: O_19  and  C_20
REMARK   10  A    between atoms: C_20  and  C_21
REMARK   11  A    between atoms: O_24  and  C_25
REMARK                            x       y       z     vdW  Elec       q    Type
REMARK                         _______ _______ _______ _____ _____    ______ ____
ROOT
ATOM      1  C   UNL     1       3.863  -5.632   1.848  0.00  0.00    -0.059 A 
ATOM      2  C   UNL     1       5.135  -5.489   1.325  0.00  0.00    +0.051 A 
ATOM      3  C   UNL     1       6.239  -5.570   2.157  0.00  0.00    +0.163 A 
ATOM      4  C   UNL     1       6.066  -5.795   3.519  0.00  0.00    +0.181 A 
ATOM      5  C   UNL     1       4.788  -5.936   4.038  0.00  0.00    +0.086 A 
ATOM      6  C   UNL     1       3.689  -5.849   3.202  0.00  0.00    +0.025 A 
ATOM      7 CL   UNL     1       4.567  -6.216   5.737  0.00  0.00    -0.080 Cl
ENDROOT
BRANCH   3   8
ATOM      8  O   UNL     1       7.491  -5.432   1.643  0.00  0.00    -0.491 OA
ATOM      9  C   UNL     1       7.593  -5.204   0.236  0.00  0.00    +0.277 C 
ENDBRANCH   3   8
BRANCH   1  10
ATOM     10  C   UNL     1       2.663  -5.544   0.941  0.00  0.00    -0.046 C 
BRANCH  10  11
ATOM     11  N   UNL     1       2.213  -4.147   0.857  0.00  0.00    +0.386 N 
ATOM     12  H   UNL     1       2.957  -3.576   0.487  0.00  0.00    -0.085 HD
ATOM     13  H   UNL     1       1.963  -3.819   1.778  0.00  0.00    -0.085 HD
BRANCH  11  14
ATOM     14  C   UNL     1       1.043  -4.062  -0.027  0.00  0.00    -0.037 C 
ATOM     15  C   UNL     1       1.452  -4.441  -1.452  0.00  0.00    -0.008 C 
BRANCH  14  20
ATOM     16  C   UNL     1      -0.018   1.503   0.010  0.00  0.00    +0.051 C 
ATOM     17  C   UNL     1       0.002  -0.004   0.002  0.00  0.00    -0.013 A 
ATOM     18  C   UNL     1      -1.039  -0.872   0.002  0.00  0.00    +0.011 A 
ATOM     19  C   UNL     1      -0.780  -2.230  -0.007  0.00  0.00    +0.010 A 
ATOM     20  C   UNL     1       0.507  -2.653  -0.016  0.00  0.00    -0.024 A 
ATOM     21  S   UNL     1       1.404  -1.109  -0.018  0.00  0.00    -0.100 S 
ENDBRANCH  14  20
ENDBRANCH  11  14
ENDBRANCH  10  11
ENDBRANCH   1  10
BRANCH   4  22
ATOM     22  O   UNL     1       7.148  -5.875   4.340  0.00  0.00    -0.478 OA
BRANCH  22  23
ATOM     23  C   UNL     1       7.606  -4.658   4.931  0.00  0.00    +0.324 C 
BRANCH  23  24
ATOM     24  C   UNL     1       8.803  -4.941   5.801  0.00  0.00    +0.248 C 
ATOM     25  O   UNL     1       9.222  -6.074   5.905  0.00  0.00    -0.272 OA
ATOM     26  N   UNL     1       9.408  -3.935   6.464  0.00  0.00    -0.327 N 
ATOM     27  H   UNL     1       9.072  -3.029   6.381  0.00  0.00    +0.145 HD
ATOM     28  H   UNL     1      10.178  -4.118   7.024  0.00  0.00    +0.145 HD
ENDBRANCH  23  24
ENDBRANCH  22  23
ENDBRANCH   4  22
TORSDOF 8
