REMARK  Name = ZINC51318473
REMARK  10 active torsions:
REMARK  status: ('A' for Active; 'I' for Inactive)
REMARK    1  A    between atoms: C_1  and  C_2
REMARK    2  A    between atoms: C_2  and  O_3
REMARK    3  A    between atoms: O_3  and  C_4
REMARK    4  A    between atoms: C_4  and  C_6
REMARK    5  A    between atoms: C_7  and  C_21
REMARK    6  A    between atoms: C_12  and  C_14
REMARK    7  A    between atoms: C_17  and  C_20
REMARK    8  A    between atoms: C_21  and  N_22
REMARK    9  A    between atoms: C_25  and  C_28
REMARK   10  A    between atoms: C_25  and  N_31
REMARK                            x       y       z     vdW  Elec       q    Type
REMARK                         _______ _______ _______ _____ _____    ______ ____
ROOT
ATOM      1  C   UNL     1      -0.339  -1.659  -3.935  0.00  0.00    +0.079 C 
ATOM      2  C   UNL     1       0.312  -2.842  -3.918  0.00  0.00    +0.038 C 
ATOM      3  N   UNL     1       0.943  -3.315  -5.033  0.00  0.00    -0.271 N 
ATOM      4  C   UNL     1       0.969  -2.665  -6.204  0.00  0.00    +0.304 C 
ATOM      5  O   UNL     1       1.558  -3.167  -7.141  0.00  0.00    -0.252 OA
ATOM      6  N   UNL     1       0.364  -1.473  -6.376  0.00  0.00    -0.288 N 
ATOM      7  C   UNL     1      -0.350  -0.878  -5.234  0.00  0.00    +0.144 C 
ATOM      8  H   UNL     1       1.398  -4.170  -4.973  0.00  0.00    +0.156 HD
ATOM      9  H   UNL     1       0.396  -1.020  -7.233  0.00  0.00    +0.151 HD
ENDROOT
BRANCH   7  10
ATOM     10  C   UNL     1       0.255   0.476  -4.968  0.00  0.00    -0.022 A 
ATOM     11  C   UNL     1       1.629   0.621  -4.917  0.00  0.00    +0.006 A 
ATOM     12  C   UNL     1       2.184   1.863  -4.673  0.00  0.00    +0.004 A 
ATOM     13  C   UNL     1       1.365   2.960  -4.480  0.00  0.00    -0.050 A 
ATOM     14  C   UNL     1      -0.008   2.815  -4.532  0.00  0.00    +0.004 A 
ATOM     15  C   UNL     1      -0.564   1.574  -4.780  0.00  0.00    +0.006 A 
ATOM     16  C   UNL     1       1.970   4.314  -4.213  0.00  0.00    +0.044 C 
ENDBRANCH   7  10
BRANCH   1  17
ATOM     17  C   UNL     1      -0.993  -1.167  -2.781  0.00  0.00    +0.339 C 
ATOM     18  O   UNL     1      -2.205  -1.231  -2.695  0.00  0.00    -0.245 OA
BRANCH  17  19
ATOM     19  O   UNL     1      -0.273  -0.628  -1.775  0.00  0.00    -0.462 OA
BRANCH  19  21
ATOM     20  C   UNL     1      -0.021   0.420   0.388  0.00  0.00    +0.048 C 
ATOM     21  C   UNL     1      -0.999  -0.152  -0.640  0.00  0.00    +0.229 C 
ENDBRANCH  19  21
ENDBRANCH  17  19
ENDBRANCH   1  17
BRANCH   2  22
ATOM     22  C   UNL     1       0.344  -3.652  -2.648  0.00  0.00    +0.135 C 
BRANCH  22  23
ATOM     23  N   UNL     1      -0.380  -4.914  -2.854  0.00  0.00    -0.297 NA
ATOM     24  C   UNL     1      -1.810  -4.669  -3.084  0.00  0.00    +0.084 C 
ATOM     25  C   UNL     1      -2.504  -5.986  -3.438  0.00  0.00    +0.013 C 
ATOM     26  C   UNL     1      -2.315  -6.982  -2.290  0.00  0.00    +0.015 C 
ATOM     27  C   UNL     1      -0.818  -7.182  -2.040  0.00  0.00    +0.013 C 
ATOM     28  C   UNL     1      -0.172  -5.830  -1.726  0.00  0.00    +0.084 C 
BRANCH  26  29
ATOM     29  N   UNL     1      -2.929  -8.267  -2.649  0.00  0.00    +0.389 N 
ATOM     30  C   UNL     1      -4.365  -8.074  -2.881  0.00  0.00    -0.077 C 
ATOM     31  C   UNL     1      -4.995  -9.393  -3.333  0.00  0.00    -0.019 C 
ATOM     32  C   UNL     1      -4.790 -10.450  -2.245  0.00  0.00    -0.004 C 
ATOM     33  C   UNL     1      -3.292 -10.590  -1.959  0.00  0.00    -0.019 C 
ATOM     34  C   UNL     1      -2.725  -9.227  -1.557  0.00  0.00    -0.077 C 
ATOM     35  H   UNL     1      -2.499  -8.621  -3.490  0.00  0.00    -0.080 HD
ENDBRANCH  26  29
BRANCH  26  36
ATOM     36  C   UNL     1      -2.966  -6.442  -1.043  0.00  0.00    +0.200 C 
ATOM     37  O   UNL     1      -3.740  -5.511  -1.117  0.00  0.00    -0.278 OA
ATOM     38  N   UNL     1      -2.689  -6.994   0.155  0.00  0.00    -0.330 N 
ATOM     39  H   UNL     1      -2.015  -7.688   0.225  0.00  0.00    +0.145 HD
ATOM     40  H   UNL     1      -3.163  -6.696   0.948  0.00  0.00    +0.145 HD
ENDBRANCH  26  36
ENDBRANCH  22  23
ENDBRANCH   2  22
TORSDOF 8
