REMARK  Name = ZINC42052211
REMARK  9 active torsions:
REMARK  status: ('A' for Active; 'I' for Inactive)
REMARK    1  A    between atoms: C_1  and  C_2
REMARK    2  A    between atoms: C_2  and  C_3
REMARK    3  A    between atoms: C_3  and  C_5
REMARK    4  A    between atoms: C_3  and  C_6
REMARK    5  A    between atoms: C_6  and  C_8
REMARK    6  A    between atoms: C_6  and  N_21
REMARK    7  A    between atoms: N_10  and  C_11
REMARK    8  A    between atoms: C_11  and  C_13
REMARK    9  A    between atoms: C_11  and  C_14
REMARK                            x       y       z     vdW  Elec       q    Type
REMARK                         _______ _______ _______ _____ _____    ______ ____
ROOT
ATOM      1  C   UNL     1      -0.430  -2.677   0.886  0.00  0.00    +0.234 C 
ATOM      2  O   UNL     1      -0.558  -3.415  -0.068  0.00  0.00    -0.274 OA
ATOM      3  N   UNL     1      -1.484  -2.420   1.685  0.00  0.00    -0.307 N 
ATOM      4  H   UNL     1      -1.366  -1.884   2.485  0.00  0.00    +0.149 HD
ENDROOT
BRANCH   3   5
ATOM      5  C   UNL     1      -2.807  -2.950   1.347  0.00  0.00    +0.100 C 
ATOM      6  C   UNL     1      -2.936  -4.378   1.882  0.00  0.00    +0.033 C 
BRANCH   5   7
ATOM      7  C   UNL     1      -3.870  -2.082   1.969  0.00  0.00    -0.027 A 
ATOM      8  C   UNL     1      -3.692  -1.578   3.244  0.00  0.00    +0.006 A 
ATOM      9  C   UNL     1      -4.667  -0.782   3.815  0.00  0.00    +0.015 A 
ATOM     10  C   UNL     1      -5.820  -0.489   3.111  0.00  0.00    +0.018 A 
ATOM     11  C   UNL     1      -5.998  -0.993   1.835  0.00  0.00    +0.015 A 
ATOM     12  C   UNL     1      -5.021  -1.785   1.263  0.00  0.00    +0.006 A 
ATOM     13 BR   UNL     1      -7.154   0.600   3.891  0.00  0.00    -0.050 Br
ENDBRANCH   5   7
ENDBRANCH   3   5
BRANCH   1  14
ATOM     14  C   UNL     1       0.908  -2.047   1.177  0.00  0.00    +0.163 C 
BRANCH  14  15
ATOM     15  N   UNL     1       1.972  -2.868   0.593  0.00  0.00    -0.288 N 
ATOM     16  C   UNL     1       3.216  -2.826   1.109  0.00  0.00    +0.298 C 
ATOM     17  O   UNL     1       3.456  -2.106   2.059  0.00  0.00    -0.253 OA
ATOM     18  N   UNL     1       4.194  -3.581   0.571  0.00  0.00    -0.313 N 
ATOM     19  H   UNL     1       1.780  -3.442  -0.166  0.00  0.00    +0.151 HD
ATOM     20  H   UNL     1       4.003  -4.155  -0.187  0.00  0.00    +0.146 HD
ATOM     21  H   UNL     1       5.090  -3.551   0.943  0.00  0.00    +0.146 HD
ENDBRANCH  14  15
BRANCH  14  22
ATOM     22  C   UNL     1       0.955  -0.644   0.568  0.00  0.00    +0.015 C 
ATOM     23  C   UNL     1       0.899  -0.748  -0.958  0.00  0.00    +0.010 C 
BRANCH  22  25
ATOM     24  C   UNL     1       2.243   1.494   0.481  0.00  0.00    +0.004 C 
ATOM     25  C   UNL     1       2.253   0.050   0.985  0.00  0.00    +0.002 C 
ENDBRANCH  22  25
ENDBRANCH  14  22
ENDBRANCH   1  14
TORSDOF 6
