REMARK  Name = ZINC36597034
REMARK  6 active torsions:
REMARK  status: ('A' for Active; 'I' for Inactive)
REMARK    1  A    between atoms: C_1  and  C_2
REMARK    2  A    between atoms: C_2  and  C_4
REMARK    3  A    between atoms: C_2  and  N_8
REMARK    4  A    between atoms: C_4  and  O_6
REMARK    5  A    between atoms: O_6  and  C_7
REMARK    6  A    between atoms: C_20  and  C_22
REMARK                            x       y       z     vdW  Elec       q    Type
REMARK                         _______ _______ _______ _____ _____    ______ ____
ROOT
ATOM      1  N   UNL     1       2.869  -0.219   0.011  0.00  0.00    -0.286 N 
ATOM      2  C   UNL     1       2.118  -0.566   1.075  0.00  0.00    +0.304 C 
ATOM      3  O   UNL     1       0.917  -0.373   1.060  0.00  0.00    -0.253 OA
ATOM      4  N   UNL     1       2.697  -1.127   2.155  0.00  0.00    -0.273 N 
ATOM      5  C   UNL     1       1.883  -1.616   3.277  0.00  0.00    +0.116 C 
ATOM      6  C   UNL     1       2.207  -0.790   4.529  0.00  0.00    +0.074 C 
ATOM      7  C   UNL     1       3.701  -0.642   4.640  0.00  0.00    +0.040 A 
ATOM      8  C   UNL     1       4.574  -0.847   3.630  0.00  0.00    +0.062 A 
ATOM      9  N   UNL     1       5.805  -0.620   4.092  0.00  0.00    -0.348 N 
ATOM     10  C   UNL     1       5.733  -0.283   5.354  0.00  0.00    +0.171 A 
ATOM     11  N   UNL     1       4.434  -0.288   5.732  0.00  0.00    -0.349 N 
ATOM     12  H   UNL     1       4.090  -0.078   6.614  0.00  0.00    +0.166 HD
ATOM     13  C   UNL     1       4.162  -1.272   2.236  0.00  0.00    +0.159 C 
ATOM     14  H   UNL     1       3.835  -0.305   0.051  0.00  0.00    +0.151 HD
ATOM     15  H   UNL     1       6.622  -0.692   3.575  0.00  0.00    +0.167 HD
ENDROOT
BRANCH  13  16
ATOM     16  C   UNL     1       4.549  -2.709   1.998  0.00  0.00    +0.017 A 
ATOM     17  C   UNL     1       4.905  -3.514   3.064  0.00  0.00    +0.011 A 
ATOM     18  C   UNL     1       5.261  -4.832   2.849  0.00  0.00    +0.042 A 
ATOM     19  C   UNL     1       5.262  -5.348   1.564  0.00  0.00    +0.161 A 
ATOM     20  C   UNL     1       4.906  -4.543   0.494  0.00  0.00    +0.194 A 
ATOM     21  C   UNL     1       4.544  -3.223   0.713  0.00  0.00    +0.167 A 
ATOM     22  F   UNL     1       4.190  -2.437  -0.328  0.00  0.00    -0.202 F 
ATOM     23  F   UNL     1       4.907  -5.045  -0.760  0.00  0.00    -0.199 F 
ATOM     24  F   UNL     1       5.610  -6.636   1.354  0.00  0.00    -0.202 F 
ENDBRANCH  13  16
BRANCH   1  26
ATOM     25  C   UNL     1       1.793  -0.887  -2.081  0.00  0.00    +0.040 C 
ATOM     26  C   UNL     1       2.228   0.289  -1.204  0.00  0.00    +0.180 C 
BRANCH  26  27
ATOM     27  C   UNL     1       3.204   1.149  -1.965  0.00  0.00    +0.327 C 
ATOM     28  O   UNL     1       4.320   1.321  -1.536  0.00  0.00    -0.249 OA
BRANCH  27  29
ATOM     29  O   UNL     1       2.833   1.725  -3.119  0.00  0.00    -0.467 OA
ATOM     30  C   UNL     1       3.809   2.527  -3.787  0.00  0.00    +0.280 C 
ENDBRANCH  27  29
ENDBRANCH  26  27
ENDBRANCH   1  26
TORSDOF 4
