REMARK  Name = ZINC39528367
REMARK  10 active torsions:
REMARK  status: ('A' for Active; 'I' for Inactive)
REMARK    1  A    between atoms: C_1  and  C_2
REMARK    2  A    between atoms: C_2  and  C_3
REMARK    3  A    between atoms: C_2  and  S_4
REMARK    4  A    between atoms: S_4  and  C_7
REMARK    5  A    between atoms: C_10  and  N_20
REMARK    6  A    between atoms: C_11  and  C_13
REMARK    7  A    between atoms: C_13  and  C_14
REMARK    8  A    between atoms: C_24  and  S_27
REMARK    9  A    between atoms: S_27  and  O_30
REMARK   10  A    between atoms: O_30  and  C_31
REMARK                            x       y       z     vdW  Elec       q    Type
REMARK                         _______ _______ _______ _____ _____    ______ ____
ROOT
ATOM      1  C   UNL     1      -2.834  -0.312  -1.460  0.00  0.00    +0.089 A 
ATOM      2  C   UNL     1      -3.583   0.849  -1.398  0.00  0.00    +0.029 A 
ATOM      3  C   UNL     1      -4.050   1.434  -2.558  0.00  0.00    +0.025 A 
ATOM      4  C   UNL     1      -3.768   0.854  -3.789  0.00  0.00    +0.033 A 
ATOM      5  C   UNL     1      -3.017  -0.312  -3.847  0.00  0.00    -0.020 A 
ATOM      6  C   UNL     1      -2.547  -0.889  -2.683  0.00  0.00    +0.032 A 
ENDROOT
BRANCH   4   7
ATOM      7  N   UNL     1      -4.240   1.443  -4.964  0.00  0.00    -0.331 N 
ATOM      8  C   UNL     1      -5.541   1.058  -5.533  0.00  0.00    +0.086 C 
ATOM      9  C   UNL     1      -6.344   2.333  -5.813  0.00  0.00    -0.061 C 
ATOM     10  N   UNL     1      -5.553   3.233  -6.662  0.00  0.00    +0.398 N 
ATOM     11  C   UNL     1      -4.352   3.673  -5.941  0.00  0.00    +0.133 C 
ATOM     12  C   UNL     1      -3.453   2.469  -5.665  0.00  0.00    +0.115 C 
ATOM     13  H   UNL     1      -5.280   2.746  -7.503  0.00  0.00    -0.083 HD
ATOM     14  H   UNL     1      -6.111   4.037  -6.908  0.00  0.00    -0.083 HD
BRANCH  11  15
ATOM     15  S   UNL     1      -3.453   4.885  -6.948  0.00  0.00    +0.109 S 
ATOM     16  O   UNL     1      -2.389   5.453  -6.197  0.00  0.00    -0.138 OA
ATOM     17  O   UNL     1      -3.223   4.364  -8.250  0.00  0.00    -0.138 OA
BRANCH  15  18
ATOM     18  O   UNL     1      -4.436   6.028  -7.155  0.00  0.00    -0.347 OA
BRANCH  18  19
ATOM     19  C   UNL     1      -4.608   6.814  -6.060  0.00  0.00    +0.156 A 
ATOM     20  C   UNL     1      -5.592   6.506  -5.132  0.00  0.00    +0.048 A 
ATOM     21  C   UNL     1      -5.765   7.306  -4.019  0.00  0.00    +0.004 A 
ATOM     22  C   UNL     1      -4.959   8.414  -3.831  0.00  0.00    +0.000 A 
ATOM     23  C   UNL     1      -3.978   8.723  -4.755  0.00  0.00    +0.004 A 
ATOM     24  C   UNL     1      -3.797   7.923  -5.866  0.00  0.00    +0.048 A 
ENDBRANCH  18  19
ENDBRANCH  15  18
ENDBRANCH  11  15
ENDBRANCH   4   7
BRANCH   1  25
ATOM     25  S   UNL     1      -2.240  -1.055   0.023  0.00  0.00    -0.001 S 
ATOM     26  O   UNL     1      -2.085  -2.431  -0.297  0.00  0.00    -0.169 OA
ATOM     27  O   UNL     1      -3.157  -0.644   1.028  0.00  0.00    -0.169 OA
BRANCH  25  29
ATOM     28  C   UNL     1      -0.785   1.220   0.460  0.00  0.00    +0.032 C 
ATOM     29  C   UNL     1      -0.618  -0.294   0.308  0.00  0.00    +0.130 C 
ATOM     30  C   UNL     1      -0.001  -0.870   1.584  0.00  0.00    +0.032 C 
ENDBRANCH  25  29
ENDBRANCH   1  25
BRANCH   5  31
ATOM     31  C   UNL     1      -2.708  -0.945  -5.180  0.00  0.00    +0.072 C 
BRANCH  31  32
ATOM     32  C   UNL     1      -2.000  -2.257  -4.961  0.00  0.00    -0.043 A 
ATOM     33  C   UNL     1      -0.619  -2.303  -4.946  0.00  0.00    +0.004 A 
ATOM     34  C   UNL     1       0.031  -3.506  -4.745  0.00  0.00    +0.000 A 
ATOM     35  C   UNL     1      -0.701  -4.664  -4.560  0.00  0.00    +0.000 A 
ATOM     36  C   UNL     1      -2.083  -4.618  -4.574  0.00  0.00    +0.000 A 
ATOM     37  C   UNL     1      -2.732  -3.414  -4.771  0.00  0.00    +0.004 A 
ENDBRANCH  31  32
ENDBRANCH   5  31
TORSDOF 8
