REMARK  Name = ZINC08554337
REMARK  4 active torsions:
REMARK  status: ('A' for Active; 'I' for Inactive)
REMARK    1  A    between atoms: C_4  and  N_57
REMARK    2  A    between atoms: C_15  and  N_19
REMARK    3  A    between atoms: N_20  and  C_21
REMARK    4  A    between atoms: C_21  and  C_22
REMARK                            x       y       z     vdW  Elec       q    Type
REMARK                         _______ _______ _______ _____ _____    ______ ____
ROOT
ATOM      1  C   UNL     1      -4.301  -0.424   0.066  0.00  0.00    -0.073 C 
ATOM      2  C   UNL     1      -5.716  -0.882   0.424  0.00  0.00    +0.018 C 
ATOM      3  C   UNL     1      -6.723  -0.175  -0.441  0.00  0.00    -0.030 A 
ATOM      4  C   UNL     1      -6.417   0.947  -1.139  0.00  0.00    -0.020 A 
ATOM      5  C   UNL     1      -7.400   1.576  -1.927  0.00  0.00    +0.123 A 
ATOM      6  N   UNL     1      -8.628   1.121  -2.030  0.00  0.00    -0.211 NA
ATOM      7  C   UNL     1      -9.013   0.012  -1.375  0.00  0.00    +0.185 A 
ATOM      8  C   UNL     1      -8.033  -0.689  -0.533  0.00  0.00    +0.063 A 
ATOM      9  C   UNL     1      -8.696  -1.784   0.014  0.00  0.00    +0.121 A 
ATOM     10  N   UNL     1      -9.960  -1.763  -0.443  0.00  0.00    -0.262 N 
ATOM     11  H   UNL     1     -10.665  -2.433  -0.212  0.00  0.00    +0.190 HD
ATOM     12  N   UNL     1     -10.142  -0.664  -1.289  0.00  0.00    -0.152 NA
ATOM     13  N   UNL     1      -7.057   2.724  -2.624  0.00  0.00    -0.326 N 
ATOM     14  C   UNL     1      -5.036   1.550  -1.104  0.00  0.00    -0.039 C 
ATOM     15  H   UNL     1      -6.156   3.078  -2.563  0.00  0.00    +0.148 HD
ATOM     16  N   UNL     1      -4.296   1.053   0.067  0.00  0.00    +0.385 N 
ATOM     17  H   UNL     1      -4.755   1.389   0.922  0.00  0.00    -0.081 HD
ENDROOT
BRANCH  16  21
ATOM     18  C   UNL     1      -0.804   3.256   1.173  0.00  0.00    -0.000 C 
ATOM     19  C   UNL     1      -1.487   3.606  -0.151  0.00  0.00    -0.002 C 
ATOM     20  C   UNL     1      -2.923   3.076  -0.140  0.00  0.00    -0.015 C 
ATOM     21  C   UNL     1      -2.904   1.556   0.038  0.00  0.00    -0.068 C 
ATOM     22  C   UNL     1      -2.221   1.207   1.362  0.00  0.00    -0.015 C 
ATOM     23  C   UNL     1      -0.786   1.736   1.351  0.00  0.00    -0.002 C 
ENDBRANCH  16  21
BRANCH   9  24
ATOM     24  N   UNL     1      -8.153  -2.724   0.873  0.00  0.00    -0.343 N 
ATOM     25  H   UNL     1      -7.225  -2.652   1.147  0.00  0.00    +0.144 HD
ATOM     26  H   UNL     1      -8.700  -3.454   1.202  0.00  0.00    +0.144 HD
ENDBRANCH   9  24
BRANCH  13  27
ATOM     27  C   UNL     1      -8.056   3.404  -3.453  0.00  0.00    +0.134 C 
BRANCH  27  28
ATOM     28  C   UNL     1      -7.423   4.634  -4.108  0.00  0.00    +0.135 C 
ATOM     29  C   UNL     1      -8.489   5.436  -4.887  0.00  0.00    +0.035 C 
ATOM     30  C   UNL     1      -7.739   5.938  -6.141  0.00  0.00    +0.031 C 
ATOM     31  C   UNL     1      -6.309   5.380  -5.971  0.00  0.00    +0.160 C 
ATOM     32  O   UNL     1      -6.461   4.233  -5.107  0.00  0.00    -0.375 OA
ENDBRANCH  27  28
ENDBRANCH  13  27
TORSDOF 4
