REMARK  Name = ZINC35921958
REMARK  12 active torsions:
REMARK  status: ('A' for Active; 'I' for Inactive)
REMARK    1  A    between atoms: C_1  and  C_2
REMARK    2  A    between atoms: C_5  and  S_9
REMARK    3  A    between atoms: S_9  and  N_12
REMARK    4  A    between atoms: N_12  and  C_13
REMARK    5  A    between atoms: N_12  and  C_34
REMARK    6  A    between atoms: C_13  and  C_14
REMARK    7  A    between atoms: N_17  and  C_19
REMARK    8  A    between atoms: C_24  and  O_25
REMARK    9  A    between atoms: O_25  and  C_26
REMARK   10  A    between atoms: N_29  and  C_31
REMARK   11  A    between atoms: C_31  and  C_32
REMARK   12  A    between atoms: C_34  and  C_35
REMARK                            x       y       z     vdW  Elec       q    Type
REMARK                         _______ _______ _______ _____ _____    ______ ____
ROOT
ATOM      1  C   UNL     1       2.117  -6.601   1.399  0.00  0.00    +0.081 A 
ATOM      2  C   UNL     1       1.109  -7.155   2.182  0.00  0.00    -0.018 A 
ATOM      3  C   UNL     1       1.367  -8.483   2.319  0.00  0.00    +0.045 A 
ATOM      4  N   UNL     1       2.494  -8.758   1.643  0.00  0.00    -0.233 N 
ATOM      5  N   UNL     1       2.949  -7.561   1.068  0.00  0.00    -0.169 NA
ATOM      6  C   UNL     1       0.484  -9.411   3.117  0.00  0.00    +0.037 C 
ATOM      7  C   UNL     1      -0.430  -8.544   3.994  0.00  0.00    -0.072 C 
ATOM      8  N   UNL     1      -1.068  -7.508   3.171  0.00  0.00    +0.385 N 
ATOM      9  C   UNL     1      -0.086  -6.475   2.801  0.00  0.00    -0.039 C 
ATOM     10  H   UNL     1      -1.441  -7.928   2.334  0.00  0.00    -0.081 HD
ENDROOT
BRANCH   4  11
ATOM     11  C   UNL     1       3.104 -10.015   1.528  0.00  0.00    +0.107 A 
ATOM     12  C   UNL     1       2.346 -11.128   1.192  0.00  0.00    +0.031 A 
ATOM     13  C   UNL     1       2.949 -12.366   1.080  0.00  0.00    +0.002 A 
ATOM     14  C   UNL     1       4.308 -12.500   1.301  0.00  0.00    +0.004 A 
ATOM     15  C   UNL     1       5.069 -11.396   1.636  0.00  0.00    +0.048 A 
ATOM     16  C   UNL     1       4.473 -10.150   1.746  0.00  0.00    +0.145 A 
BRANCH  16  17
ATOM     17  O   UNL     1       5.222  -9.062   2.069  0.00  0.00    -0.493 OA
ATOM     18  C   UNL     1       6.619  -9.275   2.277  0.00  0.00    +0.277 C 
ENDBRANCH  16  17
ENDBRANCH   4  11
BRANCH   1  19
ATOM     19  C   UNL     1       2.230  -5.154   0.995  0.00  0.00    +0.166 C 
BRANCH  19  20
ATOM     20  N   UNL     1       3.124  -4.457   1.923  0.00  0.00    -0.170 NA
BRANCH  20  21
ATOM     21  S   UNL     1       4.720  -4.248   1.535  0.00  0.00    +0.061 S 
ATOM     22  O   UNL     1       5.083  -5.343   0.706  0.00  0.00    -0.153 OA
ATOM     23  O   UNL     1       5.398  -3.954   2.749  0.00  0.00    -0.153 OA
BRANCH  21  28
ATOM     24  C   UNL     1       5.095   0.711  -1.884  0.00  0.00    +0.047 C 
ATOM     25  C   UNL     1       5.001  -0.527  -1.031  0.00  0.00    -0.015 A 
ATOM     26  C   UNL     1       5.108  -0.430   0.344  0.00  0.00    +0.008 A 
ATOM     27  C   UNL     1       5.022  -1.566   1.127  0.00  0.00    +0.029 A 
ATOM     28  C   UNL     1       4.828  -2.801   0.536  0.00  0.00    +0.108 A 
ATOM     29  C   UNL     1       4.720  -2.901  -0.838  0.00  0.00    +0.067 A 
ATOM     30  C   UNL     1       4.801  -1.762  -1.623  0.00  0.00    +0.128 A 
ATOM     31  F   UNL     1       4.691  -1.858  -2.966  0.00  0.00    -0.205 F 
ENDBRANCH  21  28
ENDBRANCH  20  21
BRANCH  20  32
ATOM     32  C   UNL     1       2.605  -3.944   3.194  0.00  0.00    +0.113 C 
BRANCH  32  33
ATOM     33  C   UNL     1       1.993  -2.559   2.974  0.00  0.00    +0.005 C 
ATOM     34  C   UNL     1       2.647  -1.376   3.690  0.00  0.00    +0.005 C 
ATOM     35  C   UNL     1       1.289  -1.901   4.162  0.00  0.00    +0.005 C 
ENDBRANCH  32  33
ENDBRANCH  20  32
ENDBRANCH  19  20
ENDBRANCH   1  19
BRANCH   8  36
ATOM     36  C   UNL     1      -2.162  -6.888   3.930  0.00  0.00    -0.051 C 
BRANCH  36  37
ATOM     37  C   UNL     1      -3.237  -7.912   4.188  0.00  0.00    -0.053 C 
ATOM     38  C   UNL     1      -3.638  -8.149   5.413  0.00  0.00    +0.002 C 
ENDBRANCH  36  37
ENDBRANCH   8  36
TORSDOF 10
