REMARK  Name = ZINC41004720
REMARK  6 active torsions:
REMARK  status: ('A' for Active; 'I' for Inactive)
REMARK    1  A    between atoms: C_1  and  C_2
REMARK    2  A    between atoms: C_2  and  S_3
REMARK    3  A    between atoms: S_3  and  C_4
REMARK    4  A    between atoms: C_9  and  C_18
REMARK    5  A    between atoms: C_11  and  C_15
REMARK    6  A    between atoms: C_12  and  C_14
REMARK                            x       y       z     vdW  Elec       q    Type
REMARK                         _______ _______ _______ _____ _____    ______ ____
ROOT
ATOM      1  C   UNL     1       0.440  -2.390  -1.641  0.00  0.00    +0.210 A 
ATOM      2  N   UNL     1      -0.094  -3.047  -0.600  0.00  0.00    -0.187 NA
ATOM      3  C   UNL     1       0.196  -4.316  -0.691  0.00  0.00    +0.220 A 
ATOM      4  N   UNL     1       0.939  -4.500  -1.810  0.00  0.00    -0.217 N 
ATOM      5  N   UNL     1       1.076  -3.248  -2.409  0.00  0.00    -0.141 NA
ATOM      6  C   UNL     1       1.456  -5.799  -2.232  0.00  0.00    +0.213 C 
ATOM      7  C   UNL     1       0.798  -6.887  -1.426  0.00  0.00    +0.063 C 
ATOM      8  C   UNL     1       0.069  -6.644  -0.327  0.00  0.00    +0.018 C 
ATOM      9  N   UNL     1      -0.143  -5.372   0.144  0.00  0.00    -0.287 N 
ATOM     10  C   UNL     1      -0.537  -7.807   0.415  0.00  0.00    +0.061 C 
ATOM     11  H   UNL     1      -0.515  -5.217   1.026  0.00  0.00    +0.155 HD
ENDROOT
BRANCH   6  12
ATOM     12  C   UNL     1       2.947  -5.842  -2.012  0.00  0.00    +0.136 A 
ATOM     13  C   UNL     1       3.877  -6.030  -2.965  0.00  0.00    +0.048 A 
ATOM     14  C   UNL     1       5.136  -5.998  -2.320  0.00  0.00    +0.057 A 
ATOM     15  C   UNL     1       4.898  -5.793  -1.011  0.00  0.00    +0.170 A 
ATOM     16  O   UNL     1       3.571  -5.694  -0.831  0.00  0.00    -0.451 OA
ATOM     17 BR   UNL     1       6.210  -5.660   0.344  0.00  0.00    -0.008 Br
ENDBRANCH   6  12
BRANCH   7  18
ATOM     18  C   UNL     1       0.956  -8.228  -1.849  0.00  0.00    +0.241 C 
ATOM     19  O   UNL     1       0.344  -8.637  -2.819  0.00  0.00    -0.271 OA
ATOM     20  N   UNL     1       1.783  -9.053  -1.177  0.00  0.00    -0.325 N 
ATOM     21  H   UNL     1       2.270  -8.728  -0.404  0.00  0.00    +0.145 HD
ATOM     22  H   UNL     1       1.891  -9.973  -1.467  0.00  0.00    +0.145 HD
ENDBRANCH   7  18
BRANCH   1  23
ATOM     23  S   UNL     1       0.305  -0.658  -1.935  0.00  0.00    -0.085 S 
BRANCH  23  25
ATOM     24  C   UNL     1      -0.873   1.461  -0.670  0.00  0.00    +0.016 C 
ATOM     25  C   UNL     1      -0.678  -0.050  -0.537  0.00  0.00    +0.074 C 
ENDBRANCH  23  25
ENDBRANCH   1  23
TORSDOF 4
