REMARK  Name = ZINC20791269
REMARK  3 active torsions:
REMARK  status: ('A' for Active; 'I' for Inactive)
REMARK    1  A    between atoms: C_4  and  C_7
REMARK    2  A    between atoms: C_7  and  N_8
REMARK    3  A    between atoms: C_13  and  N_22
REMARK                            x       y       z     vdW  Elec       q    Type
REMARK                         _______ _______ _______ _____ _____    ______ ____
ROOT
ATOM      1  N   UNL     1       4.117  -0.983   1.357  0.00  0.00    -0.294 NA
ATOM      2  C   UNL     1       4.446   0.284   2.029  0.00  0.00    +0.090 C 
ATOM      3  C   UNL     1       4.570   0.018   3.530  0.00  0.00    +0.052 C 
ATOM      4  C   UNL     1       5.476  -1.160   3.770  0.00  0.00    -0.025 A 
ATOM      5  C   UNL     1       5.795  -2.040   2.782  0.00  0.00    +0.009 A 
ATOM      6  C   UNL     1       6.638  -3.121   3.073  0.00  0.00    +0.105 A 
ATOM      7  N   UNL     1       7.134  -3.305   4.282  0.00  0.00    -0.328 N 
ATOM      8  C   UNL     1       6.855  -2.471   5.278  0.00  0.00    +0.137 A 
ATOM      9  C   UNL     1       6.014  -1.367   5.049  0.00  0.00    +0.062 A 
ATOM     10  C   UNL     1       5.907  -0.656   6.323  0.00  0.00    +0.147 A 
ATOM     11  N   UNL     1       6.630  -1.306   7.197  0.00  0.00    -0.157 NA
ATOM     12  N   UNL     1       7.223  -2.419   6.594  0.00  0.00    -0.260 N 
ATOM     13  H   UNL     1       7.804  -3.055   7.040  0.00  0.00    +0.191 HD
ATOM     14  N   UNL     1       5.169   0.506   6.562  0.00  0.00    -0.341 N 
ATOM     15  C   UNL     1       5.272  -1.886   1.379  0.00  0.00    +0.123 C 
ATOM     16  H   UNL     1       4.663   0.915   5.843  0.00  0.00    +0.144 HD
ATOM     17  H   UNL     1       5.162   0.903   7.447  0.00  0.00    +0.144 HD
ATOM     18  H   UNL     1       7.714  -4.065   4.447  0.00  0.00    +0.169 HD
ENDROOT
BRANCH   6  19
ATOM     19  N   UNL     1       6.959  -4.020   2.065  0.00  0.00    -0.316 N 
ATOM     20  C   UNL     1       8.086  -3.759   1.160  0.00  0.00    +0.106 C 
ATOM     21  C   UNL     1       9.021  -4.973   1.174  0.00  0.00    +0.019 C 
ATOM     22  C   UNL     1       8.221  -6.232   0.835  0.00  0.00    +0.003 C 
ATOM     23  C   UNL     1       7.133  -6.448   1.889  0.00  0.00    +0.019 C 
ATOM     24  C   UNL     1       6.181  -5.254   1.887  0.00  0.00    +0.106 C 
ENDBRANCH   6  19
BRANCH   1  25
ATOM     25  C   UNL     1       3.660  -0.746  -0.019  0.00  0.00    +0.120 C 
BRANCH  25  29
ATOM     26  C   UNL     1      -0.088   1.302   0.055  0.00  0.00    +0.000 A 
ATOM     27  C   UNL     1       1.093   2.021   0.034  0.00  0.00    +0.000 A 
ATOM     28  C   UNL     1       2.305   1.359   0.011  0.00  0.00    +0.005 A 
ATOM     29  C   UNL     1       2.338  -0.024   0.008  0.00  0.00    -0.033 A 
ATOM     30  C   UNL     1       1.157  -0.743   0.029  0.00  0.00    +0.005 A 
ATOM     31  C   UNL     1      -0.055  -0.080   0.051  0.00  0.00    +0.000 A 
ENDBRANCH  25  29
ENDBRANCH   1  25
TORSDOF 3
