REMARK  Name = ZINC64097907
REMARK  8 active torsions:
REMARK  status: ('A' for Active; 'I' for Inactive)
REMARK    1  A    between atoms: C_1  and  O_2
REMARK    2  A    between atoms: O_2  and  C_3
REMARK    3  A    between atoms: C_10  and  C_18
REMARK    4  A    between atoms: C_20  and  O_36
REMARK    5  A    between atoms: C_22  and  O_35
REMARK    6  A    between atoms: N_24  and  C_27
REMARK    7  A    between atoms: C_32  and  O_33
REMARK    8  A    between atoms: O_33  and  C_34
REMARK                            x       y       z     vdW  Elec       q    Type
REMARK                         _______ _______ _______ _____ _____    ______ ____
ROOT
ATOM      1  C   UNL     1      -4.637  -4.200  -2.354  0.00  0.00    +0.179 C 
ATOM      2  C   UNL     1      -5.438  -2.932  -2.405  0.00  0.00    +0.200 C 
ATOM      3  N   UNL     1      -6.537  -2.831  -3.046  0.00  0.00    -0.204 NA
ATOM      4  C   UNL     1      -7.148  -3.916  -3.796  0.00  0.00    +0.339 C 
ATOM      5  N   UNL     1      -6.188  -4.955  -4.137  0.00  0.00    -0.222 N 
ATOM      6  C   UNL     1      -5.034  -5.110  -3.482  0.00  0.00    +0.237 C 
ATOM      7  O   UNL     1      -4.289  -6.010  -3.808  0.00  0.00    -0.274 OA
ENDROOT
BRANCH   1  14
ATOM      8  C   UNL     1      -0.486  -1.321  -0.216  0.00  0.00    +0.121 A 
ATOM      9  C   UNL     1      -1.515  -0.371  -0.085  0.00  0.00    +0.047 A 
ATOM     10  C   UNL     1      -2.815  -0.721   0.022  0.00  0.00    +0.029 A 
ATOM     11  C   UNL     1      -3.195  -2.136   0.005  0.00  0.00    +0.043 A 
ATOM     12  N   UNL     1      -4.364  -2.730   0.068  0.00  0.00    -0.376 N 
ATOM     13  C   UNL     1      -4.147  -4.173   0.100  0.00  0.00    +0.124 C 
ATOM     14  C   UNL     1      -4.890  -4.905  -1.021  0.00  0.00    +0.101 C 
ATOM     15  N   UNL     1      -4.386  -6.286  -1.086  0.00  0.00    -0.310 NA
ATOM     16  C   UNL     1      -2.988  -6.371  -1.519  0.00  0.00    +0.085 C 
ATOM     17  C   UNL     1      -2.069  -5.717  -0.471  0.00  0.00    +0.048 C 
ATOM     18  C   UNL     1      -2.659  -4.361  -0.152  0.00  0.00    -0.036 C 
ATOM     19  C   UNL     1      -2.111  -3.141  -0.143  0.00  0.00    +0.003 A 
ATOM     20  C   UNL     1      -0.731  -2.652  -0.253  0.00  0.00    +0.055 A 
ATOM     21  H   UNL     1      -4.521  -6.762  -0.207  0.00  0.00    +0.122 HD
ATOM     22  H   UNL     1      -5.226  -2.286   0.091  0.00  0.00    +0.160 HD
BRANCH   8  24
ATOM     23  C   UNL     1       1.011   0.525  -0.271  0.00  0.00    +0.277 C 
ATOM     24  O   UNL     1       0.798  -0.887  -0.314  0.00  0.00    -0.495 OA
ENDBRANCH   8  24
ENDBRANCH   1  14
BRANCH   5  25
ATOM     25  C   UNL     1      -6.487  -5.828  -5.191  0.00  0.00    +0.082 A 
ATOM     26  C   UNL     1      -6.095  -5.516  -6.485  0.00  0.00    +0.027 A 
ATOM     27  C   UNL     1      -6.391  -6.379  -7.523  0.00  0.00    +0.002 A 
ATOM     28  C   UNL     1      -7.078  -7.553  -7.277  0.00  0.00    +0.004 A 
ATOM     29  C   UNL     1      -7.473  -7.870  -5.990  0.00  0.00    +0.047 A 
ATOM     30  C   UNL     1      -7.175  -7.014  -4.943  0.00  0.00    +0.142 A 
BRANCH  30  31
ATOM     31  O   UNL     1      -7.557  -7.327  -3.676  0.00  0.00    -0.493 OA
ATOM     32  C   UNL     1      -8.259  -8.559  -3.497  0.00  0.00    +0.277 C 
ENDBRANCH  30  31
ENDBRANCH   5  25
BRANCH   4  33
ATOM     33  O   UNL     1      -8.194  -4.492  -3.011  0.00  0.00    -0.356 OA
ATOM     34  H   UNL     1      -8.896  -3.870  -2.775  0.00  0.00    +0.214 HD
ENDBRANCH   4  33
BRANCH   2  35
ATOM     35  O   UNL     1      -4.976  -1.850  -1.743  0.00  0.00    -0.495 OA
ATOM     36  H   UNL     1      -5.543  -1.071  -1.820  0.00  0.00    +0.293 HD
ENDBRANCH   2  35
TORSDOF 6
