REMARK  Name = ZINC35093662
REMARK  14 active torsions:
REMARK  status: ('A' for Active; 'I' for Inactive)
REMARK    1  A    between atoms: C_1  and  C_2
REMARK    2  A    between atoms: C_2  and  O_3
REMARK    3  A    between atoms: O_3  and  C_4
REMARK    4  A    between atoms: C_9  and  N_10
REMARK    5  A    between atoms: C_20  and  C_21
REMARK    6  A    between atoms: C_21  and  C_23
REMARK    7  A    between atoms: C_21  and  N_24
REMARK    8  A    between atoms: N_24  and  C_25
REMARK    9  A    between atoms: C_25  and  C_26
REMARK   10  A    between atoms: C_26  and  N_27
REMARK   11  A    between atoms: N_27  and  C_28
REMARK   12  A    between atoms: N_27  and  C_29
REMARK   13  A    between atoms: C_30  and  C_32
REMARK   14  A    between atoms: C_35  and  N_38
REMARK                            x       y       z     vdW  Elec       q    Type
REMARK                         _______ _______ _______ _____ _____    ______ ____
ROOT
ATOM      1  N   UNL     1      -4.479   0.641   0.713  0.00  0.00    -0.259 N 
ATOM      2  C   UNL     1      -5.248   1.325  -0.167  0.00  0.00    +0.266 A 
ATOM      3  O   UNL     1      -4.854   2.354  -0.684  0.00  0.00    -0.267 OA
ATOM      4  C   UNL     1      -6.576   0.775  -0.473  0.00  0.00    +0.065 A 
ATOM      5  C   UNL     1      -7.445   1.401  -1.365  0.00  0.00    +0.015 A 
ATOM      6  C   UNL     1      -8.679   0.842  -1.616  0.00  0.00    +0.001 A 
ATOM      7  C   UNL     1      -9.061  -0.336  -0.989  0.00  0.00    +0.002 A 
ATOM      8  C   UNL     1      -8.219  -0.970  -0.104  0.00  0.00    +0.028 A 
ATOM      9  C   UNL     1      -6.962  -0.424   0.167  0.00  0.00    +0.078 A 
ATOM     10  N   UNL     1      -6.100  -1.016   1.031  0.00  0.00    -0.231 NA
ATOM     11  C   UNL     1      -4.930  -0.510   1.278  0.00  0.00    +0.138 A 
ENDROOT
BRANCH   1  17
ATOM     12  C   UNL     1      -3.054   2.093   2.027  0.00  0.00    +0.144 A 
ATOM     13  C   UNL     1      -1.790   2.560   2.349  0.00  0.00    +0.048 A 
ATOM     14  C   UNL     1      -0.681   2.068   1.687  0.00  0.00    +0.004 A 
ATOM     15  C   UNL     1      -0.829   1.108   0.702  0.00  0.00    +0.002 A 
ATOM     16  C   UNL     1      -2.086   0.637   0.375  0.00  0.00    +0.030 A 
ATOM     17  C   UNL     1      -3.203   1.122   1.039  0.00  0.00    +0.093 A 
BRANCH  12  18
ATOM     18  O   UNL     1      -4.145   2.576   2.678  0.00  0.00    -0.490 OA
BRANCH  18  20
ATOM     19  C   UNL     1      -5.253   3.989   4.296  0.00  0.00    +0.048 C 
ATOM     20  C   UNL     1      -3.917   3.570   3.679  0.00  0.00    +0.226 C 
ENDBRANCH  18  20
ENDBRANCH  12  18
ENDBRANCH   1  17
BRANCH  11  21
ATOM     21  C   UNL     1      -4.029  -1.232   2.247  0.00  0.00    +0.140 C 
ATOM     22  C   UNL     1      -3.828  -2.675   1.777  0.00  0.00    +0.036 C 
BRANCH  21  23
ATOM     23  N   UNL     1      -4.642  -1.233   3.577  0.00  0.00    -0.290 N 
ATOM     24  C   UNL     1      -3.938  -0.805   4.644  0.00  0.00    +0.247 C 
ATOM     25  O   UNL     1      -4.436  -0.832   5.752  0.00  0.00    -0.270 OA
BRANCH  24  26
ATOM     26  C   UNL     1      -2.559  -0.303   4.466  0.00  0.00    +0.037 A 
ATOM     27  C   UNL     1      -2.110   0.791   5.207  0.00  0.00    +0.015 A 
ATOM     28  C   UNL     1      -0.822   1.254   5.036  0.00  0.00    +0.033 A 
ATOM     29  C   UNL     1       0.025   0.637   4.133  0.00  0.00    +0.126 A 
ATOM     30  C   UNL     1      -0.414  -0.449   3.395  0.00  0.00    +0.033 A 
ATOM     31  C   UNL     1      -1.698  -0.925   3.561  0.00  0.00    +0.015 A 
BRANCH  29  32
ATOM     32  N   UNL     1       1.406   1.139   3.955  0.00  0.00    +0.056 N 
ATOM     33  O   UNL     1       1.792   2.088   4.598  0.00  0.00    -0.126 OA
ATOM     34  O   UNL     1       2.148   0.601   3.167  0.00  0.00    -0.126 OA
ENDBRANCH  29  32
ENDBRANCH  24  26
BRANCH  23  35
ATOM     35  C   UNL     1      -6.021  -1.698   3.748  0.00  0.00    +0.090 C 
BRANCH  35  36
ATOM     36  C   UNL     1      -6.014  -3.170   4.166  0.00  0.00    -0.060 C 
BRANCH  36  37
ATOM     37  N   UNL     1      -7.397  -3.636   4.338  0.00  0.00    +0.377 N 
ATOM     38  C   UNL     1      -8.089  -3.602   3.042  0.00  0.00    -0.097 C 
ATOM     39  C   UNL     1      -7.389  -5.011   4.853  0.00  0.00    -0.097 C 
ATOM     40  H   UNL     1      -7.876  -3.034   4.991  0.00  0.00    -0.083 HD
ENDBRANCH  36  37
ENDBRANCH  35  36
ENDBRANCH  23  35
ENDBRANCH  21  23
ENDBRANCH  11  21
TORSDOF 10
