REMARK  Name = ZINC51580459
REMARK  4 active torsions:
REMARK  status: ('A' for Active; 'I' for Inactive)
REMARK    1  A    between atoms: C_1  and  C_2
REMARK    2  A    between atoms: C_5  and  C_17
REMARK    3  A    between atoms: C_6  and  O_8
REMARK    4  A    between atoms: O_8  and  C_9
REMARK                            x       y       z     vdW  Elec       q    Type
REMARK                         _______ _______ _______ _____ _____    ______ ____
ROOT
ATOM      1  C   UNL     1      -0.509   1.453   0.204  0.00  0.00    +0.044 C 
ATOM      2  C   UNL     1      -0.367  -0.045   0.124  0.00  0.00    -0.047 A 
ATOM      3  C   UNL     1      -0.435  -0.679  -1.106  0.00  0.00    +0.004 A 
ATOM      4  C   UNL     1      -0.306  -2.048  -1.190  0.00  0.00    +0.015 A 
ATOM      5  C   UNL     1      -0.106  -2.802  -0.032  0.00  0.00    +0.054 A 
ATOM      6  C   UNL     1      -0.038  -2.158   1.210  0.00  0.00    +0.139 A 
ATOM      7  C   UNL     1      -0.164  -0.778   1.277  0.00  0.00    +0.050 A 
ENDROOT
BRANCH   5   8
ATOM      8  C   UNL     1       0.032  -4.270  -0.116  0.00  0.00    +0.098 C 
ATOM      9  N   UNL     1      -0.922  -4.997  -0.697  0.00  0.00    -0.387 N 
ATOM     10  N   UNL     1       1.111  -4.867   0.390  0.00  0.00    -0.344 N 
ATOM     11  H   UNL     1      -1.740  -4.572  -0.999  0.00  0.00    +0.157 HD
ATOM     12  H   UNL     1       1.805  -4.338   0.812  0.00  0.00    +0.144 HD
ATOM     13  H   UNL     1       1.202  -5.832   0.335  0.00  0.00    +0.144 HD
ATOM     14  H   UNL     1      -0.798  -5.951  -0.817  0.00  0.00    +0.157 HD
ENDBRANCH   5   8
BRANCH   6  15
ATOM     15  O   UNL     1       0.157  -2.879   2.342  0.00  0.00    -0.454 OA
BRANCH  15  16
ATOM     16  C   UNL     1       0.110  -2.224   3.532  0.00  0.00    +0.142 A 
ATOM     17  C   UNL     1       1.280  -1.755   4.113  0.00  0.00    +0.049 A 
ATOM     18  C   UNL     1       1.230  -1.089   5.322  0.00  0.00    +0.023 A 
ATOM     19  C   UNL     1       0.016  -0.890   5.955  0.00  0.00    +0.042 A 
ATOM     20  C   UNL     1      -1.152  -1.358   5.379  0.00  0.00    +0.039 A 
ATOM     21  C   UNL     1      -1.108  -2.020   4.166  0.00  0.00    +0.061 A 
ATOM     22 BR   UNL     1      -2.704  -2.652   3.375  0.00  0.00    -0.046 Br
ATOM     23 CL   UNL     1      -0.043  -0.054   7.475  0.00  0.00    -0.084 Cl
ENDBRANCH  15  16
ENDBRANCH   6  15
TORSDOF 3
