REMARK  Name = ZINC12468353
REMARK  7 active torsions:
REMARK  status: ('A' for Active; 'I' for Inactive)
REMARK    1  A    between atoms: C_1  and  C_2
REMARK    2  A    between atoms: C_3  and  C_8
REMARK    3  A    between atoms: N_6  and  C_7
REMARK    4  A    between atoms: C_8  and  N_9
REMARK    5  A    between atoms: C_10  and  C_12
REMARK    6  A    between atoms: C_18  and  C_27
REMARK    7  A    between atoms: C_21  and  C_23
REMARK                            x       y       z     vdW  Elec       q    Type
REMARK                         _______ _______ _______ _____ _____    ______ ____
ROOT
ATOM      1  C   UNL     1       2.932   0.929  -4.567  0.00  0.00    +0.096 A 
ATOM      2  C   UNL     1       4.097   0.888  -3.760  0.00  0.00    +0.149 A 
ATOM      3  N   UNL     1       5.102   1.323  -4.470  0.00  0.00    -0.177 NA
ATOM      4  N   UNL     1       4.651   1.661  -5.744  0.00  0.00    -0.238 N 
ATOM      5  C   UNL     1       3.321   1.414  -5.802  0.00  0.00    +0.130 A 
ATOM      6  N   UNL     1       2.562   1.641  -6.937  0.00  0.00    -0.322 N 
ATOM      7  C   UNL     1       3.206   2.431  -8.004  0.00  0.00    +0.104 C 
ATOM      8  C   UNL     1       4.649   1.940  -8.169  0.00  0.00    +0.063 C 
ATOM      9  C   UNL     1       5.429   2.188  -6.870  0.00  0.00    +0.215 C 
ATOM     10  H   UNL     1       1.659   1.299  -7.026  0.00  0.00    +0.148 HD
ENDROOT
BRANCH   7  11
ATOM     11  C   UNL     1       2.453   2.246  -9.296  0.00  0.00    -0.027 A 
ATOM     12  C   UNL     1       1.962   0.999  -9.637  0.00  0.00    +0.006 A 
ATOM     13  C   UNL     1       1.270   0.829 -10.822  0.00  0.00    +0.015 A 
ATOM     14  C   UNL     1       1.069   1.906 -11.666  0.00  0.00    +0.018 A 
ATOM     15  C   UNL     1       1.561   3.153 -11.325  0.00  0.00    +0.015 A 
ATOM     16  C   UNL     1       2.248   3.323 -10.137  0.00  0.00    +0.006 A 
ATOM     17 BR   UNL     1       0.124   1.673 -13.287  0.00  0.00    -0.050 Br
ENDBRANCH   7  11
BRANCH   1  19
ATOM     18  N   UNL     1       1.347   0.073  -2.923  0.00  0.00    -0.307 N 
ATOM     19  C   UNL     1       1.577   0.529  -4.170  0.00  0.00    +0.249 C 
ATOM     20  O   UNL     1       0.661   0.610  -4.967  0.00  0.00    -0.270 OA
ATOM     21  H   UNL     1       2.077   0.008  -2.288  0.00  0.00    +0.149 HD
BRANCH  18  22
ATOM     22  C   UNL     1      -0.006  -0.327  -2.527  0.00  0.00    +0.143 C 
BRANCH  22  25
ATOM     23  C   UNL     1      -0.018   1.503   0.010  0.00  0.00    +0.065 C 
ATOM     24  C   UNL     1       0.002  -0.004   0.002  0.00  0.00    +0.040 A 
ATOM     25  C   UNL     1       0.008  -0.796  -1.095  0.00  0.00    +0.010 A 
ATOM     26  C   UNL     1       0.028  -2.127  -0.666  0.00  0.00    +0.139 A 
ATOM     27  N   UNL     1       0.035  -2.134   0.643  0.00  0.00    -0.179 NA
ATOM     28  N   UNL     1       0.024  -0.805   1.088  0.00  0.00    -0.271 N 
ATOM     29  C   UNL     1       0.031  -0.364   2.485  0.00  0.00    +0.172 C 
ENDBRANCH  22  25
ENDBRANCH  18  22
ENDBRANCH   1  19
BRANCH   9  30
ATOM     30  C   UNL     1       6.774   1.464  -6.947  0.00  0.00    +0.412 C 
ATOM     31  F   UNL     1       6.556   0.094  -7.133  0.00  0.00    -0.168 F 
ATOM     32  F   UNL     1       7.515   1.968  -8.022  0.00  0.00    -0.168 F 
ATOM     33  F   UNL     1       7.482   1.666  -5.758  0.00  0.00    -0.168 F 
ENDBRANCH   9  30
TORSDOF 5
