REMARK  Name = ZINC60343221
REMARK  9 active torsions:
REMARK  status: ('A' for Active; 'I' for Inactive)
REMARK    1  A    between atoms: C_3  and  C_8
REMARK    2  A    between atoms: C_5  and  O_7
REMARK    3  A    between atoms: C_8  and  N_9
REMARK    4  A    between atoms: N_9  and  C_10
REMARK    5  A    between atoms: N_9  and  C_26
REMARK    6  A    between atoms: C_10  and  C_11
REMARK    7  A    between atoms: C_20  and  S_22
REMARK    8  A    between atoms: S_22  and  N_25
REMARK    9  A    between atoms: C_29  and  O_32
REMARK                            x       y       z     vdW  Elec       q    Type
REMARK                         _______ _______ _______ _____ _____    ______ ____
ROOT
ATOM      1  N   UNL     1       4.018   2.599   1.388  0.00  0.00    +0.390 N 
ATOM      2  H   UNL     1       4.015   1.822   2.031  0.00  0.00    -0.080 HD
ENDROOT
BRANCH   1   3
ATOM      3  C   UNL     1       2.990   3.569   1.788  0.00  0.00    -0.067 C 
ATOM      4  C   UNL     1       3.028   4.772   0.843  0.00  0.00    -0.013 C 
ATOM      5  C   UNL     1       1.957   5.782   1.260  0.00  0.00    +0.030 C 
ATOM      6  C   UNL     1       2.227   6.250   2.691  0.00  0.00    +0.114 C 
ATOM      7  C   UNL     1       2.189   5.048   3.637  0.00  0.00    +0.030 C 
ATOM      8  C   UNL     1       3.260   4.037   3.220  0.00  0.00    -0.013 C 
BRANCH   6   9
ATOM      9  O   UNL     1       1.227   7.194   3.080  0.00  0.00    -0.392 OA
ATOM     10  H   UNL     1       1.336   7.534   3.979  0.00  0.00    +0.210 HD
ENDBRANCH   6   9
ENDBRANCH   1   3
BRANCH   1  11
ATOM     11  C   UNL     1       3.731   2.114   0.032  0.00  0.00    -0.042 C 
BRANCH  11  14
ATOM     12  C   UNL     1       0.070   1.204  -0.131  0.00  0.00    +0.004 A 
ATOM     13  C   UNL     1       1.241   1.939  -0.142  0.00  0.00    +0.002 A 
ATOM     14  C   UNL     1       2.457   1.309   0.045  0.00  0.00    -0.060 A 
ATOM     15  C   UNL     1       2.505  -0.057   0.244  0.00  0.00    +0.047 A 
ATOM     16  C   UNL     1       1.332  -0.797   0.256  0.00  0.00    +0.117 A 
ATOM     17  C   UNL     1       0.112  -0.162   0.068  0.00  0.00    +0.045 A 
BRANCH  16  18
ATOM     18  O   UNL     1       1.377  -2.141   0.451  0.00  0.00    -0.507 OA
ATOM     19  H   UNL     1       1.320  -2.406   1.379  0.00  0.00    +0.292 HD
ENDBRANCH  16  18
ENDBRANCH  11  14
ENDBRANCH   1  11
BRANCH   1  20
ATOM     20  C   UNL     1       5.336   3.247   1.408  0.00  0.00    +0.020 C 
BRANCH  20  21
ATOM     21  C   UNL     1       5.857   3.281   2.822  0.00  0.00    +0.203 C 
ATOM     22  O   UNL     1       5.266   2.690   3.701  0.00  0.00    -0.277 OA
ATOM     23  N   UNL     1       6.980   3.969   3.110  0.00  0.00    -0.272 N 
ATOM     24  C   UNL     1       7.775   4.724   2.137  0.00  0.00    +0.118 C 
ATOM     25  C   UNL     1       8.939   5.321   2.945  0.00  0.00    +0.056 C 
ATOM     26  C   UNL     1       8.707   4.841   4.360  0.00  0.00    -0.023 A 
ATOM     27  C   UNL     1       7.554   4.071   4.380  0.00  0.00    +0.040 A 
ATOM     28  C   UNL     1       7.131   3.518   5.590  0.00  0.00    +0.026 A 
ATOM     29  C   UNL     1       7.848   3.741   6.746  0.00  0.00    +0.030 A 
ATOM     30  C   UNL     1       8.994   4.514   6.715  0.00  0.00    +0.105 A 
ATOM     31  C   UNL     1       9.425   5.058   5.520  0.00  0.00    +0.034 A 
BRANCH  30  32
ATOM     32  S   UNL     1       9.908   4.797   8.195  0.00  0.00    +0.056 S 
ATOM     33  O   UNL     1      10.636   6.002   7.998  0.00  0.00    -0.153 OA
ATOM     34  O   UNL     1       8.999   4.623   9.274  0.00  0.00    -0.153 OA
BRANCH  32  35
ATOM     35  N   UNL     1      11.027   3.583   8.319  0.00  0.00    -0.204 NA
ATOM     36  H   UNL     1      11.874   3.747   8.763  0.00  0.00    +0.144 HD
ATOM     37  H   UNL     1      10.836   2.708   7.948  0.00  0.00    +0.144 HD
ENDBRANCH  32  35
ENDBRANCH  30  32
ENDBRANCH  20  21
ENDBRANCH   1  20
TORSDOF 9
