REMARK  Name = ZINC36643197
REMARK  11 active torsions:
REMARK  status: ('A' for Active; 'I' for Inactive)
REMARK    1  A    between atoms: C_1  and  N_2
REMARK    2  A    between atoms: N_2  and  C_3
REMARK    3  A    between atoms: N_2  and  C_4
REMARK    4  A    between atoms: C_4  and  C_5
REMARK    5  A    between atoms: C_5  and  C_6
REMARK    6  A    between atoms: C_6  and  N_7
REMARK    7  A    between atoms: C_13  and  O_17
REMARK    8  A    between atoms: O_17  and  C_18
REMARK    9  A    between atoms: C_19  and  C_21
REMARK   10  A    between atoms: C_24  and  S_27
REMARK   11  A    between atoms: S_27  and  N_30
REMARK                            x       y       z     vdW  Elec       q    Type
REMARK                         _______ _______ _______ _____ _____    ______ ____
ROOT
ATOM      1  N   UNL     1       0.135  -0.201   5.003  0.00  0.00    -0.246 N 
ATOM      2  C   UNL     1      -0.775  -1.030   5.637  0.00  0.00    +0.168 A 
ATOM      3  N   UNL     1      -1.031  -2.296   5.410  0.00  0.00    -0.224 NA
ATOM      4  C   UNL     1      -1.955  -2.988   6.114  0.00  0.00    +0.081 A 
ATOM      5  C   UNL     1      -2.324  -4.346   5.970  0.00  0.00    +0.032 A 
ATOM      6  C   UNL     1      -3.289  -4.899   6.770  0.00  0.00    +0.048 A 
ATOM      7  C   UNL     1      -3.938  -4.152   7.748  0.00  0.00    +0.121 A 
ATOM      8  C   UNL     1      -3.599  -2.817   7.916  0.00  0.00    +0.063 A 
ATOM      9  C   UNL     1      -2.633  -2.258   7.116  0.00  0.00    +0.044 A 
ATOM     10  S   UNL     1      -1.894  -0.649   6.978  0.00  0.00    -0.052 S 
ATOM     11  C   UNL     1       0.257   1.085   5.388  0.00  0.00    +0.252 C 
ATOM     12  O   UNL     1      -0.379   1.498   6.338  0.00  0.00    -0.270 OA
ENDROOT
BRANCH  11  13
ATOM     13  C   UNL     1       1.165   1.993   4.656  0.00  0.00    +0.037 A 
ATOM     14  C   UNL     1       1.325   1.861   3.275  0.00  0.00    +0.015 A 
ATOM     15  C   UNL     1       2.174   2.711   2.598  0.00  0.00    +0.029 A 
ATOM     16  C   UNL     1       2.867   3.693   3.284  0.00  0.00    +0.106 A 
ATOM     17  C   UNL     1       2.713   3.830   4.652  0.00  0.00    +0.029 A 
ATOM     18  C   UNL     1       1.862   2.990   5.341  0.00  0.00    +0.015 A 
BRANCH  16  19
ATOM     19  S   UNL     1       3.950   4.775   2.411  0.00  0.00    +0.061 S 
ATOM     20  O   UNL     1       4.895   5.254   3.358  0.00  0.00    -0.153 OA
ATOM     21  O   UNL     1       4.337   4.093   1.226  0.00  0.00    -0.153 OA
BRANCH  19  22
ATOM     22  N   UNL     1       3.054   6.083   1.933  0.00  0.00    -0.177 NA
ATOM     23  C   UNL     1       2.361   6.083   0.638  0.00  0.00    +0.109 C 
ATOM     24  C   UNL     1       0.883   6.411   0.870  0.00  0.00    +0.017 C 
ATOM     25  C   UNL     1       0.772   7.728   1.642  0.00  0.00    +0.003 C 
ATOM     26  C   UNL     1       1.453   7.582   3.004  0.00  0.00    +0.017 C 
ATOM     27  C   UNL     1       2.933   7.264   2.799  0.00  0.00    +0.109 C 
ENDBRANCH  19  22
ENDBRANCH  16  19
ENDBRANCH  11  13
BRANCH   7  28
ATOM     28  O   UNL     1      -4.893  -4.722   8.530  0.00  0.00    -0.495 OA
ATOM     29  C   UNL     1      -5.184  -6.102   8.295  0.00  0.00    +0.277 C 
ENDBRANCH   7  28
BRANCH   1  30
ATOM     30  C   UNL     1       0.964  -0.721   3.913  0.00  0.00    +0.114 C 
BRANCH  30  31
ATOM     31  C   UNL     1       0.108  -0.890   2.657  0.00  0.00    +0.001 C 
BRANCH  31  32
ATOM     32  C   UNL     1       1.003  -1.284   1.480  0.00  0.00    -0.078 C 
BRANCH  32  34
ATOM     33  C   UNL     1      -0.403  -0.151  -0.100  0.00  0.00    -0.097 C 
ATOM     34  N   UNL     1       0.181  -1.446   0.273  0.00  0.00    +0.376 N 
ATOM     35  C   UNL     1       1.020  -1.939  -0.828  0.00  0.00    -0.097 C 
ATOM     36  H   UNL     1      -0.558  -2.108   0.456  0.00  0.00    -0.083 HD
ENDBRANCH  32  34
ENDBRANCH  31  32
ENDBRANCH  30  31
ENDBRANCH   1  30
TORSDOF 8
