REMARK  Name = ZINC05825390
REMARK  6 active torsions:
REMARK  status: ('A' for Active; 'I' for Inactive)
REMARK    1  A    between atoms: C_1  and  C_2
REMARK    2  A    between atoms: C_2  and  C_3
REMARK    3  A    between atoms: C_2  and  C_4
REMARK    4  A    between atoms: C_2  and  N_5
REMARK    5  A    between atoms: C_6  and  O_28
REMARK    6  A    between atoms: C_7  and  C_14
REMARK                            x       y       z     vdW  Elec       q    Type
REMARK                         _______ _______ _______ _____ _____    ______ ____
ROOT
ATOM      1  C   UNL     1      -1.197   2.308  -0.117  0.00  0.00    +0.018 C 
ATOM      2  C   UNL     1      -1.128   3.219  -1.319  0.00  0.00    +0.011 A 
ATOM      3  C   UNL     1      -1.472   4.530  -1.268  0.00  0.00    -0.022 A 
ATOM      4  C   UNL     1      -1.271   5.074  -2.593  0.00  0.00    +0.003 A 
ATOM      5  C   UNL     1      -1.455   6.349  -3.135  0.00  0.00    +0.010 A 
ATOM      6  C   UNL     1      -1.155   6.508  -4.465  0.00  0.00    +0.001 A 
ATOM      7  C   UNL     1      -0.689   5.462  -5.245  0.00  0.00    +0.002 A 
ATOM      8  C   UNL     1      -0.497   4.190  -4.735  0.00  0.00    +0.026 A 
ATOM      9  C   UNL     1      -0.795   3.998  -3.388  0.00  0.00    +0.047 A 
ATOM     10  N   UNL     1      -0.721   2.898  -2.582  0.00  0.00    -0.359 N 
ATOM     11  H   UNL     1      -0.427   2.018  -2.865  0.00  0.00    +0.166 HD
ATOM     12  C   UNL     1      -1.967   5.213  -0.019  0.00  0.00    +0.018 C 
ATOM     13  C   UNL     1      -2.368   4.127   0.989  0.00  0.00    -0.076 C 
ATOM     14  N   UNL     1      -1.280   3.135   1.107  0.00  0.00    +0.388 N 
ATOM     15  H   UNL     1      -0.389   3.625   1.245  0.00  0.00    -0.084 HD
ATOM     16  H   UNL     1      -1.464   2.527   1.914  0.00  0.00    -0.084 HD
ENDROOT
BRANCH   1  19
ATOM     17  N   UNL     1       1.104  -0.654  -0.143  0.00  0.00    -0.259 N 
ATOM     18  C   UNL     1      -0.039   0.102  -0.196  0.00  0.00    +0.204 A 
ATOM     19  C   UNL     1       0.044   1.455  -0.056  0.00  0.00    +0.068 A 
ATOM     20  C   UNL     1       1.306   2.045   0.141  0.00  0.00    +0.260 A 
ATOM     21  O   UNL     1       1.405   3.253   0.269  0.00  0.00    -0.267 OA
ATOM     22  N   UNL     1       2.404   1.266   0.187  0.00  0.00    -0.275 N 
ATOM     23  H   UNL     1       3.303   1.682   0.326  0.00  0.00    +0.173 HD
ATOM     24  C   UNL     1       2.301  -0.068   0.046  0.00  0.00    +0.332 A 
ATOM     25  O   UNL     1       3.303  -0.755   0.090  0.00  0.00    -0.246 OA
BRANCH  17  27
ATOM     26  C   UNL     1      -0.437  -2.519  -0.501  0.00  0.00    +0.034 C 
ATOM     27  C   UNL     1       1.022  -2.109  -0.293  0.00  0.00    +0.045 C 
ATOM     28  C   UNL     1       1.852  -2.545  -1.503  0.00  0.00    +0.034 C 
ATOM     29  C   UNL     1       1.566  -2.784   0.968  0.00  0.00    +0.034 C 
ENDBRANCH  17  27
BRANCH  18  30
ATOM     30  O   UNL     1      -1.238  -0.489  -0.387  0.00  0.00    -0.493 OA
ATOM     31  H   UNL     1      -1.668  -0.247  -1.218  0.00  0.00    +0.294 HD
ENDBRANCH  18  30
ENDBRANCH   1  19
TORSDOF 3
