REMARK  Name = ZINC55710442
REMARK  11 active torsions:
REMARK  status: ('A' for Active; 'I' for Inactive)
REMARK    1  A    between atoms: C_1  and  C_2
REMARK    2  A    between atoms: C_2  and  C_4
REMARK    3  A    between atoms: C_2  and  N_17
REMARK    4  A    between atoms: C_7  and  N_10
REMARK    5  A    between atoms: N_13  and  C_16
REMARK    6  A    between atoms: C_18  and  C_20
REMARK    7  A    between atoms: C_20  and  C_22
REMARK    8  A    between atoms: C_20  and  N_26
REMARK    9  A    between atoms: C_22  and  C_23
REMARK   10  A    between atoms: C_23  and  S_24
REMARK   11  A    between atoms: S_24  and  C_25
REMARK                            x       y       z     vdW  Elec       q    Type
REMARK                         _______ _______ _______ _____ _____    ______ ____
ROOT
ATOM      1  C   UNL     1      -0.004   1.526   0.019  0.00  0.00    +0.033 C 
ATOM      2  C   UNL     1       0.002  -0.004   0.002  0.00  0.00    +0.100 C 
ENDROOT
BRANCH   2   3
ATOM      3  C   UNL     1       0.708  -0.490  -1.238  0.00  0.00    -0.027 A 
ATOM      4  C   UNL     1       2.089  -0.523  -1.277  0.00  0.00    +0.007 A 
ATOM      5  C   UNL     1       2.739  -0.968  -2.412  0.00  0.00    +0.023 A 
ATOM      6  C   UNL     1       2.003  -1.382  -3.514  0.00  0.00    +0.030 A 
ATOM      7  C   UNL     1       0.615  -1.348  -3.472  0.00  0.00    +0.023 A 
ATOM      8  C   UNL     1      -0.029  -0.907  -2.332  0.00  0.00    +0.007 A 
BRANCH   6   9
ATOM      9  N   UNL     1       2.656  -1.832  -4.664  0.00  0.00    -0.333 N 
ATOM     10  C   UNL     1       1.899  -2.385  -5.797  0.00  0.00    +0.086 C 
ATOM     11  C   UNL     1       2.360  -1.683  -7.078  0.00  0.00    -0.060 C 
ATOM     12  N   UNL     1       3.818  -1.806  -7.206  0.00  0.00    +0.380 N 
ATOM     13  C   UNL     1       4.478  -1.093  -6.105  0.00  0.00    -0.060 C 
ATOM     14  C   UNL     1       4.121  -1.761  -4.778  0.00  0.00    +0.086 C 
ATOM     15  C   UNL     1       4.246  -1.229  -8.487  0.00  0.00    -0.096 C 
ATOM     16  H   UNL     1       4.075  -2.781  -7.176  0.00  0.00    -0.082 HD
ENDBRANCH   6   9
ENDBRANCH   2   3
BRANCH   2  17
ATOM     17  N   UNL     1       0.701  -0.503   1.189  0.00  0.00    -0.307 N 
ATOM     18  C   UNL     1       0.036  -0.647   2.352  0.00  0.00    +0.234 C 
ATOM     19  O   UNL     1      -1.141  -0.364   2.416  0.00  0.00    -0.274 OA
ATOM     20  H   UNL     1       1.643  -0.729   1.137  0.00  0.00    +0.149 HD
BRANCH  18  21
ATOM     21  C   UNL     1       0.755  -1.160   3.573  0.00  0.00    +0.161 C 
BRANCH  21  22
ATOM     22  N   UNL     1       0.004  -0.788   4.774  0.00  0.00    -0.288 N 
ATOM     23  C   UNL     1      -1.262  -1.220   4.938  0.00  0.00    +0.298 C 
ATOM     24  O   UNL     1      -1.781  -1.917   4.087  0.00  0.00    -0.253 OA
ATOM     25  N   UNL     1      -1.954  -0.878   6.043  0.00  0.00    -0.313 N 
ATOM     26  H   UNL     1       0.418  -0.232   5.453  0.00  0.00    +0.151 HD
ATOM     27  H   UNL     1      -1.540  -0.322   6.721  0.00  0.00    +0.146 HD
ATOM     28  H   UNL     1      -2.865  -1.188   6.160  0.00  0.00    +0.146 HD
ENDBRANCH  21  22
BRANCH  21  29
ATOM     29  C   UNL     1       0.871  -2.683   3.494  0.00  0.00    +0.042 C 
BRANCH  29  30
ATOM     30  C   UNL     1       1.708  -3.193   4.669  0.00  0.00    +0.071 C 
BRANCH  30  31
ATOM     31  S   UNL     1       1.845  -4.999   4.576  0.00  0.00    -0.164 S 
ATOM     32  C   UNL     1       2.853  -5.438   6.019  0.00  0.00    +0.084 C 
ENDBRANCH  30  31
ENDBRANCH  29  30
ENDBRANCH  21  29
ENDBRANCH  18  21
ENDBRANCH   2  17
TORSDOF 8
