REMARK  Name = ZINC03184901
REMARK  7 active torsions:
REMARK  status: ('A' for Active; 'I' for Inactive)
REMARK    1  A    between atoms: C_1  and  C_2
REMARK    2  A    between atoms: C_2  and  C_30
REMARK    3  A    between atoms: C_4  and  N_62
REMARK    4  A    between atoms: N_9  and  C_19
REMARK    5  A    between atoms: P_10  and  N_12
REMARK    6  A    between atoms: N_12  and  C_13
REMARK    7  A    between atoms: C_13  and  C_14
REMARK                            x       y       z     vdW  Elec       q    Type
REMARK                         _______ _______ _______ _____ _____    ______ ____
ROOT
ATOM      1  C   UNL     1       0.243  10.051   2.152  0.00  0.00    +0.015 C 
ATOM      2  C   UNL     1       0.741  10.062   0.705  0.00  0.00    -0.010 C 
ATOM      3  C   UNL     1      -0.455  10.217  -0.222  0.00  0.00    +0.060 C 
ATOM      4  C   UNL     1      -1.258   8.937  -0.318  0.00  0.00    +0.004 C 
ATOM      5  C   UNL     1      -0.598   7.800  -0.222  0.00  0.00    +0.052 C 
ATOM      6  C   UNL     1       0.862   7.699   0.048  0.00  0.00    +0.054 C 
ATOM      7  C   UNL     1       1.526   8.801   0.454  0.00  0.00    +0.005 C 
ATOM      8  N   UNL     1       1.320   6.409  -0.059  0.00  0.00    -0.259 N 
ATOM      9  N   UNL     1       0.413   5.352  -0.196  0.00  0.00    -0.209 N 
ATOM     10  P   UNL     1      -1.087   6.056  -0.356  0.00  0.00    +0.122 P 
ATOM     11  S   UNL     1      -1.842   5.683  -2.018  0.00  0.00    -0.024 S 
ATOM     12  C   UNL     1       1.667  11.264   0.513  0.00  0.00    +0.015 C 
ATOM     13  H   UNL     1       2.273   6.230  -0.042  0.00  0.00    +0.171 HD
ENDROOT
BRANCH   4  19
ATOM     14  C   UNL     1      -3.526   8.403   0.523  0.00  0.00    +0.085 C 
ATOM     15  C   UNL     1      -4.559   9.475   0.902  0.00  0.00    +0.017 C 
ATOM     16  C   UNL     1      -5.270   9.959  -0.364  0.00  0.00    +0.003 C 
ATOM     17  C   UNL     1      -4.249  10.588  -1.315  0.00  0.00    +0.017 C 
ATOM     18  C   UNL     1      -3.213   9.534  -1.716  0.00  0.00    +0.085 C 
ATOM     19  N   UNL     1      -2.645   9.279  -0.338  0.00  0.00    -0.396 NA
ATOM     20  H   UNL     1      -2.672  10.197   0.121  0.00  0.00    +0.126 HD
ENDBRANCH   4  19
BRANCH   9  21
ATOM     21  C   UNL     1       0.705   3.987  -0.193  0.00  0.00    +0.054 A 
ATOM     22  C   UNL     1       0.491   3.227  -1.336  0.00  0.00    +0.025 A 
ATOM     23  C   UNL     1       0.782   1.876  -1.330  0.00  0.00    +0.002 A 
ATOM     24  C   UNL     1       1.285   1.281  -0.188  0.00  0.00    +0.000 A 
ATOM     25  C   UNL     1       1.494   2.034   0.954  0.00  0.00    +0.002 A 
ATOM     26  C   UNL     1       1.211   3.385   0.953  0.00  0.00    +0.025 A 
ENDBRANCH   9  21
BRANCH  10  27
ATOM     27  N   UNL     1      -2.115   5.607   0.898  0.00  0.00    -0.265 NA
ATOM     28  H   UNL     1      -1.722   5.852   1.794  0.00  0.00    +0.129 HD
BRANCH  27  29
ATOM     29  C   UNL     1      -2.427   4.172   0.835  0.00  0.00    +0.161 C 
BRANCH  29  30
ATOM     30  C   UNL     1      -2.325   3.575   2.215  0.00  0.00    +0.119 A 
ATOM     31  C   UNL     1      -3.324   3.490   3.111  0.00  0.00    +0.046 A 
ATOM     32  C   UNL     1      -2.791   2.862   4.261  0.00  0.00    +0.041 A 
ATOM     33  C   UNL     1      -1.496   2.610   4.001  0.00  0.00    +0.195 A 
ATOM     34  O   UNL     1      -1.219   3.044   2.761  0.00  0.00    -0.467 OA
ENDBRANCH  29  30
ENDBRANCH  27  29
ENDBRANCH  10  27
TORSDOF 5
