REMARK  Name = ZINC12278436
REMARK  9 active torsions:
REMARK  status: ('A' for Active; 'I' for Inactive)
REMARK    1  A    between atoms: C_1  and  N_61
REMARK    2  A    between atoms: C_2  and  C_3
REMARK    3  A    between atoms: C_2  and  N_61
REMARK    4  A    between atoms: C_3  and  C_4
REMARK    5  A    between atoms: N_6  and  C_7
REMARK    6  A    between atoms: C_7  and  C_8
REMARK    7  A    between atoms: C_15  and  C_18
REMARK    8  A    between atoms: C_23  and  C_24
REMARK    9  A    between atoms: C_28  and  N_61
REMARK                            x       y       z     vdW  Elec       q    Type
REMARK                         _______ _______ _______ _____ _____    ______ ____
ROOT
ATOM      1  C   UNL     1      -1.036   3.567   0.026  0.00  0.00    +0.195 C 
ATOM      2  C   UNL     1      -2.369   4.352   0.032  0.00  0.00    +0.085 C 
ATOM      3  C   UNL     1      -2.033   5.544  -0.845  0.00  0.00    -0.002 A 
ATOM      4  C   UNL     1      -2.656   6.759  -1.029  0.00  0.00    +0.007 A 
ATOM      5  C   UNL     1      -2.115   7.696  -1.893  0.00  0.00    +0.001 A 
ATOM      6  C   UNL     1      -0.948   7.412  -2.573  0.00  0.00    +0.012 A 
ATOM      7  C   UNL     1      -0.315   6.186  -2.395  0.00  0.00    +0.025 A 
ATOM      8  C   UNL     1      -0.864   5.233  -1.523  0.00  0.00    +0.132 A 
ATOM      9  O   UNL     1      -0.426   3.985  -1.207  0.00  0.00    -0.486 OA
ENDROOT
BRANCH   7  10
ATOM     10  C   UNL     1       0.940   5.886  -3.127  0.00  0.00    -0.003 A 
ATOM     11  C   UNL     1       2.092   6.628  -2.872  0.00  0.00    +0.009 A 
ATOM     12  C   UNL     1       3.258   6.341  -3.552  0.00  0.00    +0.001 A 
ATOM     13  C   UNL     1       3.282   5.327  -4.493  0.00  0.00    +0.001 A 
ATOM     14  C   UNL     1       2.140   4.591  -4.753  0.00  0.00    +0.013 A 
ATOM     15  C   UNL     1       0.970   4.866  -4.075  0.00  0.00    +0.063 A 
BRANCH  15  16
ATOM     16  C   UNL     1      -0.274   4.063  -4.360  0.00  0.00    +0.418 C 
ATOM     17  F   UNL     1       0.004   3.105  -5.341  0.00  0.00    -0.166 F 
ATOM     18  F   UNL     1      -0.694   3.423  -3.189  0.00  0.00    -0.166 F 
ATOM     19  F   UNL     1      -1.286   4.916  -4.814  0.00  0.00    -0.166 F 
ENDBRANCH  15  16
ENDBRANCH   7  10
BRANCH   1  20
ATOM     20  C   UNL     1      -1.295   2.059   0.019  0.00  0.00    +0.149 C 
BRANCH  20  23
ATOM     21  C   UNL     1       0.002  -0.004   0.002  0.00  0.00    +0.211 C 
ATOM     22  O   UNL     1      -1.040  -0.625   0.009  0.00  0.00    -0.276 OA
ATOM     23  N   UNL     1      -0.016   1.344   0.009  0.00  0.00    -0.312 N 
ATOM     24  H   UNL     1       0.817   1.840   0.004  0.00  0.00    +0.149 HD
BRANCH  21  25
ATOM     25  C   UNL     1       1.317  -0.740  -0.015  0.00  0.00    +0.077 C 
BRANCH  25  26
ATOM     26  C   UNL     1       1.058  -2.248  -0.020  0.00  0.00    -0.070 C 
BRANCH  26  28
ATOM     27  C   UNL     1       3.083  -2.743   1.211  0.00  0.00    -0.096 C 
ATOM     28  N   UNL     1       2.356  -2.954  -0.058  0.00  0.00    +0.381 N 
ATOM     29  H   UNL     1       2.918  -2.579  -0.831  0.00  0.00    -0.082 HD
BRANCH  28  30
ATOM     30  C   UNL     1       2.138  -4.399  -0.280  0.00  0.00    -0.046 C 
ATOM     31  C   UNL     1       3.498  -5.116  -0.267  0.00  0.00    +0.009 C 
ATOM     32  C   UNL     1       3.295  -6.551  -0.831  0.00  0.00    +0.164 C 
ATOM     33  S   UNL     1       2.135  -6.206  -2.220  0.00  0.00    -0.033 S 
ATOM     34  O   UNL     1       2.885  -5.997  -3.409  0.00  0.00    -0.174 OA
ATOM     35  O   UNL     1       1.098  -7.178  -2.209  0.00  0.00    -0.174 OA
ATOM     36  C   UNL     1       1.453  -4.595  -1.654  0.00  0.00    +0.151 C 
ENDBRANCH  28  30
ENDBRANCH  26  28
ENDBRANCH  25  26
ENDBRANCH  21  25
ENDBRANCH  20  23
ENDBRANCH   1  20
TORSDOF 8
