REMARK  Name = ZINC33812601
REMARK  16 active torsions:
REMARK  status: ('A' for Active; 'I' for Inactive)
REMARK    1  A    between atoms: C_1  and  C_2
REMARK    2  A    between atoms: C_2  and  C_3
REMARK    3  A    between atoms: C_3  and  C_4
REMARK    4  A    between atoms: C_4  and  C_5
REMARK    5  A    between atoms: C_5  and  C_7
REMARK    6  A    between atoms: C_5  and  C_9
REMARK    7  A    between atoms: C_7  and  C_8
REMARK    8  A    between atoms: C_9  and  N_10
REMARK    9  A    between atoms: C_14  and  C_15
REMARK   10  A    between atoms: C_16  and  C_34
REMARK   11  A    between atoms: C_17  and  C_32
REMARK   12  A    between atoms: N_20  and  C_29
REMARK   13  A    between atoms: C_21  and  N_22
REMARK   14  A    between atoms: N_25  and  C_28
REMARK   15  A    between atoms: C_29  and  C_30
REMARK   16  A    between atoms: C_30  and  C_31
REMARK                            x       y       z     vdW  Elec       q    Type
REMARK                         _______ _______ _______ _____ _____    ______ ____
ROOT
ATOM      1  C   UNL     1      -7.075  -5.289   3.906  0.00  0.00    +0.019 A 
ATOM      2  C   UNL     1      -5.934  -4.694   4.469  0.00  0.00    -0.017 A 
ATOM      3  C   UNL     1      -5.847  -4.579   5.853  0.00  0.00    +0.120 A 
ATOM      4  C   UNL     1      -6.908  -5.064   6.660  0.00  0.00    +0.270 A 
ATOM      5  O   UNL     1      -6.839  -4.966   7.873  0.00  0.00    -0.266 OA
ATOM      6  N   UNL     1      -7.991  -5.630   6.097  0.00  0.00    -0.295 N 
ATOM      7  C   UNL     1      -8.101  -5.749   4.749  0.00  0.00    +0.112 A 
ATOM      8  C   UNL     1      -4.821  -4.187   3.587  0.00  0.00    +0.046 C 
ENDROOT
BRANCH   1  13
ATOM      9  N   UNL     1      -7.595  -2.045   1.102  0.00  0.00    -0.255 N 
ATOM     10  C   UNL     1      -7.497  -2.951   2.059  0.00  0.00    +0.258 C 
ATOM     11  O   UNL     1      -7.554  -2.632   3.233  0.00  0.00    -0.269 OA
ATOM     12  C   UNL     1      -7.322  -4.316   1.675  0.00  0.00    +0.077 C 
ATOM     13  C   UNL     1      -7.197  -5.425   2.454  0.00  0.00    +0.032 C 
ATOM     14  S   UNL     1      -7.314  -4.170  -0.106  0.00  0.00    -0.061 S 
ATOM     15  C   UNL     1      -7.537  -2.400  -0.201  0.00  0.00    +0.121 C 
ATOM     16  S   UNL     1      -7.647  -1.405  -1.590  0.00  0.00    -0.027 S 
BRANCH   9  17
ATOM     17  C   UNL     1      -7.774  -0.635   1.458  0.00  0.00    +0.118 C 
BRANCH  17  18
ATOM     18  C   UNL     1      -9.261  -0.281   1.407  0.00  0.00    +0.007 C 
BRANCH  18  19
ATOM     19  C   UNL     1     -10.007  -1.051   2.499  0.00  0.00    +0.002 C 
ATOM     20  C   UNL     1      -9.534  -0.572   3.873  0.00  0.00    +0.004 C 
ENDBRANCH  18  19
BRANCH  18  21
ATOM     21  C   UNL     1      -9.436   1.222   1.632  0.00  0.00    +0.005 C 
BRANCH  21  22
ATOM     22  C   UNL     1     -10.907   1.598   1.444  0.00  0.00    +0.000 C 
BRANCH  22  24
ATOM     23  C   UNL     1     -12.572   3.456   1.585  0.00  0.00    +0.004 C 
ATOM     24  C   UNL     1     -11.101   3.080   1.773  0.00  0.00    -0.003 C 
ENDBRANCH  22  24
ENDBRANCH  21  22
ENDBRANCH  18  21
ENDBRANCH  17  18
ENDBRANCH   9  17
ENDBRANCH   1  13
BRANCH   7  25
ATOM     25  N   UNL     1      -9.214  -6.323   4.209  0.00  0.00    -0.320 N 
ATOM     26  C   UNL     1     -10.339  -5.499   3.741  0.00  0.00    +0.088 C 
ATOM     27  C   UNL     1     -10.703  -5.935   2.318  0.00  0.00    -0.060 C 
ATOM     28  N   UNL     1     -10.962  -7.380   2.301  0.00  0.00    +0.380 N 
ATOM     29  C   UNL     1      -9.735  -8.113   2.638  0.00  0.00    -0.060 C 
ATOM     30  C   UNL     1      -9.321  -7.784   4.072  0.00  0.00    +0.088 C 
ATOM     31  C   UNL     1     -11.416  -7.779   0.963  0.00  0.00    -0.096 C 
ATOM     32  H   UNL     1     -11.679  -7.600   2.977  0.00  0.00    -0.082 HD
ENDBRANCH   7  25
BRANCH   3  33
ATOM     33  C   UNL     1      -4.697  -3.977   6.458  0.00  0.00    +0.105 C 
ATOM     34  N   UNL     1      -3.785  -3.500   6.937  0.00  0.00    -0.191 NA
ENDBRANCH   3  33
BRANCH   6  35
ATOM     35  C   UNL     1      -9.072  -6.123   6.954  0.00  0.00    +0.126 C 
BRANCH  35  36
ATOM     36  C   UNL     1     -10.117  -5.022   7.140  0.00  0.00    +0.018 C 
ATOM     37  C   UNL     1     -11.247  -5.537   8.034  0.00  0.00    +0.005 C 
ENDBRANCH  35  36
ENDBRANCH   6  35
TORSDOF 11
