REMARK  Name = ZINC08119380
REMARK  6 active torsions:
REMARK  status: ('A' for Active; 'I' for Inactive)
REMARK    1  A    between atoms: C_1  and  C_2
REMARK    2  A    between atoms: C_2  and  C_4
REMARK    3  A    between atoms: C_2  and  N_54
REMARK    4  A    between atoms: N_6  and  C_7
REMARK    5  A    between atoms: C_8  and  C_15
REMARK    6  A    between atoms: N_20  and  C_23
REMARK                            x       y       z     vdW  Elec       q    Type
REMARK                         _______ _______ _______ _____ _____    ______ ____
ROOT
ATOM      1  C   UNL     1       1.364   1.698   0.015  0.00  0.00    +0.204 C 
ATOM      2  O   UNL     1       1.667   2.502   0.871  0.00  0.00    -0.277 OA
ATOM      3  N   UNL     1       2.260   1.352  -0.931  0.00  0.00    -0.281 N 
ATOM      4  H   UNL     1       2.018   0.709  -1.616  0.00  0.00    +0.155 HD
ENDROOT
BRANCH   3   5
ATOM      5  C   UNL     1       3.527   1.915  -0.925  0.00  0.00    +0.084 A 
ATOM      6  C   UNL     1       4.575   1.685  -1.800  0.00  0.00    +0.068 A 
ATOM      7  C   UNL     1       5.820   2.418  -1.573  0.00  0.00    -0.023 A 
ATOM      8  C   UNL     1       5.811   3.246  -0.512  0.00  0.00    -0.004 A 
ATOM      9  S   UNL     1       4.185   3.072   0.182  0.00  0.00    -0.077 S 
ATOM     10  C   UNL     1       7.123   3.961  -0.343  0.00  0.00    +0.043 C 
ATOM     11  C   UNL     1       7.834   3.797  -1.704  0.00  0.00    +0.010 C 
ATOM     12  C   UNL     1       7.194   2.500  -2.239  0.00  0.00    +0.037 C 
BRANCH   6  13
ATOM     13  C   UNL     1       4.441   0.743  -2.915  0.00  0.00    +0.244 C 
ATOM     14  O   UNL     1       4.041   1.133  -3.996  0.00  0.00    -0.270 OA
ATOM     15  N   UNL     1       4.760  -0.555  -2.742  0.00  0.00    -0.325 N 
ATOM     16  H   UNL     1       5.078  -0.866  -1.881  0.00  0.00    +0.145 HD
ATOM     17  H   UNL     1       4.671  -1.179  -3.480  0.00  0.00    +0.145 HD
ENDBRANCH   6  13
ENDBRANCH   3   5
BRANCH   1  19
ATOM     18  C   UNL     1      -0.845   1.714  -1.111  0.00  0.00    -0.004 C 
ATOM     19  C   UNL     1      -0.013   1.086   0.008  0.00  0.00    +0.017 C 
BRANCH  19  25
ATOM     20  C   UNL     1      -1.827   0.452   1.482  0.00  0.00    -0.059 C 
ATOM     21  C   UNL     1      -2.428   0.684   2.870  0.00  0.00    +0.086 C 
ATOM     22  N   UNL     1      -2.816   2.095   3.003  0.00  0.00    -0.333 N 
ATOM     23  C   UNL     1      -1.654   2.977   2.822  0.00  0.00    +0.086 C 
ATOM     24  C   UNL     1      -1.052   2.744   1.434  0.00  0.00    -0.059 C 
ATOM     25  N   UNL     1      -0.647   1.327   1.322  0.00  0.00    +0.389 N 
ATOM     26  H   UNL     1       0.030   1.114   2.063  0.00  0.00    -0.081 HD
BRANCH  22  27
ATOM     27  C   UNL     1      -3.436   2.330   4.232  0.00  0.00    +0.030 A 
ATOM     28  C   UNL     1      -2.928   3.293   5.095  0.00  0.00    +0.023 A 
ATOM     29  C   UNL     1      -3.546   3.527   6.308  0.00  0.00    +0.002 A 
ATOM     30  C   UNL     1      -4.663   2.795   6.668  0.00  0.00    +0.000 A 
ATOM     31  C   UNL     1      -5.168   1.832   5.814  0.00  0.00    +0.002 A 
ATOM     32  C   UNL     1      -4.558   1.597   4.598  0.00  0.00    +0.023 A 
ENDBRANCH  22  27
ENDBRANCH  19  25
ENDBRANCH   1  19
TORSDOF 5
