REMARK  Name = ZINC05409528
REMARK  10 active torsions:
REMARK  status: ('A' for Active; 'I' for Inactive)
REMARK    1  A    between atoms: C_5  and  O_8
REMARK    2  A    between atoms: C_6  and  O_7
REMARK    3  A    between atoms: C_12  and  O_35
REMARK    4  A    between atoms: C_13  and  C_19
REMARK    5  A    between atoms: C_14  and  O_18
REMARK    6  A    between atoms: C_21  and  O_34
REMARK    7  A    between atoms: C_23  and  O_33
REMARK    8  A    between atoms: C_25  and  O_32
REMARK    9  A    between atoms: C_27  and  C_30
REMARK   10  A    between atoms: C_30  and  O_31
REMARK                            x       y       z     vdW  Elec       q    Type
REMARK                         _______ _______ _______ _____ _____    ______ ____
ROOT
ATOM      1  C   UNL     1      -0.017   1.375   0.010  0.00  0.00    +0.064 A 
ATOM      2  C   UNL     1       1.187   2.081   0.002  0.00  0.00    +0.068 A 
ATOM      3  C   UNL     1       2.415   1.401  -0.020  0.00  0.00    +0.143 A 
ATOM      4  C   UNL     1       2.417   0.011  -0.023  0.00  0.00    +0.096 A 
ATOM      5  C   UNL     1       1.222  -0.685  -0.012  0.00  0.00    +0.162 A 
ATOM      6  C   UNL     1       0.002  -0.004   0.002  0.00  0.00    +0.159 A 
ATOM      7  O   UNL     1       3.584   2.075  -0.045  0.00  0.00    -0.454 OA
ATOM      8  C   UNL     1       3.658   3.384   0.270  0.00  0.00    +0.146 A 
ATOM      9  C   UNL     1       4.887   3.957   0.564  0.00  0.00    +0.093 A 
ATOM     10  C   UNL     1       4.970   5.305   0.880  0.00  0.00    +0.130 A 
ATOM     11  C   UNL     1       3.831   6.101   0.904  0.00  0.00    +0.067 A 
ATOM     12  C   UNL     1       2.596   5.550   0.617  0.00  0.00    +0.140 A 
ATOM     13  C   UNL     1       2.504   4.186   0.307  0.00  0.00    +0.106 A 
ATOM     14  C   UNL     1       1.202   3.559   0.020  0.00  0.00    +0.204 A 
ATOM     15  O   UNL     1       0.199   4.217  -0.189  0.00  0.00    -0.286 OA
ENDROOT
BRANCH  11  16
ATOM     16  C   UNL     1       3.942   7.565   1.244  0.00  0.00    +0.187 C 
ATOM     17  C   UNL     1       4.530   8.323   0.051  0.00  0.00    +0.179 C 
ATOM     18  C   UNL     1       4.695   9.799   0.425  0.00  0.00    +0.177 C 
ATOM     19  C   UNL     1       5.579   9.902   1.672  0.00  0.00    +0.176 C 
ATOM     20  C   UNL     1       4.950   9.083   2.803  0.00  0.00    +0.175 C 
ATOM     21  O   UNL     1       4.796   7.728   2.378  0.00  0.00    -0.361 OA
BRANCH  19  22
ATOM     22  O   UNL     1       6.881   9.392   1.378  0.00  0.00    -0.386 OA
ATOM     23  H   UNL     1       7.337   9.863   0.667  0.00  0.00    +0.210 HD
ENDBRANCH  19  22
BRANCH  18  24
ATOM     24  O   UNL     1       5.310  10.501  -0.658  0.00  0.00    -0.386 OA
ATOM     25  H   UNL     1       5.446  11.443  -0.489  0.00  0.00    +0.210 HD
ENDBRANCH  18  24
BRANCH  17  26
ATOM     26  O   UNL     1       3.649   8.209  -1.069  0.00  0.00    -0.386 OA
ATOM     27  H   UNL     1       3.959   8.667  -1.862  0.00  0.00    +0.210 HD
ENDBRANCH  17  26
BRANCH  20  28
ATOM     28  C   UNL     1       5.858   9.133   4.034  0.00  0.00    +0.190 C 
BRANCH  28  29
ATOM     29  O   UNL     1       5.218   8.467   5.124  0.00  0.00    -0.392 OA
ATOM     30  H   UNL     1       5.737   8.459   5.940  0.00  0.00    +0.210 HD
ENDBRANCH  28  29
ENDBRANCH  20  28
ENDBRANCH  11  16
BRANCH   6  31
ATOM     31  O   UNL     1      -1.166  -0.701   0.009  0.00  0.00    -0.503 OA
ATOM     32  H   UNL     1      -1.512  -0.897  -0.873  0.00  0.00    +0.292 HD
ENDBRANCH   6  31
BRANCH   5  33
ATOM     33  O   UNL     1       1.234  -2.043  -0.015  0.00  0.00    -0.503 OA
ATOM     34  H   UNL     1       1.247  -2.438   0.868  0.00  0.00    +0.292 HD
ENDBRANCH   5  33
BRANCH  12  35
ATOM     35  O   UNL     1       1.481   6.323   0.635  0.00  0.00    -0.505 OA
ATOM     36  H   UNL     1       1.273   6.734  -0.215  0.00  0.00    +0.292 HD
ENDBRANCH  12  35
BRANCH  10  37
ATOM     37  O   UNL     1       6.178   5.853   1.168  0.00  0.00    -0.506 OA
ATOM     38  H   UNL     1       6.645   6.204   0.397  0.00  0.00    +0.292 HD
ENDBRANCH  10  37
TORSDOF 10
