REMARK  Name = ZINC05573301
REMARK  12 active torsions:
REMARK  status: ('A' for Active; 'I' for Inactive)
REMARK    1  A    between atoms: C_1  and  C_2
REMARK    2  A    between atoms: C_4  and  O_42
REMARK    3  A    between atoms: C_6  and  N_67
REMARK    4  A    between atoms: C_9  and  O_12
REMARK    5  A    between atoms: O_12  and  C_13
REMARK    6  A    between atoms: C_16  and  C_39
REMARK    7  A    between atoms: C_17  and  C_38
REMARK    8  A    between atoms: C_20  and  O_37
REMARK    9  A    between atoms: C_23  and  O_24
REMARK   10  A    between atoms: C_31  and  O_35
REMARK   11  A    between atoms: O_35  and  C_36
REMARK   12  A    between atoms: C_39  and  C_41
REMARK                            x       y       z     vdW  Elec       q    Type
REMARK                         _______ _______ _______ _____ _____    ______ ____
ROOT
ATOM      1  C   UNL     1      -0.874   1.800  -6.102  0.00  0.00    +0.160 C 
ATOM      2  C   UNL     1      -1.921   0.755  -6.479  0.00  0.00    +0.075 C 
ATOM      3  C   UNL     1      -1.264  -0.482  -7.021  0.00  0.00    +0.001 C 
ATOM      4  C   UNL     1      -0.147  -0.392  -7.783  0.00  0.00    -0.033 C 
ATOM      5  C   UNL     1       0.425   0.932  -8.065  0.00  0.00    +0.030 A 
ATOM      6  C   UNL     1       0.077   2.012  -7.250  0.00  0.00    +0.035 A 
ATOM      7  C   UNL     1       0.607   3.272  -7.499  0.00  0.00    +0.135 A 
ATOM      8  C   UNL     1       1.491   3.465  -8.565  0.00  0.00    +0.078 A 
ATOM      9  C   UNL     1       1.846   2.380  -9.392  0.00  0.00    +0.079 A 
ATOM     10  C   UNL     1       1.313   1.113  -9.142  0.00  0.00    +0.136 A 
ATOM     11  C   UNL     1       2.777   2.580 -10.515  0.00  0.00    +0.198 C 
ATOM     12  O   UNL     1       3.080   1.644 -11.230  0.00  0.00    -0.286 OA
ATOM     13  C   UNL     1       3.341   3.921 -10.774  0.00  0.00    +0.037 A 
ATOM     14  C   UNL     1       4.223   4.120 -11.831  0.00  0.00    +0.012 A 
ATOM     15  C   UNL     1       4.751   5.378 -12.067  0.00  0.00    +0.004 A 
ATOM     16  C   UNL     1       4.408   6.445 -11.262  0.00  0.00    +0.046 A 
ATOM     17  C   UNL     1       3.527   6.270 -10.199  0.00  0.00    +0.132 A 
ATOM     18  C   UNL     1       2.987   5.004  -9.948  0.00  0.00    +0.075 A 
ATOM     19  C   UNL     1       2.053   4.804  -8.826  0.00  0.00    +0.202 C 
ATOM     20  O   UNL     1       1.746   5.741  -8.114  0.00  0.00    -0.286 OA
ATOM     21  C   UNL     1       0.501  -1.635  -8.336  0.00  0.00    +0.045 C 
ENDROOT
BRANCH   3  22
ATOM     22  C   UNL     1      -1.814  -1.750  -6.735  0.00  0.00    +0.157 C 
ATOM     23  O   UNL     1      -1.237  -2.757  -7.092  0.00  0.00    -0.293 OA
ATOM     24  C   UNL     1      -3.118  -1.853  -5.987  0.00  0.00    +0.091 C 
ENDBRANCH   3  22
BRANCH  10  25
ATOM     25  O   UNL     1       1.647   0.065  -9.931  0.00  0.00    -0.505 OA
ATOM     26  H   UNL     1       2.472  -0.371  -9.677  0.00  0.00    +0.292 HD
ENDBRANCH  10  25
BRANCH  17  27
ATOM     27  O   UNL     1       3.193   7.321  -9.411  0.00  0.00    -0.494 OA
ATOM     28  C   UNL     1       3.784   8.583  -9.728  0.00  0.00    +0.277 C 
ENDBRANCH  17  27
BRANCH   7  29
ATOM     29  O   UNL     1       0.265   4.317  -6.705  0.00  0.00    -0.506 OA
ATOM     30  H   UNL     1       0.848   4.439  -5.943  0.00  0.00    +0.292 HD
ENDBRANCH   7  29
BRANCH   1  31
ATOM     31  O   UNL     1      -0.144   1.349  -4.959  0.00  0.00    -0.343 OA
BRANCH  31  37
ATOM     32  C   UNL     1      -1.142   5.203  -2.379  0.00  0.00    +0.040 C 
ATOM     33  C   UNL     1      -1.232   3.675  -2.384  0.00  0.00    +0.145 C 
ATOM     34  C   UNL     1      -0.466   3.115  -1.183  0.00  0.00    +0.129 C 
ATOM     35  C   UNL     1      -0.510   1.584  -1.228  0.00  0.00    -0.039 C 
ATOM     36  C   UNL     1       0.071   1.107  -2.563  0.00  0.00    +0.048 C 
ATOM     37  C   UNL     1      -0.716   1.745  -3.711  0.00  0.00    +0.250 C 
ATOM     38  O   UNL     1      -0.660   3.168  -3.591  0.00  0.00    -0.346 OA
BRANCH  35  41
ATOM     39  H   UNL     1       0.278   0.027  -0.136  0.00  0.00    -0.090 HD
ATOM     40  H   UNL     1       1.231   1.391  -0.146  0.00  0.00    -0.090 HD
ATOM     41  N   UNL     1       0.274   1.046  -0.102  0.00  0.00    +0.382 N 
ATOM     42  H   UNL     1      -0.152   1.350   0.781  0.00  0.00    -0.090 HD
ENDBRANCH  35  41
BRANCH  34  43
ATOM     43  O   UNL     1       0.893   3.555  -1.235  0.00  0.00    -0.391 OA
ATOM     44  H   UNL     1       0.996   4.516  -1.210  0.00  0.00    +0.210 HD
ENDBRANCH  34  43
ENDBRANCH  31  37
ENDBRANCH   1  31
TORSDOF 8
