REMARK  Name = ZINC28559807
REMARK  10 active torsions:
REMARK  status: ('A' for Active; 'I' for Inactive)
REMARK    1  A    between atoms: C_1  and  C_2
REMARK    2  A    between atoms: C_2  and  O_3
REMARK    3  A    between atoms: O_3  and  C_4
REMARK    4  A    between atoms: N_17  and  C_18
REMARK    5  A    between atoms: C_18  and  C_19
REMARK    6  A    between atoms: C_19  and  N_20
REMARK    7  A    between atoms: C_26  and  C_28
REMARK    8  A    between atoms: C_29  and  N_35
REMARK    9  A    between atoms: C_30  and  C_34
REMARK   10  A    between atoms: N_32  and  C_33
REMARK                            x       y       z     vdW  Elec       q    Type
REMARK                         _______ _______ _______ _____ _____    ______ ____
ROOT
ATOM      1  C   UNL     1      -0.030   1.108   0.018  0.00  0.00    -0.057 C 
ENDROOT
BRANCH   1   2
ATOM      2  N   UNL     1      -0.735   1.589  -1.178  0.00  0.00    +0.383 N 
ATOM      3  C   UNL     1      -2.075   0.996  -1.273  0.00  0.00    -0.059 C 
ATOM      4  C   UNL     1      -2.841   1.656  -2.425  0.00  0.00    +0.089 C 
ATOM      5  N   UNL     1      -2.028   1.555  -3.646  0.00  0.00    -0.300 N 
ATOM      6  C   UNL     1      -0.629   2.004  -3.589  0.00  0.00    +0.089 C 
ATOM      7  C   UNL     1       0.051   1.330  -2.392  0.00  0.00    -0.059 C 
ATOM      8  C   UNL     1      -2.551   1.064  -4.787  0.00  0.00    +0.267 C 
ATOM      9  O   UNL     1      -1.895   1.074  -5.811  0.00  0.00    -0.268 OA
ATOM     10  H   UNL     1      -0.857   2.679  -1.085  0.00  0.00    -0.082 HD
BRANCH   8  11
ATOM     11  C   UNL     1      -3.916   0.514  -4.793  0.00  0.00    +0.154 A 
ATOM     12  C   UNL     1      -5.067   1.155  -5.217  0.00  0.00    +0.179 A 
ATOM     13  C   UNL     1      -6.096   0.228  -5.032  0.00  0.00    +0.091 A 
ATOM     14  N   UNL     1      -5.571  -0.860  -4.529  0.00  0.00    -0.174 NA
ATOM     15  N   UNL     1      -4.302  -0.729  -4.377  0.00  0.00    -0.260 N 
ATOM     16  C   UNL     1      -3.405  -1.755  -3.839  0.00  0.00    +0.173 C 
ATOM     17  C   UNL     1      -7.553   0.446  -5.348  0.00  0.00    +0.070 C 
BRANCH  12  18
ATOM     18  N   UNL     1      -5.184   2.529  -5.755  0.00  0.00    +0.061 N 
ATOM     19  O   UNL     1      -5.078   2.725  -6.953  0.00  0.00    -0.126 OA
ATOM     20  O   UNL     1      -5.385   3.463  -5.000  0.00  0.00    -0.126 OA
ENDBRANCH  12  18
ENDBRANCH   8  11
ENDBRANCH   1   2
BRANCH   1  21
ATOM     21  C   UNL     1      -0.749   1.611   1.271  0.00  0.00    +0.111 C 
BRANCH  21  35
ATOM     22  C   UNL     1      -0.404  -0.062   3.014  0.00  0.00    +0.302 A 
ATOM     23  N   UNL     1       0.208  -0.525   4.081  0.00  0.00    -0.189 NA
ATOM     24  C   UNL     1       1.188   0.163   4.657  0.00  0.00    +0.119 A 
ATOM     25  C   UNL     1       1.619   1.404   4.161  0.00  0.00    +0.076 A 
ATOM     26  C   UNL     1       2.708   2.045   4.901  0.00  0.00    -0.023 A 
ATOM     27  C   UNL     1       3.186   1.389   5.977  0.00  0.00    -0.004 A 
ATOM     28  S   UNL     1       2.230  -0.101   6.069  0.00  0.00    -0.073 S 
ATOM     29  C   UNL     1       4.287   1.828   6.893  0.00  0.00    +0.043 C 
ATOM     30  C   UNL     1       5.054   2.973   6.215  0.00  0.00    +0.005 C 
ATOM     31  C   UNL     1       4.043   3.991   5.678  0.00  0.00    +0.005 C 
ATOM     32  C   UNL     1       3.288   3.395   4.489  0.00  0.00    +0.037 C 
ATOM     33  C   UNL     1       0.938   1.879   2.995  0.00  0.00    +0.265 A 
ATOM     34  O   UNL     1       1.243   2.947   2.493  0.00  0.00    -0.267 OA
ATOM     35  N   UNL     1      -0.046   1.131   2.463  0.00  0.00    -0.264 N 
BRANCH  22  36
ATOM     36  O   UNL     1      -1.400  -0.781   2.454  0.00  0.00    -0.464 OA
BRANCH  36  38
ATOM     37  C   UNL     1      -2.873  -2.691   2.305  0.00  0.00    +0.048 C 
ATOM     38  C   UNL     1      -1.732  -2.025   3.076  0.00  0.00    +0.229 C 
ENDBRANCH  36  38
ENDBRANCH  22  36
ENDBRANCH  21  35
ENDBRANCH   1  21
TORSDOF 7
