REMARK  Name = ZINC37946605
REMARK  7 active torsions:
REMARK  status: ('A' for Active; 'I' for Inactive)
REMARK    1  A    between atoms: C_1  and  O_2
REMARK    2  A    between atoms: O_2  and  C_3
REMARK    3  A    between atoms: C_8  and  C_9
REMARK    4  A    between atoms: C_9  and  C_11
REMARK    5  A    between atoms: C_9  and  N_14
REMARK    6  A    between atoms: N_14  and  C_15
REMARK    7  A    between atoms: C_15  and  C_16
REMARK                            x       y       z     vdW  Elec       q    Type
REMARK                         _______ _______ _______ _____ _____    ______ ____
ROOT
ATOM      1  C   UNL     1       0.019  -2.829  -0.014  0.00  0.00    +0.051 C 
ENDROOT
BRANCH   1   7
ATOM      2  C   UNL     1      -1.200  -0.637   0.010  0.00  0.00    +0.122 A 
ATOM      3  C   UNL     1      -2.375   0.101   0.019  0.00  0.00    +0.047 A 
ATOM      4  C   UNL     1      -3.596  -0.544   0.028  0.00  0.00    +0.019 A 
ATOM      5  C   UNL     1      -3.648  -1.927   0.027  0.00  0.00    +0.018 A 
ATOM      6  C   UNL     1      -2.479  -2.666   0.018  0.00  0.00    +0.021 A 
ATOM      7  C   UNL     1      -1.255  -2.023   0.003  0.00  0.00    -0.010 A 
ATOM      8 BR   UNL     1      -5.321  -2.808   0.038  0.00  0.00    -0.050 Br
BRANCH   2  10
ATOM      9  C   UNL     1      -0.017   1.425   0.010  0.00  0.00    +0.277 C 
ATOM     10  O   UNL     1       0.002  -0.004   0.002  0.00  0.00    -0.495 OA
ENDBRANCH   2  10
ENDBRANCH   1   7
BRANCH   1  11
ATOM     11  C   UNL     1       0.523  -3.000   1.396  0.00  0.00    +0.201 C 
ATOM     12  O   UNL     1       0.652  -4.112   1.863  0.00  0.00    -0.277 OA
ATOM     13  N   UNL     1       0.832  -1.917   2.137  0.00  0.00    -0.330 N 
ATOM     14  H   UNL     1       0.729  -1.028   1.763  0.00  0.00    +0.145 HD
ATOM     15  H   UNL     1       1.157  -2.028   3.044  0.00  0.00    +0.145 HD
ENDBRANCH   1  11
BRANCH   1  16
ATOM     16  N   UNL     1      -0.244  -4.148  -0.604  0.00  0.00    +0.392 N 
ATOM     17  H   UNL     1      -0.877  -4.662  -0.009  0.00  0.00    -0.084 HD
ATOM     18  H   UNL     1      -0.659  -4.032  -1.516  0.00  0.00    -0.084 HD
BRANCH  16  19
ATOM     19  C   UNL     1       1.019  -4.888  -0.731  0.00  0.00    -0.038 C 
BRANCH  19  20
ATOM     20  C   UNL     1       0.750  -6.241  -1.336  0.00  0.00    -0.027 A 
ATOM     21  C   UNL     1       0.742  -6.607  -2.641  0.00  0.00    +0.009 A 
ATOM     22  C   UNL     1       0.466  -7.921  -2.967  0.00  0.00    +0.008 A 
ATOM     23  C   UNL     1       0.212  -8.806  -1.973  0.00  0.00    +0.045 A 
ATOM     24  S   UNL     1       0.366  -7.782  -0.519  0.00  0.00    -0.104 S 
ENDBRANCH  19  20
ENDBRANCH  16  19
ENDBRANCH   1  16
TORSDOF 6
