REMARK  Name = ZINC65408777
REMARK  11 active torsions:
REMARK  status: ('A' for Active; 'I' for Inactive)
REMARK    1  A    between atoms: C_1  and  C_2
REMARK    2  A    between atoms: C_2  and  N_3
REMARK    3  A    between atoms: N_3  and  C_4
REMARK    4  A    between atoms: N_3  and  C_6
REMARK    5  A    between atoms: C_4  and  C_5
REMARK    6  A    between atoms: C_6  and  C_7
REMARK    7  A    between atoms: C_6  and  C_22
REMARK    8  A    between atoms: C_7  and  N_8
REMARK    9  A    between atoms: N_11  and  C_12
REMARK   10  A    between atoms: C_17  and  C_18
REMARK   11  A    between atoms: C_18  and  C_19
REMARK                            x       y       z     vdW  Elec       q    Type
REMARK                         _______ _______ _______ _____ _____    ______ ____
ROOT
ATOM      1  N   UNL     1       2.693  -1.768  -2.410  0.00  0.00    -0.300 N 
ATOM      2  C   UNL     1       3.488  -1.933  -3.487  0.00  0.00    +0.304 C 
ATOM      3  O   UNL     1       3.043  -2.439  -4.499  0.00  0.00    -0.253 OA
ATOM      4  N   UNL     1       4.775  -1.536  -3.441  0.00  0.00    -0.269 N 
ATOM      5  H   UNL     1       3.048  -1.364  -1.603  0.00  0.00    +0.150 HD
ATOM      6  H   UNL     1       5.149  -1.196  -2.613  0.00  0.00    +0.156 HD
ENDROOT
BRANCH   4   7
ATOM      7  C   UNL     1       5.572  -1.614  -4.589  0.00  0.00    +0.038 A 
ATOM      8  C   UNL     1       5.284  -2.550  -5.574  0.00  0.00    +0.023 A 
ATOM      9  C   UNL     1       6.072  -2.624  -6.705  0.00  0.00    +0.002 A 
ATOM     10  C   UNL     1       7.148  -1.768  -6.858  0.00  0.00    +0.000 A 
ATOM     11  C   UNL     1       7.438  -0.836  -5.879  0.00  0.00    +0.006 A 
ATOM     12  C   UNL     1       6.649  -0.752  -4.747  0.00  0.00    -0.017 A 
BRANCH  12  13
ATOM     13  C   UNL     1       6.962   0.268  -3.684  0.00  0.00    +0.132 C 
BRANCH  13  14
ATOM     14  C   UNL     1       7.813  -0.366  -2.614  0.00  0.00    +0.215 C 
ATOM     15  O   UNL     1       8.134  -1.532  -2.706  0.00  0.00    -0.276 OA
ATOM     16  N   UNL     1       8.217   0.363  -1.554  0.00  0.00    -0.329 N 
ATOM     17  H   UNL     1       7.960   1.295  -1.480  0.00  0.00    +0.145 HD
ATOM     18  H   UNL     1       8.765  -0.045  -0.866  0.00  0.00    +0.145 HD
ENDBRANCH  13  14
ENDBRANCH  12  13
ENDBRANCH   4   7
BRANCH   1  19
ATOM     19  C   UNL     1       1.294  -2.200  -2.460  0.00  0.00    +0.098 C 
BRANCH  19  20
ATOM     20  C   UNL     1       0.587  -1.787  -1.167  0.00  0.00    +0.016 C 
BRANCH  20  21
ATOM     21  C   UNL     1      -0.870  -2.164  -1.249  0.00  0.00    +0.093 A 
ATOM     22  C   UNL     1      -1.469  -3.144  -0.550  0.00  0.00    +0.043 A 
ATOM     23  C   UNL     1      -2.830  -3.148  -0.935  0.00  0.00    +0.041 A 
ATOM     24  C   UNL     1      -2.980  -2.170  -1.846  0.00  0.00    +0.195 A 
ATOM     25  O   UNL     1      -1.790  -1.573  -2.028  0.00  0.00    -0.469 OA
ENDBRANCH  20  21
BRANCH  20  26
ATOM     26  N   UNL     1       0.709  -0.335  -0.985  0.00  0.00    +0.387 N 
ATOM     27  H   UNL     1       1.684  -0.084  -0.923  0.00  0.00    -0.081 HD
BRANCH  26  29
ATOM     28  C   UNL     1       0.355   1.859  -2.015  0.00  0.00    -0.017 C 
ATOM     29  C   UNL     1       0.097   0.355  -2.128  0.00  0.00    -0.081 C 
ENDBRANCH  26  29
BRANCH  26  30
ATOM     30  C   UNL     1       0.021   0.062   0.251  0.00  0.00    -0.081 C 
ATOM     31  C   UNL     1       0.743  -0.546   1.455  0.00  0.00    -0.017 C 
ENDBRANCH  26  30
ENDBRANCH  20  26
ENDBRANCH  19  20
ENDBRANCH   1  19
TORSDOF 9
