REMARK  Name = ZINC05797567
REMARK  7 active torsions:
REMARK  status: ('A' for Active; 'I' for Inactive)
REMARK    1  A    between atoms: C_1  and  C_2
REMARK    2  A    between atoms: C_2  and  C_3
REMARK    3  A    between atoms: N_9  and  C1*_18
REMARK    4  A    between atoms: C2*_20  and  O2*_30
REMARK    5  A    between atoms: C3*_22  and  O3*_29
REMARK    6  A    between atoms: C4*_24  and  C5*_27
REMARK    7  A    between atoms: C5*_27  and  O5*_28
REMARK                            x       y       z     vdW  Elec       q    Type
REMARK                         _______ _______ _______ _____ _____    ______ ____
ROOT
ATOM      1  C   UNL     1      -2.411   3.616  -0.228  0.00  0.00    +0.133 A 
ATOM      2  N   UNL     1      -1.265   2.961  -0.271  0.00  0.00    -0.215 NA
ATOM      3  C   UNL     1      -1.228   1.635  -0.206  0.00  0.00    +0.148 A 
ATOM      4  C   UNL     1      -2.440   0.936  -0.079  0.00  0.00    +0.149 A 
ATOM      5  C   UNL     1      -3.631   1.678  -0.032  0.00  0.00    +0.169 A 
ATOM      6  N   UNL     1      -3.570   3.003  -0.110  0.00  0.00    -0.212 NA
ATOM      7  N   UNL     1      -4.649   0.761   0.092  0.00  0.00    -0.267 N 
ATOM      8  C   UNL     1      -4.079  -0.482   0.119  0.00  0.00    +0.203 A 
ATOM      9  N   UNL     1      -2.777  -0.374   0.018  0.00  0.00    -0.209 NA
ATOM     10  N   UNL     1      -4.771  -1.671   0.235  0.00  0.00    -0.301 N 
ATOM     11  C   UNL     1      -4.400  -2.378   1.468  0.00  0.00    +0.108 C 
ATOM     12  C   UNL     1      -5.288  -3.613   1.635  0.00  0.00    +0.019 C 
ATOM     13  C   UNL     1      -5.109  -4.532   0.424  0.00  0.00    +0.003 C 
ATOM     14  C   UNL     1      -5.455  -3.758  -0.851  0.00  0.00    +0.019 C 
ATOM     15  C   UNL     1      -4.562  -2.518  -0.946  0.00  0.00    +0.108 C 
ATOM     16  N   UNL     1      -0.021   0.956  -0.256  0.00  0.00    -0.341 N 
ATOM     17  H   UNL     1       0.102   0.431   0.587  0.00  0.00    +0.144 HD
ATOM     18  H   UNL     1       0.809   1.449  -0.348  0.00  0.00    +0.144 HD
ENDROOT
BRANCH   7  19
ATOM     19  C1* UNL     1      -6.080   1.060   0.181  0.00  0.00    +0.255 C 
ATOM     20  C2* UNL     1      -6.631   1.466  -1.205  0.00  0.00    +0.195 C 
ATOM     21  C3* UNL     1      -7.659   2.575  -0.890  0.00  0.00    +0.178 C 
ATOM     22  C4* UNL     1      -7.607   2.709   0.648  0.00  0.00    +0.177 C 
ATOM     23  O4* UNL     1      -6.301   2.216   1.018  0.00  0.00    -0.346 OA
BRANCH  21  24
ATOM     24  O3* UNL     1      -7.278   3.803  -1.515  0.00  0.00    -0.386 OA
ATOM     25  H3* UNL     1      -7.888   4.534  -1.350  0.00  0.00    +0.210 HD
ENDBRANCH  21  24
BRANCH  20  26
ATOM     26  O2* UNL     1      -7.271   0.354  -1.834  0.00  0.00    -0.385 OA
ATOM     27  H2* UNL     1      -7.636   0.552  -2.707  0.00  0.00    +0.210 HD
ENDBRANCH  20  26
BRANCH  22  28
ATOM     28  C5* UNL     1      -7.762   4.175   1.061  0.00  0.00    +0.190 C 
BRANCH  28  29
ATOM     29  O5* UNL     1      -7.829   4.264   2.486  0.00  0.00    -0.392 OA
ATOM     30  H5* UNL     1      -7.927   5.166   2.819  0.00  0.00    +0.210 HD
ENDBRANCH  28  29
ENDBRANCH  22  28
ENDBRANCH   7  19
BRANCH   1  32
ATOM     31  C   UNL     1      -2.279   5.708   1.096  0.00  0.00    +0.012 C 
ATOM     32  C   UNL     1      -2.391   5.121  -0.312  0.00  0.00    +0.073 C 
ENDBRANCH   1  32
TORSDOF 6
