REMARK  Name = ZINC63383926
REMARK  11 active torsions:
REMARK  status: ('A' for Active; 'I' for Inactive)
REMARK    1  A    between atoms: C_1  and  C_2
REMARK    2  A    between atoms: C_2  and  C_3
REMARK    3  A    between atoms: C_3  and  C_5
REMARK    4  A    between atoms: C_3  and  C_6
REMARK    5  A    between atoms: C_6  and  C_8
REMARK    6  A    between atoms: C_6  and  N_15
REMARK    7  A    between atoms: N_10  and  C_11
REMARK    8  A    between atoms: C_11  and  C_12
REMARK    9  A    between atoms: C_12  and  C_13
REMARK   10  A    between atoms: C_12  and  C_14
REMARK   11  A    between atoms: C_16  and  C_18
REMARK                            x       y       z     vdW  Elec       q    Type
REMARK                         _______ _______ _______ _____ _____    ______ ____
ROOT
ATOM      1  C   UNL     1      -4.612  -2.995   2.179  0.00  0.00    +0.167 C 
ATOM      2  C   UNL     1      -5.159  -2.399   3.491  0.00  0.00    +0.065 C 
ATOM      3  C   UNL     1      -4.261  -2.877   4.606  0.00  0.00    -0.034 C 
ATOM      4  C   UNL     1      -3.616  -2.203   5.552  0.00  0.00    -0.001 A 
ATOM      5  C   UNL     1      -3.619  -0.776   5.910  0.00  0.00    +0.010 A 
ATOM      6  C   UNL     1      -2.811  -0.415   6.942  0.00  0.00    +0.001 A 
ATOM      7  C   UNL     1      -2.011  -1.321   7.646  0.00  0.00    +0.002 A 
ATOM      8  C   UNL     1      -1.953  -2.652   7.390  0.00  0.00    +0.026 A 
ATOM      9  C   UNL     1      -2.764  -3.152   6.330  0.00  0.00    +0.043 A 
ATOM     10  N   UNL     1      -2.917  -4.365   5.889  0.00  0.00    -0.375 N 
ATOM     11  C   UNL     1      -3.917  -4.347   4.820  0.00  0.00    +0.131 C 
ATOM     12  C   UNL     1      -3.337  -4.854   3.495  0.00  0.00    +0.134 C 
ATOM     13  N   UNL     1      -4.247  -4.397   2.417  0.00  0.00    -0.276 N 
ATOM     14  C   UNL     1      -4.678  -5.468   1.726  0.00  0.00    +0.248 C 
ATOM     15  O   UNL     1      -5.378  -5.420   0.733  0.00  0.00    -0.270 OA
ATOM     16  C   UNL     1      -4.181  -6.700   2.342  0.00  0.00    +0.042 A 
ATOM     17  C   UNL     1      -3.344  -6.348   3.447  0.00  0.00    -0.013 A 
ATOM     18  C   UNL     1      -2.724  -7.293   4.233  0.00  0.00    +0.006 A 
ATOM     19  C   UNL     1      -2.942  -8.628   3.906  0.00  0.00    +0.000 A 
ATOM     20  C   UNL     1      -3.740  -8.995   2.841  0.00  0.00    +0.001 A 
ATOM     21  C   UNL     1      -4.401  -8.040   2.011  0.00  0.00    +0.013 A 
ATOM     22  H   UNL     1      -2.447  -5.150   6.213  0.00  0.00    +0.160 HD
ENDROOT
BRANCH   1  24
ATOM     23  N   UNL     1      -3.493  -0.905   1.473  0.00  0.00    -0.302 N 
ATOM     24  C   UNL     1      -3.395  -2.222   1.740  0.00  0.00    +0.235 C 
ATOM     25  O   UNL     1      -2.327  -2.785   1.628  0.00  0.00    -0.274 OA
ATOM     26  H   UNL     1      -4.348  -0.454   1.563  0.00  0.00    +0.150 HD
BRANCH  23  27
ATOM     27  C   UNL     1      -2.310  -0.153   1.047  0.00  0.00    +0.162 C 
BRANCH  27  28
ATOM     28  C   UNL     1      -2.487   1.302   1.395  0.00  0.00    +0.234 C 
ATOM     29  O   UNL     1      -3.596   1.745   1.606  0.00  0.00    -0.274 OA
ATOM     30  N   UNL     1      -1.412   2.112   1.472  0.00  0.00    -0.314 N 
ATOM     31  H   UNL     1      -0.533   1.774   1.240  0.00  0.00    +0.149 HD
BRANCH  30  32
ATOM     32  C   UNL     1      -1.572   3.502   1.906  0.00  0.00    +0.107 C 
BRANCH  32  33
ATOM     33  C   UNL     1      -0.233   4.232   1.782  0.00  0.00    -0.000 C 
ATOM     34  C   UNL     1       0.198   4.261   0.314  0.00  0.00    +0.009 C 
ATOM     35  C   UNL     1      -0.384   5.665   2.298  0.00  0.00    +0.009 C 
ENDBRANCH  32  33
ENDBRANCH  30  32
ENDBRANCH  27  28
BRANCH  27  36
ATOM     36  C   UNL     1      -2.132  -0.298  -0.466  0.00  0.00    +0.015 C 
ATOM     37  C   UNL     1      -3.424   0.116  -1.173  0.00  0.00    +0.010 C 
BRANCH  36  39
ATOM     38  C   UNL     1      -0.442  -2.122  -0.225  0.00  0.00    +0.004 C 
ATOM     39  C   UNL     1      -1.809  -1.754  -0.805  0.00  0.00    +0.002 C 
ENDBRANCH  36  39
ENDBRANCH  27  36
ENDBRANCH  23  27
ENDBRANCH   1  24
TORSDOF 7
