REMARK  Name = ZINC36631814
REMARK  8 active torsions:
REMARK  status: ('A' for Active; 'I' for Inactive)
REMARK    1  A    between atoms: C_1  and  C_2
REMARK    2  A    between atoms: C_5  and  S_8
REMARK    3  A    between atoms: S_8  and  N_11
REMARK    4  A    between atoms: N_11  and  C_12
REMARK    5  A    between atoms: C_17  and  C_18
REMARK    6  A    between atoms: C_18  and  N_20
REMARK    7  A    between atoms: N_22  and  C_34
REMARK    8  A    between atoms: C_34  and  C_35
REMARK                            x       y       z     vdW  Elec       q    Type
REMARK                         _______ _______ _______ _____ _____    ______ ____
ROOT
ATOM      1  C   UNL     1       4.316  -4.217  -0.652  0.00  0.00    +0.271 C 
ATOM      2  O   UNL     1       3.582  -4.545  -1.569  0.00  0.00    -0.268 OA
ENDROOT
BRANCH   1   3
ATOM      3  N   UNL     1       5.575  -3.844  -0.903  0.00  0.00    -0.152 NA
ATOM      4  C   UNL     1       6.027  -3.829  -2.153  0.00  0.00    +0.168 A 
ATOM      5  N   UNL     1       7.267  -3.487  -2.588  0.00  0.00    -0.310 N 
ATOM      6  C   UNL     1       7.559  -3.533  -3.939  0.00  0.00    +0.059 A 
ATOM      7  C   UNL     1       8.775  -3.220  -4.589  0.00  0.00    +0.027 A 
ATOM      8  C   UNL     1       8.909  -3.315  -5.933  0.00  0.00    +0.010 A 
ATOM      9  C   UNL     1       7.835  -3.732  -6.739  0.00  0.00    -0.017 A 
ATOM     10  C   UNL     1       7.958  -3.836  -8.133  0.00  0.00    +0.008 A 
ATOM     11  C   UNL     1       6.893  -4.245  -8.876  0.00  0.00    +0.001 A 
ATOM     12  C   UNL     1       5.679  -4.562  -8.271  0.00  0.00    +0.001 A 
ATOM     13  C   UNL     1       5.524  -4.473  -6.921  0.00  0.00    +0.009 A 
ATOM     14  C   UNL     1       6.599  -4.055  -6.121  0.00  0.00    -0.002 A 
ATOM     15  C   UNL     1       6.492  -3.947  -4.732  0.00  0.00    +0.047 A 
ATOM     16  S   UNL     1       5.197  -4.238  -3.556  0.00  0.00    -0.051 S 
BRANCH   5  17
ATOM     17  C   UNL     1       8.292  -3.068  -1.629  0.00  0.00    +0.212 C 
BRANCH  17  18
ATOM     18  C   UNL     1       9.047  -4.247  -1.173  0.00  0.00    -0.084 C 
ATOM     19  C   UNL     1       9.650  -5.187  -0.810  0.00  0.00    +0.005 C 
ENDBRANCH  17  18
ENDBRANCH   5  17
ENDBRANCH   1   3
BRANCH   1  25
ATOM     20  C   UNL     1       2.493  -4.625   1.006  0.00  0.00    +0.060 A 
ATOM     21  C   UNL     1       2.034  -4.641   2.317  0.00  0.00    +0.025 A 
ATOM     22  C   UNL     1       2.872  -4.268   3.348  0.00  0.00    +0.002 A 
ATOM     23  C   UNL     1       4.175  -3.876   3.085  0.00  0.00    +0.001 A 
ATOM     24  C   UNL     1       4.647  -3.854   1.791  0.00  0.00    +0.015 A 
ATOM     25  C   UNL     1       3.813  -4.233   0.738  0.00  0.00    +0.061 A 
BRANCH  20  26
ATOM     26  N   UNL     1       1.651  -4.999  -0.034  0.00  0.00    -0.216 N 
ATOM     27  H   UNL     1       2.007  -5.479  -0.798  0.00  0.00    +0.174 HD
BRANCH  26  28
ATOM     28  S   UNL     1       0.038  -4.628   0.031  0.00  0.00    +0.072 S 
ATOM     29  O   UNL     1      -0.444  -5.128   1.271  0.00  0.00    -0.150 OA
ATOM     30  O   UNL     1      -0.519  -5.017  -1.216  0.00  0.00    -0.150 OA
BRANCH  28  35
ATOM     31  C   UNL     1      -0.400   1.383   0.312  0.00  0.00    +0.044 C 
ATOM     32  C   UNL     1      -0.290  -0.118   0.242  0.00  0.00    -0.050 A 
ATOM     33  C   UNL     1      -0.275  -0.753  -0.985  0.00  0.00    +0.005 A 
ATOM     34  C   UNL     1      -0.175  -2.130  -1.050  0.00  0.00    +0.029 A 
ATOM     35  C   UNL     1      -0.089  -2.872   0.113  0.00  0.00    +0.109 A 
ATOM     36  C   UNL     1      -0.103  -2.237   1.341  0.00  0.00    +0.029 A 
ATOM     37  C   UNL     1      -0.199  -0.859   1.405  0.00  0.00    +0.005 A 
ENDBRANCH  28  35
ENDBRANCH  26  28
ENDBRANCH  20  26
ENDBRANCH   1  25
TORSDOF 7
