REMARK  Name = ZINC03646115
REMARK  12 active torsions:
REMARK  status: ('A' for Active; 'I' for Inactive)
REMARK    1  A    between atoms: C_1  and  C_2
REMARK    2  A    between atoms: C_2  and  O_3
REMARK    3  A    between atoms: O_3  and  C_4
REMARK    4  A    between atoms: C_9  and  C_10
REMARK    5  A    between atoms: C_11  and  C_12
REMARK    6  A    between atoms: N_14  and  C_15
REMARK    7  A    between atoms: C_21  and  N_29
REMARK    8  A    between atoms: N_29  and  C_30
REMARK    9  A    between atoms: C_33  and  O_38
REMARK   10  A    between atoms: C_34  and  O_36
REMARK   11  A    between atoms: O_36  and  C_37
REMARK   12  A    between atoms: O_38  and  C_39
REMARK                            x       y       z     vdW  Elec       q    Type
REMARK                         _______ _______ _______ _____ _____    ______ ____
ROOT
ATOM      1  C   UNL     1      -9.279   3.370   7.594  0.00  0.00    +0.034 A 
ATOM      2  C   UNL     1      -9.857   3.571   6.336  0.00  0.00    +0.025 A 
ATOM      3  C   UNL     1      -9.709   4.752   5.679  0.00  0.00    +0.028 A 
ATOM      4  C   UNL     1      -8.967   5.794   6.263  0.00  0.00    +0.049 A 
ATOM      5  C   UNL     1      -8.382   5.596   7.536  0.00  0.00    +0.021 A 
ATOM      6  C   UNL     1      -8.551   4.373   8.198  0.00  0.00    +0.035 A 
ATOM      7  C   UNL     1      -7.640   6.652   8.112  0.00  0.00    +0.045 A 
ATOM      8  C   UNL     1      -7.514   7.839   7.397  0.00  0.00    -0.006 A 
ATOM      9  C   UNL     1      -8.111   7.959   6.155  0.00  0.00    +0.021 A 
ATOM     10  N   UNL     1      -8.806   6.960   5.636  0.00  0.00    -0.358 N 
ATOM     11  C   UNL     1      -8.001   9.217   5.330  0.00  0.00    +0.053 C 
ATOM     12  C   UNL     1      -7.572  10.395   6.202  0.00  0.00    +0.006 C 
ATOM     13  C   UNL     1      -6.319   9.989   6.985  0.00  0.00    +0.005 C 
ATOM     14  C   UNL     1      -6.723   8.952   8.032  0.00  0.00    +0.039 C 
ATOM     15  H   UNL     1      -9.260   7.121   4.647  0.00  0.00    +0.166 HD
ENDROOT
BRANCH   1  18
ATOM     16  C   UNL     1      -9.483   1.001   7.535  0.00  0.00    +0.241 C 
ATOM     17  O   UNL     1      -9.451   1.040   6.319  0.00  0.00    -0.270 OA
ATOM     18  N   UNL     1      -9.447   2.144   8.248  0.00  0.00    -0.282 N 
ATOM     19  H   UNL     1      -9.550   2.114   9.342  0.00  0.00    +0.155 HD
BRANCH  16  21
ATOM     20  C   UNL     1      -9.597  -1.433   7.511  0.00  0.00    +0.016 C 
ATOM     21  C   UNL     1      -9.561  -0.287   8.224  0.00  0.00    +0.068 C 
BRANCH  20  27
ATOM     22  C   UNL     1      -9.712  -3.921   7.465  0.00  0.00    +0.128 A 
ATOM     23  C   UNL     1      -9.780  -5.136   8.129  0.00  0.00    +0.046 A 
ATOM     24  C   UNL     1      -9.815  -5.170   9.510  0.00  0.00    +0.004 A 
ATOM     25  C   UNL     1      -9.784  -3.994  10.242  0.00  0.00    +0.001 A 
ATOM     26  C   UNL     1      -9.717  -2.776   9.600  0.00  0.00    +0.011 A 
ATOM     27  C   UNL     1      -9.675  -2.727   8.202  0.00  0.00    +0.017 A 
BRANCH  22  28
ATOM     28  O   UNL     1      -9.677  -3.886   6.109  0.00  0.00    -0.492 OA
BRANCH  28  30
ATOM     29  C   UNL     1      -9.665  -4.902   3.917  0.00  0.00    +0.048 C 
ATOM     30  C   UNL     1      -9.712  -5.141   5.427  0.00  0.00    +0.226 C 
ENDBRANCH  28  30
ENDBRANCH  22  28
ENDBRANCH  20  27
ENDBRANCH  16  21
ENDBRANCH   1  18
BRANCH   7  31
ATOM     31  N   UNL     1      -7.052   6.508   9.360  0.00  0.00    -0.314 N 
ATOM     32  H   UNL     1      -7.604   6.803  10.265  0.00  0.00    +0.152 HD
BRANCH  31  33
ATOM     33  C   UNL     1      -5.758   5.989   9.468  0.00  0.00    +0.035 A 
ATOM     34  C   UNL     1      -5.020   5.719   8.323  0.00  0.00    +0.027 A 
ATOM     35  C   UNL     1      -3.739   5.210   8.428  0.00  0.00    +0.051 A 
ATOM     36  C   UNL     1      -3.192   4.959   9.676  0.00  0.00    +0.162 A 
ATOM     37  C   UNL     1      -3.931   5.223  10.825  0.00  0.00    +0.163 A 
ATOM     38  C   UNL     1      -5.212   5.738  10.720  0.00  0.00    +0.072 A 
BRANCH  37  39
ATOM     39  O   UNL     1      -3.394   4.977  12.050  0.00  0.00    -0.491 OA
ATOM     40  C   UNL     1      -4.209   5.272  13.187  0.00  0.00    +0.277 C 
ENDBRANCH  37  39
BRANCH  36  41
ATOM     41  O   UNL     1      -1.933   4.453   9.777  0.00  0.00    -0.491 OA
ATOM     42  C   UNL     1      -1.233   4.205   8.556  0.00  0.00    +0.277 C 
ENDBRANCH  36  41
ENDBRANCH  31  33
ENDBRANCH   7  31
TORSDOF 9
