REMARK  Name = ZINC64540077
REMARK  7 active torsions:
REMARK  status: ('A' for Active; 'I' for Inactive)
REMARK    1  A    between atoms: C_1  and  C_2
REMARK    2  A    between atoms: C_8  and  C_11
REMARK    3  A    between atoms: C_11  and  C_12
REMARK    4  A    between atoms: C_12  and  N_13
REMARK    5  A    between atoms: C_14  and  C_16
REMARK    6  A    between atoms: C_19  and  C_26
REMARK    7  A    between atoms: N_21  and  C_25
REMARK                            x       y       z     vdW  Elec       q    Type
REMARK                         _______ _______ _______ _____ _____    ______ ____
ROOT
ATOM      1  N   UNL     1      -1.377  -2.600   5.613  0.00  0.00    -0.311 N 
ATOM      2  C   UNL     1      -2.537  -2.599   6.299  0.00  0.00    +0.250 C 
ATOM      3  O   UNL     1      -3.588  -2.809   5.719  0.00  0.00    -0.270 OA
ATOM      4  H   UNL     1      -0.540  -2.433   6.075  0.00  0.00    +0.149 HD
ENDROOT
BRANCH   2   5
ATOM      5  C   UNL     1      -2.535  -2.354   7.695  0.00  0.00    +0.072 C 
ATOM      6  C   UNL     1      -3.604  -2.319   8.551  0.00  0.00    +0.028 C 
ATOM      7  C   UNL     1      -3.425  -2.090   9.904  0.00  0.00    +0.005 C 
ATOM      8  C   UNL     1      -3.918  -2.256  11.171  0.00  0.00    +0.054 C 
ATOM      9  N   UNL     1      -2.895  -2.162  12.097  0.00  0.00    -0.276 N 
ATOM     10  N   UNL     1      -1.690  -1.981  11.451  0.00  0.00    -0.215 NA
ATOM     11  C   UNL     1      -2.090  -1.364  10.179  0.00  0.00    +0.169 C 
ATOM     12  S   UNL     1      -1.131  -2.023   8.759  0.00  0.00    -0.095 S 
ATOM     13  C   UNL     1      -0.811  -1.087  12.216  0.00  0.00    +0.129 C 
ATOM     14  H   UNL     1      -3.008  -2.216  13.059  0.00  0.00    +0.167 HD
BRANCH   8  15
ATOM     15  C   UNL     1      -5.335  -2.499  11.500  0.00  0.00    -0.003 A 
ATOM     16  C   UNL     1      -6.288  -2.580  10.481  0.00  0.00    +0.011 A 
ATOM     17  C   UNL     1      -7.611  -2.808  10.796  0.00  0.00    +0.020 A 
ATOM     18  C   UNL     1      -7.996  -2.956  12.119  0.00  0.00    +0.041 A 
ATOM     19  C   UNL     1      -7.056  -2.876  13.133  0.00  0.00    +0.020 A 
ATOM     20  C   UNL     1      -5.729  -2.655  12.832  0.00  0.00    +0.011 A 
ATOM     21 CL   UNL     1      -9.664  -3.242  12.506  0.00  0.00    -0.084 Cl
ENDBRANCH   8  15
ENDBRANCH   2   5
BRANCH   1  22
ATOM     22  C   UNL     1      -1.379  -2.854   4.170  0.00  0.00    +0.109 C 
BRANCH  22  23
ATOM     23  C   UNL     1       0.055  -2.799   3.641  0.00  0.00    +0.052 C 
BRANCH  23  31
ATOM     24  C   UNL     1      -0.018   1.503   0.010  0.00  0.00    +0.044 C 
ATOM     25  C   UNL     1       0.002  -0.004   0.002  0.00  0.00    -0.050 A 
ATOM     26  C   UNL     1       0.005  -0.680  -1.226  0.00  0.00    +0.005 A 
ATOM     27  C   UNL     1       0.023  -2.026  -1.317  0.00  0.00    +0.026 A 
ATOM     28  C   UNL     1       0.039  -2.826  -0.141  0.00  0.00    +0.043 A 
ATOM     29  N   UNL     1       0.057  -4.126   0.030  0.00  0.00    -0.380 N 
ATOM     30  C   UNL     1       0.067  -4.408   1.470  0.00  0.00    +0.144 C 
ATOM     31  C   UNL     1       0.052  -3.060   2.156  0.00  0.00    -0.040 C 
ATOM     32  C   UNL     1       0.036  -2.137   1.168  0.00  0.00    -0.001 A 
ATOM     33  C   UNL     1       0.022  -0.669   1.180  0.00  0.00    +0.013 A 
ATOM     34  H   UNL     1       0.062  -4.790  -0.677  0.00  0.00    +0.160 HD
ENDBRANCH  23  31
ENDBRANCH  22  23
ENDBRANCH   1  22
TORSDOF 5
