REMARK  Name = ZINC55086744
REMARK  4 active torsions:
REMARK  status: ('A' for Active; 'I' for Inactive)
REMARK    1  A    between atoms: C_3  and  C_10
REMARK    2  A    between atoms: C_6  and  N_9
REMARK    3  A    between atoms: N_12  and  C_13
REMARK    4  A    between atoms: C_13  and  C_14
REMARK                            x       y       z     vdW  Elec       q    Type
REMARK                         _______ _______ _______ _____ _____    ______ ____
ROOT
ATOM      1  C   UNL     1      -0.019   1.526   0.010  0.00  0.00    -0.001 C 
ATOM      2  C   UNL     1       1.417   2.055  -0.000  0.00  0.00    +0.012 C 
ATOM      3  C   UNL     1       2.133   1.562  -1.259  0.00  0.00    +0.073 C 
ATOM      4  C   UNL     1       2.154   0.032  -1.268  0.00  0.00    -0.004 C 
ATOM      5  C   UNL     1       0.718  -0.497  -1.257  0.00  0.00    -0.074 C 
ATOM      6  C   UNL     1       0.002  -0.004   0.002  0.00  0.00    -0.016 C 
ENDROOT
BRANCH   5   7
ATOM      7  N   UNL     1       0.738  -1.966  -1.265  0.00  0.00    +0.380 N 
ATOM      8  H   UNL     1       1.226  -2.301  -0.447  0.00  0.00    -0.090 HD
ATOM      9  H   UNL     1      -0.208  -2.316  -1.258  0.00  0.00    -0.090 HD
ATOM     10  H   UNL     1       1.210  -2.292  -2.095  0.00  0.00    -0.090 HD
ENDBRANCH   5   7
BRANCH   3  11
ATOM     11  C   UNL     1       3.547   2.084  -1.270  0.00  0.00    +0.216 C 
ATOM     12  O   UNL     1       4.479   1.308  -1.283  0.00  0.00    -0.276 OA
ATOM     13  N   UNL     1       3.775   3.412  -1.265  0.00  0.00    -0.307 N 
ATOM     14  H   UNL     1       3.029   4.032  -1.254  0.00  0.00    +0.149 HD
BRANCH  13  15
ATOM     15  C   UNL     1       5.149   3.919  -1.275  0.00  0.00    +0.217 C 
BRANCH  15  16
ATOM     16  C   UNL     1       5.129   5.449  -1.267  0.00  0.00    +0.405 C 
ATOM     17  F   UNL     1       4.474   5.900  -0.116  0.00  0.00    -0.169 F 
ATOM     18  F   UNL     1       6.441   5.933  -1.277  0.00  0.00    -0.169 F 
ATOM     19  F   UNL     1       4.452   5.912  -2.400  0.00  0.00    -0.169 F 
ENDBRANCH  15  16
ENDBRANCH  13  15
ENDBRANCH   3  11
TORSDOF 4
