REMARK  Name = ZINC59891851
REMARK  12 active torsions:
REMARK  status: ('A' for Active; 'I' for Inactive)
REMARK    1  A    between atoms: C_1  and  C_2
REMARK    2  A    between atoms: C_2  and  N_3
REMARK    3  A    between atoms: C_7  and  N_10
REMARK    4  A    between atoms: C_11  and  C_13
REMARK    5  A    between atoms: C_13  and  C_15
REMARK    6  A    between atoms: C_13  and  N_19
REMARK    7  A    between atoms: C_15  and  C_16
REMARK    8  A    between atoms: C_16  and  C_17
REMARK    9  A    between atoms: C_16  and  C_18
REMARK   10  A    between atoms: N_19  and  S_20
REMARK   11  A    between atoms: S_20  and  C_23
REMARK   12  A    between atoms: C_26  and  C_29
REMARK                            x       y       z     vdW  Elec       q    Type
REMARK                         _______ _______ _______ _____ _____    ______ ____
ROOT
ATOM      1  C   UNL     1      -3.509  -5.792   1.447  0.00  0.00    +0.162 C 
ENDROOT
BRANCH   1   3
ATOM      2  N   UNL     1      -2.310  -4.117   0.078  0.00  0.00    -0.313 N 
ATOM      3  C   UNL     1      -3.460  -4.506   0.664  0.00  0.00    +0.232 C 
ATOM      4  O   UNL     1      -4.455  -3.821   0.560  0.00  0.00    -0.274 OA
ATOM      5  H   UNL     1      -1.514  -4.665   0.160  0.00  0.00    +0.149 HD
BRANCH   2  10
ATOM      6  N   UNL     1      -0.776  -1.087  -1.476  0.00  0.00    +0.381 N 
ATOM      7  C   UNL     1      -1.159  -1.339  -2.871  0.00  0.00    -0.079 C 
ATOM      8  C   UNL     1      -2.608  -1.828  -2.926  0.00  0.00    -0.017 C 
ATOM      9  C   UNL     1      -2.734  -3.123  -2.118  0.00  0.00    +0.018 C 
ATOM     10  C   UNL     1      -2.262  -2.867  -0.684  0.00  0.00    +0.056 C 
ATOM     11  C   UNL     1      -0.826  -2.339  -0.712  0.00  0.00    -0.056 C 
ATOM     12  H   UNL     1      -1.415  -0.420  -1.070  0.00  0.00    -0.082 HD
BRANCH   6  14
ATOM     13  C   UNL     1       0.615   0.822  -2.124  0.00  0.00    -0.017 C 
ATOM     14  C   UNL     1       0.588  -0.544  -1.435  0.00  0.00    -0.082 C 
ENDBRANCH   6  14
ENDBRANCH   2  10
ENDBRANCH   1   3
BRANCH   1  15
ATOM     15  N   UNL     1      -4.859  -5.989   1.980  0.00  0.00    -0.178 NA
ATOM     16  H   UNL     1      -5.110  -5.586   2.826  0.00  0.00    +0.149 HD
BRANCH  15  17
ATOM     17  S   UNL     1      -5.958  -6.898   1.137  0.00  0.00    +0.059 S 
ATOM     18  O   UNL     1      -7.131  -6.960   1.936  0.00  0.00    -0.153 OA
ATOM     19  O   UNL     1      -5.966  -6.396  -0.192  0.00  0.00    -0.153 OA
BRANCH  17  20
ATOM     20  C   UNL     1      -5.320  -8.538   1.052  0.00  0.00    +0.105 A 
ATOM     21  C   UNL     1      -4.488  -8.903   0.010  0.00  0.00    +0.029 A 
ATOM     22  C   UNL     1      -3.988 -10.190  -0.056  0.00  0.00    +0.005 A 
ATOM     23  C   UNL     1      -4.318 -11.112   0.919  0.00  0.00    -0.050 A 
ATOM     24  C   UNL     1      -5.149 -10.746   1.962  0.00  0.00    +0.005 A 
ATOM     25  C   UNL     1      -5.646  -9.458   2.031  0.00  0.00    +0.029 A 
ATOM     26  C   UNL     1      -3.773 -12.515   0.846  0.00  0.00    +0.044 C 
ENDBRANCH  17  20
ENDBRANCH  15  17
ENDBRANCH   1  15
BRANCH   1  27
ATOM     27  C   UNL     1      -2.510  -5.724   2.604  0.00  0.00    +0.032 C 
BRANCH  27  28
ATOM     28  C   UNL     1      -2.458  -7.078   3.314  0.00  0.00    -0.015 C 
ATOM     29  C   UNL     1      -1.866  -8.127   2.370  0.00  0.00    +0.007 C 
ATOM     30  C   UNL     1      -1.582  -6.965   4.563  0.00  0.00    +0.007 C 
ENDBRANCH  27  28
ENDBRANCH   1  27
TORSDOF 8
