REMARK  Name = ZINC45725289
REMARK  6 active torsions:
REMARK  status: ('A' for Active; 'I' for Inactive)
REMARK    1  A    between atoms: C_1  and  C_2
REMARK    2  A    between atoms: C_2  and  C_4
REMARK    3  A    between atoms: C_2  and  N_9
REMARK    4  A    between atoms: N_12  and  C_13
REMARK    5  A    between atoms: C_18  and  C_19
REMARK    6  A    between atoms: C_19  and  C_20
REMARK                            x       y       z     vdW  Elec       q    Type
REMARK                         _______ _______ _______ _____ _____    ______ ____
ROOT
ATOM      1  N   UNL     1       0.685  -0.492  -1.199  0.00  0.00    -0.292 N 
ATOM      2  C   UNL     1       0.006  -0.612  -2.357  0.00  0.00    +0.304 C 
ATOM      3  O   UNL     1      -1.177  -0.331  -2.401  0.00  0.00    -0.252 OA
ATOM      4  N   UNL     1       0.637  -1.043  -3.467  0.00  0.00    -0.269 N 
ATOM      5  H   UNL     1       1.628  -0.717  -1.165  0.00  0.00    +0.151 HD
ATOM      6  H   UNL     1       1.596  -1.189  -3.454  0.00  0.00    +0.156 HD
ENDROOT
BRANCH   4   7
ATOM      7  C   UNL     1      -0.091  -1.280  -4.639  0.00  0.00    +0.038 A 
ATOM      8  C   UNL     1      -1.445  -1.579  -4.569  0.00  0.00    +0.023 A 
ATOM      9  C   UNL     1      -2.160  -1.811  -5.727  0.00  0.00    +0.002 A 
ATOM     10  C   UNL     1      -1.530  -1.747  -6.956  0.00  0.00    +0.000 A 
ATOM     11  C   UNL     1      -0.181  -1.450  -7.029  0.00  0.00    +0.006 A 
ATOM     12  C   UNL     1       0.538  -1.210  -5.875  0.00  0.00    -0.017 A 
BRANCH  12  13
ATOM     13  C   UNL     1       2.007  -0.880  -5.956  0.00  0.00    +0.132 C 
BRANCH  13  14
ATOM     14  C   UNL     1       2.815  -2.139  -5.777  0.00  0.00    +0.215 C 
ATOM     15  O   UNL     1       2.255  -3.200  -5.601  0.00  0.00    -0.276 OA
ATOM     16  N   UNL     1       4.162  -2.086  -5.813  0.00  0.00    -0.329 N 
ATOM     17  H   UNL     1       4.610  -1.238  -5.954  0.00  0.00    +0.145 HD
ATOM     18  H   UNL     1       4.682  -2.897  -5.698  0.00  0.00    +0.145 HD
ENDBRANCH  13  14
ENDBRANCH  12  13
ENDBRANCH   4   7
BRANCH   1  20
ATOM     19  C   UNL     1      -0.013   1.506   0.026  0.00  0.00    +0.033 C 
ATOM     20  C   UNL     1      -0.002  -0.024   0.007  0.00  0.00    +0.108 C 
BRANCH  20  21
ATOM     21  C   UNL     1       0.720  -0.536   1.227  0.00  0.00    +0.010 A 
ATOM     22  C   UNL     1       0.205  -1.016   2.385  0.00  0.00    +0.013 A 
ATOM     23  C   UNL     1       1.069  -1.436   3.379  0.00  0.00    +0.008 A 
ATOM     24  C   UNL     1       2.405  -1.355   3.167  0.00  0.00    +0.045 A 
ATOM     25  S   UNL     1       2.476  -0.675   1.518  0.00  0.00    -0.100 S 
ENDBRANCH  20  21
ENDBRANCH   1  20
TORSDOF 5
