REMARK  Name = ZINC08444955
REMARK  12 active torsions:
REMARK  status: ('A' for Active; 'I' for Inactive)
REMARK    1  A    between atoms: C_1  and  C_2
REMARK    2  A    between atoms: C_4  and  C_33
REMARK    3  A    between atoms: C_8  and  N_32
REMARK    4  A    between atoms: C_9  and  C_11
REMARK    5  A    between atoms: N_13  and  C_14
REMARK    6  A    between atoms: C_15  and  C_28
REMARK    7  A    between atoms: C_20  and  C_24
REMARK    8  A    between atoms: C_24  and  C_25
REMARK    9  A    between atoms: C_24  and  C_26
REMARK   10  A    between atoms: C_24  and  C_27
REMARK   11  A    between atoms: C_28  and  O_30
REMARK   12  A    between atoms: O_30  and  C_31
REMARK                            x       y       z     vdW  Elec       q    Type
REMARK                         _______ _______ _______ _____ _____    ______ ____
ROOT
ATOM      1  C   UNL     1      -2.329  -3.198  -3.494  0.00  0.00    +0.257 C 
ATOM      2  O   UNL     1      -2.101  -4.395  -3.504  0.00  0.00    -0.269 OA
ATOM      3  N   UNL     1      -1.442  -2.348  -2.941  0.00  0.00    -0.275 N 
ATOM      4  H   UNL     1      -1.624  -1.395  -2.933  0.00  0.00    +0.156 HD
ENDROOT
BRANCH   1  13
ATOM      5  C   UNL     1      -7.004  -4.649  -6.076  0.00  0.00    +0.044 C 
ATOM      6  C   UNL     1      -6.842  -3.171  -5.833  0.00  0.00    -0.037 A 
ATOM      7  C   UNL     1      -7.812  -2.286  -6.241  0.00  0.00    +0.033 A 
ATOM      8  C   UNL     1      -7.661  -0.926  -6.017  0.00  0.00    +0.108 A 
ATOM      9  N   UNL     1      -6.585  -0.464  -5.409  0.00  0.00    -0.239 NA
ATOM     10  C   UNL     1      -5.630  -1.270  -5.000  0.00  0.00    +0.111 A 
ATOM     11  C   UNL     1      -5.688  -2.671  -5.181  0.00  0.00    +0.032 A 
ATOM     12  C   UNL     1      -4.542  -3.408  -4.672  0.00  0.00    +0.054 A 
ATOM     13  C   UNL     1      -3.528  -2.701  -4.062  0.00  0.00    +0.097 A 
ATOM     14  S   UNL     1      -4.082  -1.011  -4.168  0.00  0.00    -0.062 S 
BRANCH  12  15
ATOM     15  N   UNL     1      -4.473  -4.789  -4.793  0.00  0.00    -0.356 N 
ATOM     16  H   UNL     1      -3.941  -5.305  -4.166  0.00  0.00    +0.142 HD
ATOM     17  H   UNL     1      -4.956  -5.238  -5.504  0.00  0.00    +0.142 HD
ENDBRANCH  12  15
BRANCH   8  18
ATOM     18  C   UNL     1      -8.733   0.032  -6.470  0.00  0.00    +0.390 C 
ATOM     19  F   UNL     1      -8.153   1.266  -6.783  0.00  0.00    -0.202 F 
ATOM     20  F   UNL     1      -9.370  -0.485  -7.603  0.00  0.00    -0.202 F 
ENDBRANCH   8  18
ENDBRANCH   1  13
BRANCH   3  21
ATOM     21  C   UNL     1      -0.271  -2.833  -2.385  0.00  0.00    +0.087 A 
ATOM     22  C   UNL     1       0.755  -2.123  -1.776  0.00  0.00    +0.091 A 
ATOM     23  C   UNL     1       1.885  -2.881  -1.264  0.00  0.00    -0.021 A 
ATOM     24  C   UNL     1       1.811  -4.217  -1.447  0.00  0.00    -0.004 A 
ATOM     25  S   UNL     1       0.272  -4.476  -2.284  0.00  0.00    -0.077 S 
ATOM     26  C   UNL     1       2.819  -5.243  -1.029  0.00  0.00    +0.046 C 
ATOM     27  C   UNL     1       4.132  -4.522  -0.691  0.00  0.00    -0.000 C 
ATOM     28  C   UNL     1       3.820  -3.333   0.224  0.00  0.00    +0.009 C 
ATOM     29  C   UNL     1       3.082  -2.250  -0.565  0.00  0.00    +0.037 C 
BRANCH  27  30
ATOM     30  C   UNL     1       5.077  -5.487   0.027  0.00  0.00    -0.035 C 
ATOM     31  C   UNL     1       5.373  -6.682  -0.882  0.00  0.00    +0.011 C 
ATOM     32  C   UNL     1       6.384  -4.766   0.362  0.00  0.00    +0.011 C 
ATOM     33  C   UNL     1       4.420  -5.979   1.318  0.00  0.00    +0.011 C 
ENDBRANCH  27  30
BRANCH  22  34
ATOM     34  C   UNL     1       0.699  -0.665  -1.648  0.00  0.00    +0.342 C 
ATOM     35  O   UNL     1       1.163   0.040  -2.524  0.00  0.00    -0.245 OA
BRANCH  34  36
ATOM     36  O   UNL     1       0.131  -0.105  -0.560  0.00  0.00    -0.464 OA
ATOM     37  C   UNL     1       0.110   1.346  -0.501  0.00  0.00    +0.280 C 
ENDBRANCH  34  36
ENDBRANCH  22  34
ENDBRANCH   3  21
TORSDOF 7
