REMARK  Name = ZINC39639367
REMARK  8 active torsions:
REMARK  status: ('A' for Active; 'I' for Inactive)
REMARK    1  A    between atoms: C_1  and  C_2
REMARK    2  A    between atoms: C_5  and  C_8
REMARK    3  A    between atoms: C_8  and  C_10
REMARK    4  A    between atoms: C_8  and  N_11
REMARK    5  A    between atoms: C_12  and  C_14
REMARK    6  A    between atoms: C_25  and  C_27
REMARK    7  A    between atoms: C_32  and  O_33
REMARK    8  A    between atoms: O_33  and  C_34
REMARK                            x       y       z     vdW  Elec       q    Type
REMARK                         _______ _______ _______ _____ _____    ______ ____
ROOT
ATOM      1  C   UNL     1       2.325  -6.617   2.524  0.00  0.00    +0.100 C 
ATOM      2  C   UNL     1       3.584  -5.741   2.340  0.00  0.00    +0.121 C 
ATOM      3  N   UNL     1       4.720  -6.678   2.503  0.00  0.00    -0.296 N 
ATOM      4  C   UNL     1       4.277  -7.917   1.819  0.00  0.00    +0.115 C 
ATOM      5  C   UNL     1       2.784  -8.045   2.180  0.00  0.00    -0.004 C 
ATOM      6  C   UNL     1       1.997  -8.580   0.988  0.00  0.00    -0.010 C 
ATOM      7  C   UNL     1       2.430 -10.021   0.703  0.00  0.00    -0.082 C 
ATOM      8  N   UNL     1       2.186 -10.851   1.888  0.00  0.00    +0.379 N 
ATOM      9  C   UNL     1       3.017 -10.386   3.005  0.00  0.00    -0.082 C 
ATOM     10  C   UNL     1       2.609  -8.960   3.388  0.00  0.00    -0.010 C 
ATOM     11  C   UNL     1       5.891  -6.455   3.131  0.00  0.00    +0.252 C 
ATOM     12  O   UNL     1       6.768  -7.297   3.100  0.00  0.00    -0.270 OA
ATOM     13  H   UNL     1       1.213 -10.789   2.147  0.00  0.00    -0.086 HD
ATOM     14  H   UNL     1       2.415 -11.811   1.678  0.00  0.00    -0.086 HD
ENDROOT
BRANCH  11  15
ATOM     15  C   UNL     1       6.110  -5.189   3.857  0.00  0.00    +0.099 A 
ATOM     16  C   UNL     1       5.560  -3.992   3.383  0.00  0.00    +0.020 A 
ATOM     17  C   UNL     1       5.793  -2.833   4.101  0.00  0.00    +0.021 A 
ATOM     18  C   UNL     1       6.556  -2.888   5.254  0.00  0.00    +0.114 A 
ATOM     19  N   UNL     1       7.065  -4.026   5.682  0.00  0.00    -0.220 NA
ATOM     20  C   UNL     1       6.867  -5.164   5.038  0.00  0.00    +0.233 A 
BRANCH  20  21
ATOM     21  O   UNL     1       7.404  -6.311   5.517  0.00  0.00    -0.437 OA
BRANCH  21  22
ATOM     22  C   UNL     1       8.210  -6.231   6.608  0.00  0.00    +0.130 A 
ATOM     23  C   UNL     1       9.589  -6.275   6.458  0.00  0.00    +0.046 A 
ATOM     24  C   UNL     1      10.406  -6.192   7.569  0.00  0.00    +0.004 A 
ATOM     25  C   UNL     1       9.851  -6.067   8.829  0.00  0.00    +0.000 A 
ATOM     26  C   UNL     1       8.478  -6.024   8.981  0.00  0.00    +0.004 A 
ATOM     27  C   UNL     1       7.656  -6.100   7.873  0.00  0.00    +0.046 A 
ENDBRANCH  21  22
ENDBRANCH  20  21
ENDBRANCH  11  15
BRANCH   1  29
ATOM     28  N   UNL     1      -0.057  -6.386   1.899  0.00  0.00    -0.308 N 
ATOM     29  C   UNL     1       1.236  -6.176   1.581  0.00  0.00    +0.219 C 
ATOM     30  O   UNL     1       1.522  -5.630   0.536  0.00  0.00    -0.275 OA
ATOM     31  H   UNL     1      -0.286  -6.823   2.735  0.00  0.00    +0.149 HD
BRANCH  28  32
ATOM     32  C   UNL     1      -1.116  -5.957   0.983  0.00  0.00    +0.100 C 
ATOM     33  C   UNL     1      -1.351  -7.042  -0.070  0.00  0.00    +0.033 C 
BRANCH  32  38
ATOM     34  C   UNL     1      -5.994  -5.073   3.952  0.00  0.00    +0.044 C 
ATOM     35  C   UNL     1      -4.722  -5.304   3.178  0.00  0.00    -0.050 A 
ATOM     36  C   UNL     1      -4.367  -4.439   2.160  0.00  0.00    +0.004 A 
ATOM     37  C   UNL     1      -3.200  -4.651   1.449  0.00  0.00    +0.006 A 
ATOM     38  C   UNL     1      -2.388  -5.726   1.758  0.00  0.00    -0.027 A 
ATOM     39  C   UNL     1      -2.743  -6.590   2.777  0.00  0.00    +0.006 A 
ATOM     40  C   UNL     1      -3.908  -6.376   3.490  0.00  0.00    +0.004 A 
ENDBRANCH  32  38
ENDBRANCH  28  32
ENDBRANCH   1  29
TORSDOF 6
