REMARK  Name = ZINC17287468
REMARK  10 active torsions:
REMARK  status: ('A' for Active; 'I' for Inactive)
REMARK    1  A    between atoms: C_1  and  C_2
REMARK    2  A    between atoms: C_3  and  N_9
REMARK    3  A    between atoms: C_10  and  C_12
REMARK    4  A    between atoms: C_12  and  N_13
REMARK    5  A    between atoms: C_14  and  C_16
REMARK    6  A    between atoms: C_16  and  N_51
REMARK    7  A    between atoms: C_17  and  N_51
REMARK    8  A    between atoms: C_18  and  C_19
REMARK    9  A    between atoms: C_18  and  N_51
REMARK   10  A    between atoms: N_21  and  C_22
REMARK                            x       y       z     vdW  Elec       q    Type
REMARK                         _______ _______ _______ _____ _____    ______ ____
ROOT
ATOM      1  N   UNL     1       6.141   2.287   0.700  0.00  0.00    -0.308 N 
ATOM      2  C   UNL     1       4.965   1.685   0.437  0.00  0.00    +0.197 C 
ATOM      3  O   UNL     1       4.898   0.475   0.394  0.00  0.00    -0.278 OA
ATOM      4  H   UNL     1       6.194   3.255   0.735  0.00  0.00    +0.149 HD
ENDROOT
BRANCH   1   5
ATOM      5  C   UNL     1       7.341   1.479   0.934  0.00  0.00    +0.200 C 
BRANCH   5   7
ATOM      6  N   UNL     1       9.730   1.861   1.448  0.00  0.00    -0.284 N 
ATOM      7  C   UNL     1       8.513   2.386   1.204  0.00  0.00    +0.234 C 
ATOM      8  O   UNL     1       8.362   3.590   1.201  0.00  0.00    -0.274 OA
ATOM      9  H   UNL     1       9.864   0.902   1.393  0.00  0.00    +0.155 HD
BRANCH   6  12
ATOM     10  C   UNL     1      11.861   0.771   2.987  0.00  0.00    +0.047 C 
ATOM     11  C   UNL     1      11.861   2.208   2.531  0.00  0.00    -0.011 A 
ATOM     12  C   UNL     1      10.800   2.699   1.782  0.00  0.00    +0.038 A 
ATOM     13  C   UNL     1      10.801   4.024   1.368  0.00  0.00    +0.023 A 
ATOM     14  C   UNL     1      11.858   4.849   1.699  0.00  0.00    +0.003 A 
ATOM     15  C   UNL     1      12.915   4.357   2.440  0.00  0.00    +0.020 A 
ATOM     16  C   UNL     1      12.919   3.036   2.854  0.00  0.00    +0.046 A 
ATOM     17 CL   UNL     1      14.249   2.422   3.785  0.00  0.00    -0.083 Cl
ENDBRANCH   6  12
ENDBRANCH   5   7
ENDBRANCH   1   5
BRANCH   2  18
ATOM     18  C   UNL     1       3.731   2.517   0.197  0.00  0.00    +0.019 C 
BRANCH  18  20
ATOM     19  C   UNL     1       2.768   0.900  -1.328  0.00  0.00    -0.095 C 
ATOM     20  N   UNL     1       2.587   1.613  -0.045  0.00  0.00    +0.389 N 
ATOM     21  H   UNL     1       2.539   0.924   0.715  0.00  0.00    -0.081 HD
BRANCH  20  22
ATOM     22  C   UNL     1       1.328   2.387  -0.071  0.00  0.00    +0.019 C 
BRANCH  22  23
ATOM     23  C   UNL     1       0.167   1.427  -0.097  0.00  0.00    +0.201 C 
ATOM     24  O   UNL     1       0.369   0.231  -0.110  0.00  0.00    -0.278 OA
ATOM     25  N   UNL     1      -1.096   1.896  -0.111  0.00  0.00    -0.286 N 
ATOM     26  H   UNL     1      -1.260   2.850  -0.041  0.00  0.00    +0.155 HD
BRANCH  25  27
ATOM     27  C   UNL     1      -2.172   1.008  -0.226  0.00  0.00    +0.052 A 
ATOM     28  C   UNL     1      -2.036  -0.308   0.194  0.00  0.00    +0.025 A 
ATOM     29  C   UNL     1      -3.100  -1.181   0.083  0.00  0.00    +0.002 A 
ATOM     30  C   UNL     1      -4.299  -0.748  -0.453  0.00  0.00    +0.002 A 
ATOM     31  C   UNL     1      -4.438   0.561  -0.877  0.00  0.00    +0.022 A 
ATOM     32  C   UNL     1      -3.378   1.441  -0.765  0.00  0.00    +0.062 A 
ATOM     33 CL   UNL     1      -3.552   3.084  -1.298  0.00  0.00    -0.082 Cl
ENDBRANCH  25  27
ENDBRANCH  22  23
ENDBRANCH  20  22
ENDBRANCH  18  20
ENDBRANCH   2  18
TORSDOF 8
