REMARK  Name = ZINC51498731
REMARK  7 active torsions:
REMARK  status: ('A' for Active; 'I' for Inactive)
REMARK    1  A    between atoms: C_1  and  C_2
REMARK    2  A    between atoms: C_3  and  C_18
REMARK    3  A    between atoms: N_10  and  C_11
REMARK    4  A    between atoms: C_11  and  C_12
REMARK    5  A    between atoms: C_28  and  C_30
REMARK    6  A    between atoms: C_30  and  O_31
REMARK    7  A    between atoms: O_31  and  C_32
REMARK                            x       y       z     vdW  Elec       q    Type
REMARK                         _______ _______ _______ _____ _____    ______ ____
ROOT
ATOM      1  C   UNL     1      -0.004  -0.354  -2.474  0.00  0.00    +0.026 C 
ATOM      2  C   UNL     1       0.917  -0.858  -3.375  0.00  0.00    +0.079 C 
ATOM      3  C   UNL     1       0.944  -0.417  -4.796  0.00  0.00    +0.132 C 
ATOM      4  N   UNL     1       0.629   0.793  -5.179  0.00  0.00    -0.385 N 
ATOM      5  N   UNL     1       1.343  -1.433  -5.690  0.00  0.00    -0.154 N 
ATOM      6  C   UNL     1       2.101  -2.466  -5.182  0.00  0.00    +0.181 C 
ATOM      7  N   UNL     1       2.425  -2.677  -3.931  0.00  0.00    -0.152 NA
ATOM      8  C   UNL     1       1.932  -1.859  -2.975  0.00  0.00    +0.273 C 
ATOM      9  O   UNL     1       2.309  -1.944  -1.817  0.00  0.00    -0.268 OA
ATOM     10  S   UNL     1       2.477  -3.404  -6.639  0.00  0.00    -0.035 S 
ATOM     11  C   UNL     1       1.529  -2.426  -7.797  0.00  0.00    +0.137 C 
ATOM     12  N   UNL     1       1.054  -1.482  -7.037  0.00  0.00    -0.166 NA
ATOM     13  H   UNL     1       0.361   1.455  -4.522  0.00  0.00    +0.157 HD
ATOM     14  H   UNL     1       0.663   1.029  -6.119  0.00  0.00    +0.157 HD
ENDROOT
BRANCH   1  17
ATOM     15  C   UNL     1      -0.018   1.503   0.010  0.00  0.00    +0.064 C 
ATOM     16  C   UNL     1       0.002  -0.004   0.002  0.00  0.00    +0.024 A 
ATOM     17  C   UNL     1       0.008  -0.795  -1.131  0.00  0.00    +0.004 A 
ATOM     18  C   UNL     1       0.029  -2.193  -0.656  0.00  0.00    +0.007 A 
ATOM     19  C   UNL     1       0.043  -3.430  -1.294  0.00  0.00    +0.010 A 
ATOM     20  C   UNL     1       0.062  -4.585  -0.542  0.00  0.00    +0.001 A 
ATOM     21  C   UNL     1       0.066  -4.517   0.843  0.00  0.00    +0.002 A 
ATOM     22  C   UNL     1       0.052  -3.299   1.487  0.00  0.00    +0.026 A 
ATOM     23  C   UNL     1       0.034  -2.122   0.746  0.00  0.00    +0.050 A 
ATOM     24  N   UNL     1       0.023  -0.787   1.098  0.00  0.00    -0.339 N 
BRANCH  24  25
ATOM     25  C   UNL     1       0.029  -0.290   2.477  0.00  0.00    +0.157 C 
BRANCH  25  26
ATOM     26  C   UNL     1      -1.389  -0.139   2.963  0.00  0.00    -0.028 A 
ATOM     27  C   UNL     1      -2.061   1.054   2.775  0.00  0.00    +0.005 A 
ATOM     28  C   UNL     1      -3.362   1.193   3.220  0.00  0.00    +0.000 A 
ATOM     29  C   UNL     1      -3.991   0.138   3.854  0.00  0.00    +0.000 A 
ATOM     30  C   UNL     1      -3.320  -1.056   4.041  0.00  0.00    +0.000 A 
ATOM     31  C   UNL     1      -2.020  -1.196   3.591  0.00  0.00    +0.005 A 
ENDBRANCH  25  26
ENDBRANCH  24  25
ENDBRANCH   1  17
BRANCH  11  32
ATOM     32  C   UNL     1       1.330  -2.641  -9.276  0.00  0.00    +0.293 C 
BRANCH  32  33
ATOM     33  O   UNL     1       0.493  -1.608  -9.799  0.00  0.00    -0.485 OA
BRANCH  33  34
ATOM     34  C   UNL     1       0.213  -1.654 -11.128  0.00  0.00    +0.121 A 
ATOM     35  C   UNL     1       0.729  -2.676 -11.911  0.00  0.00    +0.045 A 
ATOM     36  C   UNL     1       0.443  -2.721 -13.262  0.00  0.00    +0.004 A 
ATOM     37  C   UNL     1      -0.357  -1.749 -13.833  0.00  0.00    +0.000 A 
ATOM     38  C   UNL     1      -0.872  -0.729 -13.054  0.00  0.00    +0.004 A 
ATOM     39  C   UNL     1      -0.594  -0.682 -11.702  0.00  0.00    +0.045 A 
ENDBRANCH  33  34
ENDBRANCH  32  33
ENDBRANCH  11  32
TORSDOF 6
