REMARK  Name = ZINC20189271
REMARK  6 active torsions:
REMARK  status: ('A' for Active; 'I' for Inactive)
REMARK    1  A    between atoms: C_1  and  C_2
REMARK    2  A    between atoms: C_3  and  N_9
REMARK    3  A    between atoms: N_9  and  S_10
REMARK    4  A    between atoms: S_10  and  C_13
REMARK    5  A    between atoms: C_17  and  C_19
REMARK    6  A    between atoms: C_19  and  N_20
REMARK                            x       y       z     vdW  Elec       q    Type
REMARK                         _______ _______ _______ _____ _____    ______ ____
ROOT
ATOM      1  S   UNL     1       3.944   2.409   0.004  0.00  0.00    +0.072 S 
ATOM      2  O   UNL     1       3.730   3.719   0.510  0.00  0.00    -0.150 OA
ATOM      3  O   UNL     1       4.924   1.533   0.546  0.00  0.00    -0.150 OA
ENDROOT
BRANCH   1   4
ATOM      4  C   UNL     1       2.400   1.567   0.115  0.00  0.00    +0.109 A 
ATOM      5  C   UNL     1       1.221   2.288   0.141  0.00  0.00    +0.031 A 
ATOM      6  C   UNL     1       0.009   1.629   0.228  0.00  0.00    +0.040 A 
ATOM      7  C   UNL     1      -0.023   0.246   0.290  0.00  0.00    +0.125 A 
ATOM      8  C   UNL     1       1.158  -0.475   0.264  0.00  0.00    -0.028 A 
ATOM      9  C   UNL     1       2.369   0.186   0.176  0.00  0.00    +0.033 A 
ATOM     10  F   UNL     1      -1.207  -0.399   0.375  0.00  0.00    -0.205 F 
BRANCH   8  11
ATOM     11  C   UNL     1       1.124  -1.980   0.331  0.00  0.00    -0.048 C 
BRANCH  11  12
ATOM     12  N   UNL     1       0.821  -2.402   1.705  0.00  0.00    +0.381 N 
ATOM     13  H   UNL     1       0.796  -3.500   1.754  0.00  0.00    -0.090 HD
ATOM     14  H   UNL     1      -0.158  -1.999   2.005  0.00  0.00    -0.090 HD
ATOM     15  H   UNL     1       1.597  -2.021   2.385  0.00  0.00    -0.090 HD
ENDBRANCH  11  12
ENDBRANCH   8  11
ENDBRANCH   1   4
BRANCH   1  16
ATOM     16  N   UNL     1       4.296   2.574  -1.606  0.00  0.00    -0.216 N 
ATOM     17  H   UNL     1       5.210   2.122  -2.018  0.00  0.00    +0.174 HD
BRANCH  16  20
ATOM     18  C   UNL     1       3.969   1.675  -4.285  0.00  0.00    +0.047 C 
ATOM     19  C   UNL     1       3.244   2.885  -3.755  0.00  0.00    -0.010 A 
ATOM     20  C   UNL     1       3.433   3.289  -2.440  0.00  0.00    +0.052 A 
ATOM     21  C   UNL     1       2.767   4.408  -1.957  0.00  0.00    +0.025 A 
ATOM     22  C   UNL     1       1.914   5.113  -2.784  0.00  0.00    +0.003 A 
ATOM     23  C   UNL     1       1.722   4.705  -4.091  0.00  0.00    +0.020 A 
ATOM     24  C   UNL     1       2.384   3.591  -4.576  0.00  0.00    +0.046 A 
ATOM     25 CL   UNL     1       2.140   3.083  -6.218  0.00  0.00    -0.083 Cl
ENDBRANCH  16  20
ENDBRANCH   1  16
TORSDOF 5
