REMARK  Name = ZINC66203492
REMARK  10 active torsions:
REMARK  status: ('A' for Active; 'I' for Inactive)
REMARK    1  A    between atoms: C_1  and  C_2
REMARK    2  A    between atoms: C_2  and  C_3
REMARK    3  A    between atoms: C_3  and  C_5
REMARK    4  A    between atoms: C_3  and  N_6
REMARK    5  A    between atoms: N_6  and  C_7
REMARK    6  A    between atoms: N_6  and  C_8
REMARK    7  A    between atoms: C_8  and  C_9
REMARK    8  A    between atoms: C_9  and  N_10
REMARK    9  A    between atoms: N_13  and  N_14
REMARK   10  A    between atoms: N_14  and  C_15
REMARK                            x       y       z     vdW  Elec       q    Type
REMARK                         _______ _______ _______ _____ _____    ______ ____
ROOT
ATOM      1  N   UNL     1      -5.928  -0.238  -2.236  0.00  0.00    -0.300 N 
ATOM      2  C   UNL     1      -6.752  -0.121  -3.296  0.00  0.00    +0.316 C 
ATOM      3  O   UNL     1      -6.300   0.172  -4.387  0.00  0.00    -0.251 OA
ATOM      4  N   UNL     1      -8.075  -0.328  -3.148  0.00  0.00    -0.220 N 
ATOM      5  H   UNL     1      -6.288  -0.472  -1.366  0.00  0.00    +0.150 HD
ATOM      6  H   UNL     1      -8.668  -0.244  -3.912  0.00  0.00    +0.174 HD
ENDROOT
BRANCH   4   7
ATOM      7  N   UNL     1      -8.595  -0.666  -1.892  0.00  0.00    -0.258 N 
ATOM      8  H   UNL     1      -8.016  -0.673  -1.114  0.00  0.00    +0.170 HD
BRANCH   7   9
ATOM      9  C   UNL     1      -9.951  -0.994  -1.760  0.00  0.00    +0.121 A 
ATOM     10  C   UNL     1     -10.607  -1.666  -2.784  0.00  0.00    +0.186 A 
ATOM     11  C   UNL     1     -11.947  -1.990  -2.651  0.00  0.00    +0.198 A 
ATOM     12  C   UNL     1     -12.634  -1.643  -1.498  0.00  0.00    +0.199 A 
ATOM     13  C   UNL     1     -11.982  -0.972  -0.476  0.00  0.00    +0.198 A 
ATOM     14  C   UNL     1     -10.640  -0.651  -0.603  0.00  0.00    +0.186 A 
ATOM     15  F   UNL     1     -10.003  -0.002   0.396  0.00  0.00    -0.200 F 
ATOM     16  F   UNL     1     -12.653  -0.635   0.647  0.00  0.00    -0.199 F 
ATOM     17  F   UNL     1     -13.942  -1.959  -1.371  0.00  0.00    -0.199 F 
ATOM     18  F   UNL     1     -12.586  -2.643  -3.647  0.00  0.00    -0.199 F 
ATOM     19  F   UNL     1      -9.938  -2.004  -3.908  0.00  0.00    -0.200 F 
ENDBRANCH   7   9
ENDBRANCH   4   7
BRANCH   1  20
ATOM     20  C   UNL     1      -4.490  -0.013  -2.397  0.00  0.00    +0.087 C 
BRANCH  20  21
ATOM     21  C   UNL     1      -3.789  -0.207  -1.050  0.00  0.00    -0.060 C 
BRANCH  21  22
ATOM     22  N   UNL     1      -2.347   0.019  -1.212  0.00  0.00    +0.381 N 
ATOM     23  C   UNL     1      -2.109   1.423  -1.574  0.00  0.00    -0.096 C 
ATOM     24  H   UNL     1      -1.992  -0.582  -1.940  0.00  0.00    -0.082 HD
BRANCH  22  25
ATOM     25  C   UNL     1      -1.659  -0.284   0.051  0.00  0.00    -0.072 C 
ATOM     26  C   UNL     1      -2.299   0.519   1.185  0.00  0.00    -0.013 C 
BRANCH  25  28
ATOM     27  C   UNL     1      -1.035  -2.578  -0.717  0.00  0.00    +0.002 C 
ATOM     28  C   UNL     1      -1.783  -1.779   0.353  0.00  0.00    -0.019 C 
ENDBRANCH  25  28
ENDBRANCH  22  25
ENDBRANCH  21  22
ENDBRANCH  20  21
ENDBRANCH   1  20
TORSDOF 7
