REMARK  Name = ZINC36643479
REMARK  11 active torsions:
REMARK  status: ('A' for Active; 'I' for Inactive)
REMARK    1  A    between atoms: C_1  and  C_2
REMARK    2  A    between atoms: C_2  and  C_3
REMARK    3  A    between atoms: N_9  and  S_10
REMARK    4  A    between atoms: S_10  and  C_13
REMARK    5  A    between atoms: C_16  and  C_19
REMARK    6  A    between atoms: N_21  and  C_22
REMARK    7  A    between atoms: C_22  and  C_23
REMARK    8  A    between atoms: C_23  and  C_24
REMARK    9  A    between atoms: C_24  and  N_25
REMARK   10  A    between atoms: N_25  and  C_26
REMARK   11  A    between atoms: N_25  and  C_27
REMARK                            x       y       z     vdW  Elec       q    Type
REMARK                         _______ _______ _______ _____ _____    ______ ____
ROOT
ATOM      1  C   UNL     1       1.931   6.680   2.089  0.00  0.00    +0.252 C 
ATOM      2  O   UNL     1       0.890   7.263   1.859  0.00  0.00    -0.270 OA
ATOM      3  N   UNL     1       2.955   7.333   2.673  0.00  0.00    -0.246 N 
ATOM      4  C   UNL     1       2.775   8.623   3.144  0.00  0.00    +0.168 A 
ATOM      5  N   UNL     1       3.664   9.447   3.647  0.00  0.00    -0.221 NA
ATOM      6  C   UNL     1       3.345  10.689   4.071  0.00  0.00    +0.115 A 
ATOM      7  C   UNL     1       4.200  11.669   4.629  0.00  0.00    +0.150 A 
ATOM      8  C   UNL     1       3.708  12.893   5.011  0.00  0.00    +0.040 A 
ATOM      9  C   UNL     1       2.366  13.211   4.865  0.00  0.00    +0.004 A 
ATOM     10  C   UNL     1       1.503  12.277   4.323  0.00  0.00    +0.017 A 
ATOM     11  C   UNL     1       1.985  11.050   3.938  0.00  0.00    +0.044 A 
ATOM     12  S   UNL     1       1.275   9.592   3.212  0.00  0.00    -0.052 S 
ATOM     13  F   UNL     1       5.514  11.398   4.788  0.00  0.00    -0.203 F 
ENDROOT
BRANCH   1  17
ATOM     14  C   UNL     1       2.341   2.582   1.050  0.00  0.00    +0.106 A 
ATOM     15  C   UNL     1       1.130   3.054   1.525  0.00  0.00    +0.029 A 
ATOM     16  C   UNL     1       0.990   4.384   1.864  0.00  0.00    +0.015 A 
ATOM     17  C   UNL     1       2.074   5.254   1.728  0.00  0.00    +0.037 A 
ATOM     18  C   UNL     1       3.293   4.771   1.248  0.00  0.00    +0.015 A 
ATOM     19  C   UNL     1       3.420   3.438   0.917  0.00  0.00    +0.029 A 
BRANCH  14  20
ATOM     20  S   UNL     1       2.511   0.882   0.619  0.00  0.00    +0.061 S 
ATOM     21  O   UNL     1       3.467   0.823  -0.431  0.00  0.00    -0.153 OA
ATOM     22  O   UNL     1       1.195   0.364   0.481  0.00  0.00    -0.153 OA
BRANCH  20  28
ATOM     23  C   UNL     1       2.360  -0.299   3.061  0.00  0.00    +0.080 C 
ATOM     24  C   UNL     1       2.585  -1.790   3.326  0.00  0.00    +0.021 C 
ATOM     25  C   UNL     1       4.082  -2.051   3.510  0.00  0.00    +0.003 C 
ATOM     26  C   UNL     1       4.829  -1.669   2.230  0.00  0.00    +0.017 C 
ATOM     27  C   UNL     1       4.629  -0.176   1.953  0.00  0.00    +0.110 C 
ATOM     28  N   UNL     1       3.188   0.113   1.919  0.00  0.00    -0.174 NA
BRANCH  23  30
ATOM     29  C   UNL     1       0.037  -0.334   3.981  0.00  0.00    +0.005 C 
ATOM     30  C   UNL     1       0.884  -0.053   2.738  0.00  0.00    +0.017 C 
ENDBRANCH  23  30
ENDBRANCH  20  28
ENDBRANCH  14  20
ENDBRANCH   1  17
BRANCH   3  31
ATOM     31  C   UNL     1       4.258   6.678   2.811  0.00  0.00    +0.114 C 
BRANCH  31  32
ATOM     32  C   UNL     1       5.183   7.141   1.683  0.00  0.00    +0.001 C 
BRANCH  32  33
ATOM     33  C   UNL     1       6.493   6.352   1.741  0.00  0.00    -0.078 C 
BRANCH  33  34
ATOM     34  N   UNL     1       7.381   6.797   0.659  0.00  0.00    +0.376 N 
ATOM     35  C   UNL     1       7.761   8.199   0.883  0.00  0.00    -0.097 C 
ATOM     36  C   UNL     1       8.588   5.960   0.640  0.00  0.00    -0.097 C 
ATOM     37  H   UNL     1       6.901   6.716  -0.225  0.00  0.00    -0.083 HD
ENDBRANCH  33  34
ENDBRANCH  32  33
ENDBRANCH  31  32
ENDBRANCH   3  31
TORSDOF 8
