REMARK  Name = ZINC43410548
REMARK  4 active torsions:
REMARK  status: ('A' for Active; 'I' for Inactive)
REMARK    1  A    between atoms: C_1  and  N_2
REMARK    2  A    between atoms: C_6  and  S_7
REMARK    3  A    between atoms: S_7  and  C_8
REMARK    4  A    between atoms: C_9  and  C_18
REMARK                            x       y       z     vdW  Elec       q    Type
REMARK                         _______ _______ _______ _____ _____    ______ ____
ROOT
ATOM      1  C   UNL     1       0.203  -1.790   3.692  0.00  0.00    +0.115 A 
ATOM      2  C   UNL     1       0.072  -1.758   5.091  0.00  0.00    +0.045 A 
ATOM      3  C   UNL     1      -0.033  -2.969   5.778  0.00  0.00    +0.019 A 
ATOM      4  C   UNL     1      -0.008  -4.155   5.055  0.00  0.00    -0.025 A 
ATOM      5  C   UNL     1       0.116  -4.111   3.683  0.00  0.00    +0.046 A 
ATOM      6  N   UNL     1       0.214  -2.946   3.054  0.00  0.00    -0.244 NA
ATOM      7  C   UNL     1       0.132  -5.358   2.835  0.00  0.00    +0.056 C 
ATOM      8  C   UNL     1       0.444  -6.585   3.690  0.00  0.00    +0.006 C 
ATOM      9  C   UNL     1      -0.507  -6.593   4.892  0.00  0.00    +0.005 C 
ATOM     10  C   UNL     1      -0.116  -5.446   5.822  0.00  0.00    +0.037 C 
ENDROOT
BRANCH   2  11
ATOM     11  C   UNL     1       0.048  -0.473   5.818  0.00  0.00    +0.097 C 
ATOM     12  N   UNL     1      -0.857   0.454   5.502  0.00  0.00    -0.387 N 
ATOM     13  N   UNL     1       0.930  -0.240   6.790  0.00  0.00    -0.344 N 
ATOM     14  H   UNL     1      -1.546   0.256   4.849  0.00  0.00    +0.157 HD
ATOM     15  H   UNL     1       1.588  -0.915   7.019  0.00  0.00    +0.144 HD
ATOM     16  H   UNL     1       0.914   0.604   7.267  0.00  0.00    +0.144 HD
ATOM     17  H   UNL     1      -0.826   1.326   5.925  0.00  0.00    +0.157 HD
ENDBRANCH   2  11
BRANCH   1  18
ATOM     18  S   UNL     1       0.344  -0.285   2.788  0.00  0.00    -0.031 S 
BRANCH  18  24
ATOM     19  C   UNL     1       0.660   1.475   0.047  0.00  0.00    +0.151 C 
ATOM     20  N   UNL     1       0.604   0.011   0.030  0.00  0.00    -0.328 N 
ATOM     21  C   UNL     1       0.678  -0.798  -1.081  0.00  0.00    +0.107 A 
ATOM     22  C   UNL     1       0.586  -2.067  -0.648  0.00  0.00    +0.131 A 
ATOM     23  N   UNL     1       0.459  -2.050   0.689  0.00  0.00    -0.230 NA
ATOM     24  C   UNL     1       0.474  -0.807   1.110  0.00  0.00    +0.175 A 
ENDBRANCH  18  24
ENDBRANCH   1  18
TORSDOF 3
