REMARK  Name = ZINC39303971
REMARK  7 active torsions:
REMARK  status: ('A' for Active; 'I' for Inactive)
REMARK    1  A    between atoms: C_1  and  C_2
REMARK    2  A    between atoms: C_6  and  O_25
REMARK    3  A    between atoms: C_7  and  O_24
REMARK    4  A    between atoms: N_12  and  C_13
REMARK    5  A    between atoms: C_13  and  C_14
REMARK    6  A    between atoms: N_16  and  C_17
REMARK    7  A    between atoms: C_18  and  C_22
REMARK                            x       y       z     vdW  Elec       q    Type
REMARK                         _______ _______ _______ _____ _____    ______ ____
ROOT
ATOM      1  C   UNL     1      -0.019   1.526   0.010  0.00  0.00    -0.008 C 
ATOM      2  C   UNL     1       0.002  -0.004   0.002  0.00  0.00    -0.040 C 
ATOM      3  C   UNL     1       0.696  -0.484  -1.245  0.00  0.00    -0.054 A 
ATOM      4  C   UNL     1       0.435   0.170  -2.441  0.00  0.00    +0.051 A 
ATOM      5  C   UNL     1       1.049  -0.239  -3.611  0.00  0.00    +0.158 A 
ATOM      6  C   UNL     1       1.933  -1.315  -3.587  0.00  0.00    +0.158 A 
ATOM      7  C   UNL     1       2.190  -1.964  -2.393  0.00  0.00    +0.053 A 
ATOM      8  C   UNL     1       1.573  -1.548  -1.223  0.00  0.00    -0.044 A 
ATOM      9  C   UNL     1       1.889  -2.279   0.057  0.00  0.00    +0.017 C 
ATOM     10  C   UNL     1       0.838  -1.946   1.117  0.00  0.00    -0.073 C 
ATOM     11  N   UNL     1       0.701  -0.484   1.198  0.00  0.00    +0.390 N 
ATOM     12  H   UNL     1       1.615  -0.061   1.247  0.00  0.00    -0.080 HD
ENDROOT
BRANCH   6  13
ATOM     13  O   UNL     1       2.540  -1.725  -4.733  0.00  0.00    -0.503 OA
ATOM     14  H   UNL     1       3.385  -1.290  -4.908  0.00  0.00    +0.292 HD
ENDBRANCH   6  13
BRANCH   5  15
ATOM     15  O   UNL     1       0.790   0.406  -4.780  0.00  0.00    -0.503 OA
ATOM     16  H   UNL     1       1.385   1.147  -4.960  0.00  0.00    +0.292 HD
ENDBRANCH   5  15
BRANCH  11  17
ATOM     17  C   UNL     1      -0.073  -0.130   2.395  0.00  0.00    +0.020 C 
BRANCH  17  18
ATOM     18  C   UNL     1       0.704  -0.515   3.627  0.00  0.00    +0.201 C 
ATOM     19  O   UNL     1       1.795  -1.033   3.519  0.00  0.00    -0.278 OA
ATOM     20  N   UNL     1       0.186  -0.282   4.850  0.00  0.00    -0.281 N 
ATOM     21  H   UNL     1      -0.686   0.133   4.937  0.00  0.00    +0.155 HD
BRANCH  20  22
ATOM     22  C   UNL     1       0.902  -0.637   5.985  0.00  0.00    +0.089 A 
ATOM     23  C   UNL     1       0.529  -0.481   7.311  0.00  0.00    +0.080 A 
ATOM     24  C   UNL     1       1.470  -0.940   8.306  0.00  0.00    +0.028 A 
ATOM     25  C   UNL     1       2.612  -1.472   7.832  0.00  0.00    +0.048 A 
ATOM     26  S   UNL     1       2.414  -1.359   6.067  0.00  0.00    -0.081 S 
BRANCH  23  27
ATOM     27  C   UNL     1      -0.726   0.106   7.676  0.00  0.00    +0.102 C 
ATOM     28  N   UNL     1      -1.721   0.572   7.965  0.00  0.00    -0.191 NA
ENDBRANCH  23  27
ENDBRANCH  20  22
ENDBRANCH  17  18
ENDBRANCH  11  17
TORSDOF 6
