REMARK  Name = ZINC05027373
REMARK  4 active torsions:
REMARK  status: ('A' for Active; 'I' for Inactive)
REMARK    1  A    between atoms: C_4  and  C_7
REMARK    2  A    between atoms: C_9  and  C_22
REMARK    3  A    between atoms: C_11  and  C_14
REMARK    4  A    between atoms: C_19  and  O_20
REMARK                            x       y       z     vdW  Elec       q    Type
REMARK                         _______ _______ _______ _____ _____    ______ ____
ROOT
ATOM      1  C   UNL     1      -0.449   3.476   1.448  0.00  0.00    +0.040 C 
ATOM      2  N   UNL     1       0.464   4.101   0.805  0.00  0.00    -0.295 NA
ATOM      3  C   UNL     1       1.356   3.477  -0.164  0.00  0.00    +0.117 C 
ATOM      4  C   UNL     1      -0.018   1.503   0.010  0.00  0.00    -0.028 C 
ATOM      5  C   UNL     1      -0.706   2.003   1.284  0.00  0.00    +0.044 C 
ATOM      6  N   UNL     1       1.365   2.016   0.000  0.00  0.00    +0.403 N 
ATOM      7  H   UNL     1       1.824   1.776   0.887  0.00  0.00    -0.081 HD
ATOM      8  H   UNL     1       1.881   1.589  -0.778  0.00  0.00    -0.081 HD
ENDROOT
BRANCH   4   9
ATOM      9  C   UNL     1       0.002  -0.004   0.002  0.00  0.00    -0.018 A 
ATOM     10  C   UNL     1       1.103  -0.683   0.488  0.00  0.00    +0.020 A 
ATOM     11  C   UNL     1       1.120  -2.066   0.485  0.00  0.00    +0.018 A 
ATOM     12  C   UNL     1       0.040  -2.772  -0.014  0.00  0.00    +0.019 A 
ATOM     13  C   UNL     1      -1.060  -2.097  -0.506  0.00  0.00    +0.047 A 
ATOM     14  C   UNL     1      -1.082  -0.710  -0.499  0.00  0.00    +0.119 A 
ATOM     15 BR   UNL     1       2.625  -2.993   1.156  0.00  0.00    -0.050 Br
BRANCH  14  16
ATOM     16  O   UNL     1      -2.163  -0.044  -0.983  0.00  0.00    -0.507 OA
ATOM     17  H   UNL     1      -2.110   0.158  -1.927  0.00  0.00    +0.292 HD
ENDBRANCH  14  16
ENDBRANCH   4   9
BRANCH   1  21
ATOM     18  C   UNL     1      -2.868   5.662   4.167  0.00  0.00    +0.000 A 
ATOM     19  C   UNL     1      -1.872   6.309   3.457  0.00  0.00    +0.001 A 
ATOM     20  C   UNL     1      -1.082   5.605   2.572  0.00  0.00    +0.010 A 
ATOM     21  C   UNL     1      -1.290   4.236   2.393  0.00  0.00    -0.004 A 
ATOM     22  C   UNL     1      -2.301   3.590   3.108  0.00  0.00    +0.010 A 
ATOM     23  C   UNL     1      -3.080   4.305   3.994  0.00  0.00    +0.001 A 
ENDBRANCH   1  21
BRANCH   3  24
ATOM     24  C   UNL     1       2.753   4.005   0.036  0.00  0.00    +0.112 A 
ATOM     25  C   UNL     1       3.074   5.221   0.513  0.00  0.00    +0.045 A 
ATOM     26  C   UNL     1       4.486   5.292   0.536  0.00  0.00    +0.041 A 
ATOM     27  C   UNL     1       4.943   4.118   0.064  0.00  0.00    +0.195 A 
ATOM     28  O   UNL     1       3.889   3.342  -0.237  0.00  0.00    -0.468 OA
ENDBRANCH   3  24
TORSDOF 4
