REMARK  Name = ZINC40757944
REMARK  5 active torsions:
REMARK  status: ('A' for Active; 'I' for Inactive)
REMARK    1  A    between atoms: C_1  and  N_2
REMARK    2  A    between atoms: N_2  and  C_3
REMARK    3  A    between atoms: C_10  and  N_23
REMARK    4  A    between atoms: C_11  and  N_15
REMARK    5  A    between atoms: N_15  and  C_16
REMARK                            x       y       z     vdW  Elec       q    Type
REMARK                         _______ _______ _______ _____ _____    ______ ____
ROOT
ATOM      1  C   UNL     1       1.801   0.168   0.421  0.00  0.00    +0.137 C 
ATOM      2  N   UNL     1       0.431   0.058  -0.087  0.00  0.00    -0.288 N 
ATOM      3  C   UNL     1       0.191  -0.556  -1.311  0.00  0.00    +0.128 A 
ATOM      4  C   UNL     1       0.283   0.172  -2.499  0.00  0.00    +0.104 A 
ATOM      5  C   UNL     1       0.032  -0.494  -3.701  0.00  0.00    +0.149 A 
ATOM      6  N   UNL     1      -0.284  -1.787  -3.668  0.00  0.00    -0.221 NA
ATOM      7  C   UNL     1      -0.360  -2.436  -2.524  0.00  0.00    +0.200 A 
ATOM      8  N   UNL     1      -0.126  -1.847  -1.369  0.00  0.00    -0.333 N 
ATOM      9  H   UNL     1      -0.188  -2.361  -0.548  0.00  0.00    +0.168 HD
ENDROOT
BRANCH   2  10
ATOM     10  C   UNL     1      -0.633   0.571   0.659  0.00  0.00    +0.035 A 
ATOM     11  C   UNL     1      -1.940   0.389   0.223  0.00  0.00    +0.023 A 
ATOM     12  C   UNL     1      -2.990   0.896   0.963  0.00  0.00    +0.002 A 
ATOM     13  C   UNL     1      -2.742   1.585   2.136  0.00  0.00    +0.000 A 
ATOM     14  C   UNL     1      -1.442   1.768   2.573  0.00  0.00    +0.002 A 
ATOM     15  C   UNL     1      -0.388   1.258   1.841  0.00  0.00    +0.023 A 
ENDBRANCH   2  10
BRANCH   4  16
ATOM     16  N   UNL     1       0.618   1.535  -2.487  0.00  0.00    -0.353 N 
ATOM     17  H   UNL     1       0.715   2.002  -1.642  0.00  0.00    +0.143 HD
ATOM     18  H   UNL     1       0.753   2.009  -3.322  0.00  0.00    +0.143 HD
ENDBRANCH   4  16
BRANCH   5  19
ATOM     19  N   UNL     1       0.109   0.183  -4.913  0.00  0.00    -0.295 N 
ATOM     20  H   UNL     1       0.252   1.143  -4.924  0.00  0.00    +0.154 HD
BRANCH  19  21
ATOM     21  C   UNL     1      -0.018  -0.519  -6.115  0.00  0.00    +0.070 A 
ATOM     22  C   UNL     1       0.308  -1.871  -6.182  0.00  0.00    +0.028 A 
ATOM     23  C   UNL     1       0.164  -2.523  -7.396  0.00  0.00    +0.022 A 
ATOM     24  C   UNL     1      -0.294  -1.818  -8.492  0.00  0.00    +0.112 A 
ATOM     25  N   UNL     1      -0.594  -0.537  -8.398  0.00  0.00    -0.242 NA
ATOM     26  C   UNL     1      -0.478   0.121  -7.261  0.00  0.00    +0.150 A 
ATOM     27 CL   UNL     1      -0.896   1.805  -7.196  0.00  0.00    -0.060 Cl
ENDBRANCH  19  21
ENDBRANCH   5  19
TORSDOF 4
