REMARK  Name = ZINC35040469
REMARK  12 active torsions:
REMARK  status: ('A' for Active; 'I' for Inactive)
REMARK    1  A    between atoms: C_1  and  C_2
REMARK    2  A    between atoms: C_6  and  C_38
REMARK    3  A    between atoms: C_7  and  N_8
REMARK    4  A    between atoms: N_11  and  C_12
REMARK    5  A    between atoms: N_11  and  C_17
REMARK    6  A    between atoms: C_12  and  C_13
REMARK    7  A    between atoms: C_13  and  N_14
REMARK    8  A    between atoms: N_14  and  C_15
REMARK    9  A    between atoms: N_14  and  C_16
REMARK   10  A    between atoms: C_17  and  C_19
REMARK   11  A    between atoms: C_17  and  C_20
REMARK   12  A    between atoms: N_30  and  C_31
REMARK                            x       y       z     vdW  Elec       q    Type
REMARK                         _______ _______ _______ _____ _____    ______ ____
ROOT
ATOM      1  C   UNL     1      -0.380  -0.728   6.027  0.00  0.00    +0.141 C 
ATOM      2  C   UNL     1       0.834  -0.237   6.819  0.00  0.00    +0.036 C 
ENDROOT
BRANCH   1   3
ATOM      3  C   UNL     1      -1.636  -0.148   6.625  0.00  0.00    +0.138 A 
ATOM      4  N   UNL     1      -1.727   1.142   6.737  0.00  0.00    -0.231 NA
ATOM      5  C   UNL     1      -2.827   1.735   7.264  0.00  0.00    +0.078 A 
ATOM      6  C   UNL     1      -2.925   3.123   7.385  0.00  0.00    +0.028 A 
ATOM      7  C   UNL     1      -4.061   3.682   7.926  0.00  0.00    +0.002 A 
ATOM      8  C   UNL     1      -5.113   2.882   8.355  0.00  0.00    +0.001 A 
ATOM      9  C   UNL     1      -5.040   1.511   8.247  0.00  0.00    +0.015 A 
ATOM     10  C   UNL     1      -3.899   0.925   7.701  0.00  0.00    +0.065 A 
ATOM     11  C   UNL     1      -3.765  -0.532   7.561  0.00  0.00    +0.266 A 
ATOM     12  O   UNL     1      -4.652  -1.286   7.917  0.00  0.00    -0.267 OA
ATOM     13  N   UNL     1      -2.620  -1.003   7.014  0.00  0.00    -0.263 N 
BRANCH  13  14
ATOM     14  C   UNL     1      -2.444  -2.384   6.853  0.00  0.00    +0.051 A 
ATOM     15  C   UNL     1      -1.565  -3.074   7.677  0.00  0.00    +0.029 A 
ATOM     16  C   UNL     1      -1.393  -4.434   7.517  0.00  0.00    +0.040 A 
ATOM     17  C   UNL     1      -2.097  -5.111   6.535  0.00  0.00    +0.124 A 
ATOM     18  C   UNL     1      -2.973  -4.425   5.711  0.00  0.00    +0.040 A 
ATOM     19  C   UNL     1      -3.152  -3.065   5.872  0.00  0.00    +0.029 A 
ATOM     20  F   UNL     1      -1.927  -6.443   6.380  0.00  0.00    -0.205 F 
ENDBRANCH  13  14
ENDBRANCH   1   3
BRANCH   1  24
ATOM     21  N   UNL     1      -0.106  -0.819   2.362  0.00  0.00    -0.269 N 
ATOM     22  C   UNL     1      -0.218  -1.214   3.646  0.00  0.00    +0.307 C 
ATOM     23  O   UNL     1      -0.280  -2.399   3.913  0.00  0.00    -0.252 OA
ATOM     24  N   UNL     1      -0.259  -0.297   4.632  0.00  0.00    -0.277 N 
ATOM     25  H   UNL     1      -0.016   0.124   2.151  0.00  0.00    +0.156 HD
BRANCH  21  32
ATOM     26  C   UNL     1       1.882  -0.636   0.335  0.00  0.00    +0.045 C 
ATOM     27  C   UNL     1       0.831  -1.715   0.324  0.00  0.00    -0.029 A 
ATOM     28  C   UNL     1       0.816  -2.656  -0.686  0.00  0.00    +0.005 A 
ATOM     29  C   UNL     1      -0.148  -3.647  -0.697  0.00  0.00    +0.001 A 
ATOM     30  C   UNL     1      -1.102  -3.698   0.303  0.00  0.00    +0.005 A 
ATOM     31  C   UNL     1      -1.093  -2.760   1.316  0.00  0.00    -0.029 A 
ATOM     32  C   UNL     1      -0.122  -1.768   1.333  0.00  0.00    +0.041 A 
ATOM     33  C   UNL     1      -2.133  -2.816   2.405  0.00  0.00    +0.045 C 
ENDBRANCH  21  32
BRANCH  24  34
ATOM     34  C   UNL     1      -0.183   1.130   4.310  0.00  0.00    +0.091 C 
BRANCH  34  35
ATOM     35  C   UNL     1      -1.579   1.647   3.953  0.00  0.00    -0.060 C 
BRANCH  35  36
ATOM     36  N   UNL     1      -1.493   3.062   3.568  0.00  0.00    +0.377 N 
ATOM     37  C   UNL     1      -0.705   3.187   2.335  0.00  0.00    -0.097 C 
ATOM     38  C   UNL     1      -2.845   3.590   3.342  0.00  0.00    -0.097 C 
ATOM     39  H   UNL     1      -1.047   3.585   4.307  0.00  0.00    -0.083 HD
ENDBRANCH  35  36
ENDBRANCH  34  35
ENDBRANCH  24  34
ENDBRANCH   1  24
TORSDOF 7
