REMARK  Name = ZINC22047975
REMARK  15 active torsions:
REMARK  status: ('A' for Active; 'I' for Inactive)
REMARK    1  A    between atoms: C_2  and  C_3
REMARK    2  A    between atoms: C_3  and  O_4
REMARK    3  A    between atoms: O_4  and  C_5
REMARK    4  A    between atoms: N_7  and  C_8
REMARK    5  A    between atoms: C_10  and  O_39
REMARK    6  A    between atoms: C_12  and  O_22
REMARK    7  A    between atoms: C_14  and  C_20
REMARK    8  A    between atoms: C_17  and  O_19
REMARK    9  A    between atoms: C_20  and  O_21
REMARK   10  A    between atoms: O_22  and  C_23
REMARK   11  A    between atoms: C_25  and  O_38
REMARK   12  A    between atoms: C_27  and  O_37
REMARK   13  A    between atoms: C_29  and  O_36
REMARK   14  A    between atoms: C_31  and  C_34
REMARK   15  A    between atoms: C_34  and  O_35
REMARK                            x       y       z     vdW  Elec       q    Type
REMARK                         _______ _______ _______ _____ _____    ______ ____
ROOT
ATOM      1  C   UNL     1      -2.598   0.015   3.244  0.00  0.00    +0.163 C 
ATOM      2  C   UNL     1      -1.442   0.081   4.247  0.00  0.00    +0.171 C 
ATOM      3  C   UNL     1      -0.529   1.254   3.880  0.00  0.00    +0.183 C 
ATOM      4  C   UNL     1      -1.353   2.544   3.857  0.00  0.00    +0.178 C 
ATOM      5  O   UNL     1      -2.429   2.404   2.927  0.00  0.00    -0.341 OA
ATOM      6  C   UNL     1      -3.342   1.352   3.245  0.00  0.00    +0.271 C 
ENDROOT
BRANCH   1   9
ATOM      7  C   UNL     1      -4.296  -1.645   2.696  0.00  0.00    +0.401 C 
ATOM      8  O   UNL     1      -4.234  -1.283   1.537  0.00  0.00    -0.226 OA
ATOM      9  N   UNL     1      -3.519  -1.058   3.628  0.00  0.00    -0.271 N 
ATOM     10  H   UNL     1      -3.575  -1.385   4.676  0.00  0.00    +0.153 HD
BRANCH   7  11
ATOM     11  O   UNL     1      -5.142  -2.631   3.049  0.00  0.00    -0.446 OA
BRANCH  11  12
ATOM     12  C   UNL     1      -5.949  -3.216   1.993  0.00  0.00    +0.261 C 
BRANCH  12  14
ATOM     13  C   UNL     1      -8.092  -4.361   2.234  0.00  0.00    +0.007 C 
ATOM     14  C   UNL     1      -6.828  -4.294   2.572  0.00  0.00    +0.006 C 
ENDBRANCH  12  14
ENDBRANCH  11  12
ENDBRANCH   7  11
ENDBRANCH   1   9
BRANCH   6  15
ATOM     15  O   UNL     1      -3.903   1.584   4.539  0.00  0.00    -0.365 OA
ATOM     16  H   UNL     1      -4.478   2.501   4.733  0.00  0.00    +0.213 HD
ENDBRANCH   6  15
BRANCH   2  17
ATOM     17  O   UNL     1      -1.963   0.273   5.564  0.00  0.00    -0.387 OA
ATOM     18  H   UNL     1      -1.277   0.345   6.421  0.00  0.00    +0.210 HD
ENDBRANCH   2  17
BRANCH   4  19
ATOM     19  C   UNL     1      -0.460   3.712   3.433  0.00  0.00    +0.190 C 
BRANCH  19  20
ATOM     20  O   UNL     1      -1.173   4.940   3.598  0.00  0.00    -0.392 OA
ATOM     21  H   UNL     1      -0.689   5.895   3.342  0.00  0.00    +0.210 HD
ENDBRANCH  19  20
ENDBRANCH   4  19
BRANCH   3  22
ATOM     22  O   UNL     1       0.043   1.030   2.590  0.00  0.00    -0.340 OA
BRANCH  22  23
ATOM     23  C   UNL     1       1.466   0.904   2.599  0.00  0.00    +0.282 C 
ATOM     24  C   UNL     1       1.908   0.024   1.427  0.00  0.00    +0.201 C 
ATOM     25  C   UNL     1       1.509   0.701   0.111  0.00  0.00    +0.179 C 
ATOM     26  C   UNL     1       2.136   2.097   0.058  0.00  0.00    +0.177 C 
ATOM     27  C   UNL     1       1.685   2.897   1.283  0.00  0.00    +0.178 C 
ATOM     28  O   UNL     1       2.060   2.197   2.471  0.00  0.00    -0.341 OA
BRANCH  26  29
ATOM     29  O   UNL     1       3.560   1.982   0.061  0.00  0.00    -0.386 OA
ATOM     30  H   UNL     1       4.186   2.886   0.026  0.00  0.00    +0.210 HD
ENDBRANCH  26  29
BRANCH  25  31
ATOM     31  O   UNL     1       0.086   0.812   0.043  0.00  0.00    -0.386 OA
ATOM     32  H   UNL     1      -0.388   1.275  -0.835  0.00  0.00    +0.210 HD
ENDBRANCH  25  31
BRANCH  24  33
ATOM     33  O   UNL     1       1.270  -1.252   1.520  0.00  0.00    -0.384 OA
ATOM     34  H   UNL     1       1.467  -2.022   0.760  0.00  0.00    +0.210 HD
ENDBRANCH  24  33
BRANCH  27  35
ATOM     35  C   UNL     1       2.355   4.273   1.269  0.00  0.00    +0.190 C 
BRANCH  35  36
ATOM     36  O   UNL     1       1.895   5.038   2.385  0.00  0.00    -0.392 OA
ATOM     37  H   UNL     1       2.269   6.061   2.542  0.00  0.00    +0.210 HD
ENDBRANCH  35  36
ENDBRANCH  27  35
ENDBRANCH  22  23
ENDBRANCH   3  22
TORSDOF 15
