REMARK  Name = ZINC37278086
REMARK  9 active torsions:
REMARK  status: ('A' for Active; 'I' for Inactive)
REMARK    1  A    between atoms: C_1  and  C_2
REMARK    2  A    between atoms: C_3  and  C_7
REMARK    3  A    between atoms: C_7  and  C_9
REMARK    4  A    between atoms: C_7  and  N_10
REMARK    5  A    between atoms: N_10  and  C_11
REMARK    6  A    between atoms: C_11  and  C_13
REMARK    7  A    between atoms: C_11  and  C_14
REMARK    8  A    between atoms: C_17  and  S_20
REMARK    9  A    between atoms: S_20  and  N_23
REMARK                            x       y       z     vdW  Elec       q    Type
REMARK                         _______ _______ _______ _____ _____    ______ ____
ROOT
ATOM      1  C   UNL     1      -1.003  -0.519  -4.748  0.00  0.00    -0.043 C 
ATOM      2  C   UNL     1       0.310  -0.921  -5.421  0.00  0.00    -0.009 C 
ENDROOT
BRANCH   1   3
ATOM      3  C   UNL     1      -2.159  -1.132  -5.495  0.00  0.00    -0.062 A 
ATOM      4  C   UNL     1      -2.500  -2.454  -5.277  0.00  0.00    +0.004 A 
ATOM      5  C   UNL     1      -3.560  -3.016  -5.963  0.00  0.00    +0.029 A 
ATOM      6  C   UNL     1      -4.281  -2.256  -6.865  0.00  0.00    +0.105 A 
ATOM      7  C   UNL     1      -3.941  -0.934  -7.082  0.00  0.00    +0.029 A 
ATOM      8  C   UNL     1      -2.883  -0.370  -6.393  0.00  0.00    +0.004 A 
BRANCH   6   9
ATOM      9  S   UNL     1      -5.632  -2.974  -7.739  0.00  0.00    +0.056 S 
ATOM     10  O   UNL     1      -5.800  -2.209  -8.926  0.00  0.00    -0.153 OA
ATOM     11  O   UNL     1      -5.403  -4.376  -7.762  0.00  0.00    -0.153 OA
BRANCH   9  12
ATOM     12  N   UNL     1      -6.991  -2.731  -6.825  0.00  0.00    -0.204 NA
ATOM     13  H   UNL     1      -6.928  -2.264  -5.977  0.00  0.00    +0.144 HD
ATOM     14  H   UNL     1      -7.850  -3.056  -7.137  0.00  0.00    +0.144 HD
ENDBRANCH   9  12
ENDBRANCH   6   9
ENDBRANCH   1   3
BRANCH   1  15
ATOM     15  N   UNL     1      -1.008  -0.998  -3.359  0.00  0.00    +0.388 N 
ATOM     16  H   UNL     1      -0.817  -1.988  -3.344  0.00  0.00    -0.084 HD
ATOM     17  H   UNL     1      -1.912  -0.823  -2.946  0.00  0.00    -0.084 HD
BRANCH  15  18
ATOM     18  C   UNL     1       0.025  -0.288  -2.593  0.00  0.00    -0.035 C 
ATOM     19  C   UNL     1       0.114  -0.882  -1.185  0.00  0.00    -0.008 C 
BRANCH  18  22
ATOM     20  C   UNL     1       1.909   2.149  -3.023  0.00  0.00    +0.066 C 
ATOM     21  C   UNL     1       0.447   2.269  -2.677  0.00  0.00    +0.047 A 
ATOM     22  C   UNL     1      -0.333   1.173  -2.499  0.00  0.00    -0.002 A 
ATOM     23  S   UNL     1      -1.901   1.941  -2.124  0.00  0.00    -0.082 S 
ATOM     24  C   UNL     1      -1.403   3.545  -2.232  0.00  0.00    +0.156 A 
ATOM     25  N   UNL     1      -0.132   3.444  -2.528  0.00  0.00    -0.252 NA
ENDBRANCH  18  22
ENDBRANCH  15  18
ENDBRANCH   1  15
TORSDOF 6
