REMARK  Name = ZINC64886636
REMARK  7 active torsions:
REMARK  status: ('A' for Active; 'I' for Inactive)
REMARK    1  A    between atoms: C_1  and  C_2
REMARK    2  A    between atoms: C_10  and  C_11
REMARK    3  A    between atoms: N_13  and  N_14
REMARK    4  A    between atoms: N_17  and  C_18
REMARK    5  A    between atoms: C_18  and  C_19
REMARK    6  A    between atoms: C_19  and  C_20
REMARK    7  A    between atoms: C_20  and  N_21
REMARK                            x       y       z     vdW  Elec       q    Type
REMARK                         _______ _______ _______ _____ _____    ______ ____
ROOT
ATOM      1  C   UNL     1       0.032  -0.382   2.484  0.00  0.00    +0.296 C 
ATOM      2  O   UNL     1       0.019   0.806   2.745  0.00  0.00    -0.265 OA
ATOM      3  N   UNL     1       0.054  -1.291   3.479  0.00  0.00    -0.227 N 
ATOM      4  H   UNL     1       0.065  -2.238   3.270  0.00  0.00    +0.173 HD
ENDROOT
BRANCH   1  14
ATOM      5  C   UNL     1      -0.018   1.503   0.010  0.00  0.00    +0.048 C 
ATOM      6  C   UNL     1       0.002  -0.004   0.002  0.00  0.00    +0.008 A 
ATOM      7  C   UNL     1       0.009  -0.877  -1.171  0.00  0.00    +0.025 A 
ATOM      8  C   UNL     1      -0.001  -0.654  -2.551  0.00  0.00    +0.012 A 
ATOM      9  C   UNL     1       0.009  -1.717  -3.409  0.00  0.00    +0.002 A 
ATOM     10  C   UNL     1       0.029  -3.016  -2.920  0.00  0.00    +0.024 A 
ATOM     11  C   UNL     1       0.039  -3.258  -1.562  0.00  0.00    +0.084 A 
ATOM     12  C   UNL     1       0.029  -2.191  -0.669  0.00  0.00    +0.154 A 
ATOM     13  O   UNL     1       0.035  -2.113   0.676  0.00  0.00    -0.448 OA
ATOM     14  C   UNL     1       0.024  -0.826   1.083  0.00  0.00    +0.195 A 
ATOM     15 CL   UNL     1       0.063  -4.889  -0.969  0.00  0.00    -0.080 Cl
ENDBRANCH   1  14
BRANCH   3  16
ATOM     16  N   UNL     1       0.062  -0.867   4.814  0.00  0.00    -0.218 N 
ATOM     17  C   UNL     1       0.084  -1.776   5.809  0.00  0.00    +0.316 C 
ATOM     18  O   UNL     1       0.091  -1.408   6.968  0.00  0.00    -0.251 OA
ATOM     19  N   UNL     1       0.099  -3.092   5.520  0.00  0.00    -0.298 N 
ATOM     20  H   UNL     1       0.052   0.080   5.023  0.00  0.00    +0.174 HD
ATOM     21  H   UNL     1       0.094  -3.385   4.595  0.00  0.00    +0.150 HD
BRANCH  19  22
ATOM     22  C   UNL     1       0.123  -4.080   6.601  0.00  0.00    +0.107 C 
BRANCH  22  23
ATOM     23  C   UNL     1       0.136  -5.489   6.005  0.00  0.00    +0.040 C 
BRANCH  23  24
ATOM     24  C   UNL     1       0.161  -6.521   7.135  0.00  0.00    +0.124 C 
BRANCH  24  25
ATOM     25  N   UNL     1       0.173  -7.870   6.564  0.00  0.00    -0.338 N 
ATOM     26  C   UNL     1      -0.921  -8.630   6.253  0.00  0.00    +0.104 A 
ATOM     27  C   UNL     1      -0.460  -9.793   5.755  0.00  0.00    +0.101 A 
ATOM     28  N   UNL     1       0.881  -9.744   5.762  0.00  0.00    -0.352 N 
ATOM     29  C   UNL     1       1.267  -8.593   6.240  0.00  0.00    +0.173 A 
ATOM     30  H   UNL     1       1.470 -10.451   5.457  0.00  0.00    +0.166 HD
ENDBRANCH  24  25
ENDBRANCH  23  24
ENDBRANCH  22  23
ENDBRANCH  19  22
ENDBRANCH   3  16
TORSDOF 6
