REMARK  Name = ZINC63117429
REMARK  14 active torsions:
REMARK  status: ('A' for Active; 'I' for Inactive)
REMARK    1  A    between atoms: C_1  and  C_2
REMARK    2  A    between atoms: C_2  and  O_3
REMARK    3  A    between atoms: O_3  and  C_4
REMARK    4  A    between atoms: C_7  and  C_12
REMARK    5  A    between atoms: C_9  and  O_10
REMARK    6  A    between atoms: O_10  and  C_11
REMARK    7  A    between atoms: C_12  and  C_14
REMARK    8  A    between atoms: C_12  and  C_32
REMARK    9  A    between atoms: C_14  and  N_15
REMARK   10  A    between atoms: C_16  and  C_18
REMARK   11  A    between atoms: C_18  and  C_19
REMARK   12  A    between atoms: C_19  and  C_21
REMARK   13  A    between atoms: C_19  and  N_28
REMARK   14  A    between atoms: C_26  and  C_27
REMARK                            x       y       z     vdW  Elec       q    Type
REMARK                         _______ _______ _______ _____ _____    ______ ____
ROOT
ATOM      1  C   UNL     1      -0.811  -5.700  -0.370  0.00  0.00    +0.064 C 
ENDROOT
BRANCH   1   2
ATOM      2  C   UNL     1      -0.030  -6.264   0.788  0.00  0.00    -0.033 C 
ATOM      3  C   UNL     1      -0.532  -6.825   1.912  0.00  0.00    -0.000 A 
ATOM      4  C   UNL     1      -1.903  -7.069   2.375  0.00  0.00    +0.010 A 
ATOM      5  C   UNL     1      -2.095  -7.663   3.574  0.00  0.00    +0.001 A 
ATOM      6  C   UNL     1      -1.020  -8.052   4.384  0.00  0.00    +0.002 A 
ATOM      7  C   UNL     1       0.268  -7.862   4.028  0.00  0.00    +0.026 A 
ATOM      8  C   UNL     1       0.587  -7.245   2.786  0.00  0.00    +0.043 A 
ATOM      9  N   UNL     1       1.735  -6.955   2.225  0.00  0.00    -0.380 N 
ATOM     10  C   UNL     1       1.475  -6.322   0.927  0.00  0.00    +0.145 C 
ATOM     11  H   UNL     1       2.611  -7.132   2.603  0.00  0.00    +0.160 HD
ENDBRANCH   1   2
BRANCH   1  15
ATOM     12  C   UNL     1       0.157  -1.563  -0.861  0.00  0.00    +0.162 A 
ATOM     13  C   UNL     1       1.148  -2.527  -0.962  0.00  0.00    +0.050 A 
ATOM     14  C   UNL     1       0.832  -3.863  -0.802  0.00  0.00    +0.008 A 
ATOM     15  C   UNL     1      -0.472  -4.242  -0.542  0.00  0.00    -0.035 A 
ATOM     16  C   UNL     1      -1.466  -3.285  -0.441  0.00  0.00    +0.053 A 
ATOM     17  C   UNL     1      -1.154  -1.944  -0.593  0.00  0.00    +0.162 A 
BRANCH  17  18
ATOM     18  O   UNL     1      -2.129  -1.002  -0.488  0.00  0.00    -0.491 OA
ATOM     19  C   UNL     1      -3.452  -1.466  -0.212  0.00  0.00    +0.277 C 
ENDBRANCH  17  18
BRANCH  12  20
ATOM     20  O   UNL     1       0.467  -0.248  -1.017  0.00  0.00    -0.489 OA
BRANCH  20  22
ATOM     21  C   UNL     1       1.987   1.584  -1.433  0.00  0.00    +0.048 C 
ATOM     22  C   UNL     1       1.833   0.069  -1.290  0.00  0.00    +0.226 C 
ENDBRANCH  20  22
ENDBRANCH  12  20
ENDBRANCH   1  15
BRANCH   1  23
ATOM     23  C   UNL     1      -0.452  -6.462  -1.647  0.00  0.00    +0.116 C 
BRANCH  23  24
ATOM     24  N   UNL     1      -0.891  -7.854  -1.525  0.00  0.00    -0.314 N 
ATOM     25  C   UNL     1      -0.678  -8.719  -2.536  0.00  0.00    +0.215 C 
ATOM     26  O   UNL     1      -0.124  -8.344  -3.548  0.00  0.00    -0.276 OA
ATOM     27  H   UNL     1      -1.334  -8.153  -0.716  0.00  0.00    +0.149 HD
BRANCH  25  28
ATOM     28  C   UNL     1      -1.129 -10.151  -2.410  0.00  0.00    +0.123 C 
BRANCH  28  29
ATOM     29  C   UNL     1      -0.770 -10.913  -3.688  0.00  0.00    +0.114 C 
BRANCH  29  30
ATOM     30  C   UNL     1      -1.109 -12.371  -3.515  0.00  0.00    -0.024 A 
ATOM     31  C   UNL     1      -1.936 -12.771  -2.482  0.00  0.00    +0.006 A 
ATOM     32  C   UNL     1      -2.247 -14.108  -2.323  0.00  0.00    +0.000 A 
ATOM     33  C   UNL     1      -1.732 -15.046  -3.199  0.00  0.00    +0.000 A 
ATOM     34  C   UNL     1      -0.906 -14.646  -4.232  0.00  0.00    +0.004 A 
ATOM     35  C   UNL     1      -0.598 -13.308  -4.393  0.00  0.00    -0.045 A 
ATOM     36  C   UNL     1       0.298 -12.872  -5.524  0.00  0.00    +0.044 C 
ENDBRANCH  29  30
BRANCH  29  37
ATOM     37  N   UNL     1      -1.530 -10.365  -4.814  0.00  0.00    -0.292 N 
ATOM     38  C   UNL     1      -2.873 -10.469  -4.834  0.00  0.00    +0.298 C 
ATOM     39  O   UNL     1      -3.462 -10.935  -3.878  0.00  0.00    -0.253 OA
ATOM     40  N   UNL     1      -3.565 -10.058  -5.916  0.00  0.00    -0.313 N 
ATOM     41  H   UNL     1      -1.066  -9.927  -5.544  0.00  0.00    +0.151 HD
ATOM     42  H   UNL     1      -3.095  -9.686  -6.679  0.00  0.00    +0.146 HD
ATOM     43  H   UNL     1      -4.532 -10.133  -5.931  0.00  0.00    +0.146 HD
ENDBRANCH  29  37
ENDBRANCH  28  29
ENDBRANCH  25  28
ENDBRANCH  23  24
ENDBRANCH   1  23
TORSDOF 11
