REMARK  Name = ZINC18323819
REMARK  6 active torsions:
REMARK  status: ('A' for Active; 'I' for Inactive)
REMARK    1  A    between atoms: C_1  and  C_2
REMARK    2  A    between atoms: C_3  and  C_11
REMARK    3  A    between atoms: N_13  and  N_14
REMARK    4  A    between atoms: C_15  and  C_17
REMARK    5  A    between atoms: C_17  and  C_18
REMARK    6  A    between atoms: C_27  and  O_30
REMARK                            x       y       z     vdW  Elec       q    Type
REMARK                         _______ _______ _______ _____ _____    ______ ____
ROOT
ATOM      1  N   UNL     1       0.197  -0.852  -4.801  0.00  0.00    -0.234 N 
ATOM      2  C   UNL     1       0.306  -1.754  -5.796  0.00  0.00    +0.230 C 
ATOM      3  O   UNL     1       0.324  -2.940  -5.540  0.00  0.00    -0.274 OA
ATOM      4  H   UNL     1       0.182   0.096  -5.005  0.00  0.00    +0.173 HD
ENDROOT
BRANCH   1   7
ATOM      5  C   UNL     1      -0.005  -0.381  -2.476  0.00  0.00    +0.279 C 
ATOM      6  O   UNL     1      -0.118   0.803  -2.738  0.00  0.00    -0.267 OA
ATOM      7  N   UNL     1       0.104  -1.283  -3.471  0.00  0.00    -0.229 N 
ATOM      8  H   UNL     1       0.118  -2.231  -3.267  0.00  0.00    +0.173 HD
BRANCH   5  11
ATOM      9  C   UNL     1      -2.527  -0.782  -0.685  0.00  0.00    +0.068 C 
ATOM     10  C   UNL     1      -1.086  -0.999  -0.301  0.00  0.00    +0.069 A 
ATOM     11  C   UNL     1       0.011  -0.810  -1.125  0.00  0.00    +0.133 A 
ATOM     12  N   UNL     1       1.126  -1.122  -0.368  0.00  0.00    -0.295 N 
ATOM     13  C   UNL     1       2.456  -1.119  -0.651  0.00  0.00    +0.093 A 
ATOM     14  C   UNL     1       3.361  -1.475   0.288  0.00  0.00    +0.018 A 
ATOM     15  C   UNL     1       2.935  -1.854   1.569  0.00  0.00    +0.005 A 
ATOM     16  C   UNL     1       1.604  -1.860   1.861  0.00  0.00    +0.047 A 
ATOM     17  C   UNL     1       0.678  -1.486   0.870  0.00  0.00    +0.138 A 
ATOM     18  N   UNL     1      -0.651  -1.398   0.883  0.00  0.00    -0.232 NA
ENDBRANCH   5  11
ENDBRANCH   1   7
BRANCH   2  19
ATOM     19  C   UNL     1       0.405  -1.290  -7.226  0.00  0.00    +0.104 C 
BRANCH  19  20
ATOM     20  C   UNL     1       0.519  -2.505  -8.150  0.00  0.00    -0.018 C 
ATOM     21  C   UNL     1       1.770  -3.308  -7.785  0.00  0.00    +0.011 C 
ATOM     22  C   UNL     1       1.883  -4.522  -8.709  0.00  0.00    -0.007 C 
ATOM     23  C   UNL     1       0.645  -5.406  -8.544  0.00  0.00    +0.007 C 
ATOM     24  C   UNL     1      -0.606  -4.603  -8.908  0.00  0.00    -0.007 C 
ATOM     25  C   UNL     1      -0.719  -3.389  -7.985  0.00  0.00    +0.011 C 
ATOM     26  C   UNL     1      -0.505  -4.132 -10.360  0.00  0.00    +0.038 C 
ATOM     27  C   UNL     1       0.734  -3.249 -10.525  0.00  0.00    +0.067 C 
ATOM     28  C   UNL     1       1.984  -4.051 -10.161  0.00  0.00    +0.038 C 
ATOM     29  C   UNL     1       0.620  -2.034  -9.602  0.00  0.00    +0.042 C 
BRANCH  27  30
ATOM     30  O   UNL     1       0.828  -2.809 -11.881  0.00  0.00    -0.389 OA
ATOM     31  H   UNL     1       0.903  -3.528 -12.524  0.00  0.00    +0.210 HD
ENDBRANCH  27  30
ENDBRANCH  19  20
ENDBRANCH   2  19
TORSDOF 5
