REMARK  Name = ZINC03722903
REMARK  5 active torsions:
REMARK  status: ('A' for Active; 'I' for Inactive)
REMARK    1  A    between atoms: C_4  and  O_7
REMARK    2  A    between atoms: O_7  and  C_8
REMARK    3  A    between atoms: C_12  and  C_14
REMARK    4  A    between atoms: C_18  and  O_25
REMARK    5  A    between atoms: C_19  and  O_24
REMARK                            x       y       z     vdW  Elec       q    Type
REMARK                         _______ _______ _______ _____ _____    ______ ____
ROOT
ATOM      1  C   UNL     1       1.045   3.633  -0.395  0.00  0.00    -0.010 C 
ATOM      2  C   UNL     1       0.821   4.238  -1.756  0.00  0.00    -0.050 A 
ATOM      3  C   UNL     1      -0.129   3.658  -2.586  0.00  0.00    +0.051 A 
ATOM      4  C   UNL     1      -0.372   4.180  -3.843  0.00  0.00    +0.158 A 
ATOM      5  C   UNL     1       0.340   5.295  -4.277  0.00  0.00    +0.158 A 
ATOM      6  C   UNL     1       1.285   5.869  -3.447  0.00  0.00    +0.053 A 
ATOM      7  C   UNL     1       1.526   5.341  -2.187  0.00  0.00    -0.044 A 
ATOM      8  C   UNL     1       2.569   6.000  -1.321  0.00  0.00    +0.016 C 
ATOM      9  C   UNL     1       2.399   5.556   0.132  0.00  0.00    -0.077 C 
ATOM     10  N   UNL     1       2.326   4.083   0.166  0.00  0.00    +0.386 N 
ATOM     11  H   UNL     1       3.097   3.691  -0.388  0.00  0.00    -0.085 HD
ATOM     12  H   UNL     1       2.404   3.761   1.138  0.00  0.00    -0.085 HD
ENDROOT
BRANCH   1  17
ATOM     13  C   UNL     1      -0.055   0.019  -0.305  0.00  0.00    +0.129 A 
ATOM     14  C   UNL     1       1.094  -0.629  -0.737  0.00  0.00    +0.046 A 
ATOM     15  C   UNL     1       2.220   0.105  -1.056  0.00  0.00    +0.004 A 
ATOM     16  C   UNL     1       2.203   1.483  -0.945  0.00  0.00    +0.002 A 
ATOM     17  C   UNL     1       1.059   2.131  -0.514  0.00  0.00    -0.054 A 
ATOM     18  C   UNL     1      -0.070   1.402  -0.194  0.00  0.00    +0.048 A 
BRANCH  13  19
ATOM     19  O   UNL     1      -1.165  -0.701   0.009  0.00  0.00    -0.456 OA
BRANCH  19  23
ATOM     20  C   UNL     1      -0.971  -4.807  -0.332  0.00  0.00    +0.000 A 
ATOM     21  C   UNL     1      -0.631  -4.197   0.861  0.00  0.00    +0.004 A 
ATOM     22  C   UNL     1      -0.696  -2.822   0.978  0.00  0.00    +0.046 A 
ATOM     23  C   UNL     1      -1.101  -2.053  -0.103  0.00  0.00    +0.128 A 
ATOM     24  C   UNL     1      -1.446  -2.668  -1.298  0.00  0.00    +0.046 A 
ATOM     25  C   UNL     1      -1.374  -4.043  -1.412  0.00  0.00    +0.004 A 
ENDBRANCH  19  23
ENDBRANCH  13  19
ENDBRANCH   1  17
BRANCH   5  26
ATOM     26  O   UNL     1       0.107   5.816  -5.511  0.00  0.00    -0.503 OA
ATOM     27  H   UNL     1       0.660   5.438  -6.209  0.00  0.00    +0.292 HD
ENDBRANCH   5  26
BRANCH   4  28
ATOM     28  O   UNL     1      -1.303   3.607  -4.652  0.00  0.00    -0.503 OA
ATOM     29  H   UNL     1      -0.952   2.912  -5.226  0.00  0.00    +0.292 HD
ENDBRANCH   4  28
TORSDOF 5
