REMARK  Name = ZINC01620753
REMARK  5 active torsions:
REMARK  status: ('A' for Active; 'I' for Inactive)
REMARK    1  A    between atoms: C_3  and  S_10
REMARK    2  A    between atoms: C_6  and  C_7
REMARK    3  A    between atoms: C_7  and  N_32
REMARK    4  A    between atoms: S_10  and  N_13
REMARK    5  A    between atoms: N_13  and  C_14
REMARK                            x       y       z     vdW  Elec       q    Type
REMARK                         _______ _______ _______ _____ _____    ______ ____
ROOT
ATOM      1  S   UNL     1      -2.893   3.130   5.065  0.00  0.00    +0.072 S 
ATOM      2  O   UNL     1      -2.812   4.518   5.360  0.00  0.00    -0.150 OA
ATOM      3  O   UNL     1      -4.133   2.455   4.907  0.00  0.00    -0.150 OA
ENDROOT
BRANCH   1   6
ATOM      4  C   UNL     1      -0.365   3.628   1.982  0.00  0.00    +0.003 A 
ATOM      5  C   UNL     1      -1.077   3.827   3.150  0.00  0.00    +0.029 A 
ATOM      6  C   UNL     1      -1.989   2.879   3.574  0.00  0.00    +0.109 A 
ATOM      7  C   UNL     1      -2.192   1.733   2.827  0.00  0.00    +0.029 A 
ATOM      8  C   UNL     1      -1.483   1.536   1.657  0.00  0.00    +0.003 A 
ATOM      9  C   UNL     1      -0.572   2.485   1.233  0.00  0.00    -0.065 A 
BRANCH   9  10
ATOM     10  C   UNL     1       0.201   2.270  -0.043  0.00  0.00    -0.051 C 
BRANCH  10  13
ATOM     11  H   UNL     1      -0.750   3.817  -1.014  0.00  0.00    -0.090 HD
ATOM     12  H   UNL     1      -0.050   2.710  -2.039  0.00  0.00    -0.090 HD
ATOM     13  N   UNL     1      -0.569   2.827  -1.170  0.00  0.00    +0.381 N 
ATOM     14  H   UNL     1      -1.464   2.330  -1.245  0.00  0.00    -0.090 HD
ENDBRANCH  10  13
ENDBRANCH   9  10
ENDBRANCH   1   6
BRANCH   1  15
ATOM     15  N   UNL     1      -2.076   2.342   6.271  0.00  0.00    -0.216 N 
ATOM     16  H   UNL     1      -2.494   1.601   6.736  0.00  0.00    +0.174 HD
BRANCH  15  17
ATOM     17  C   UNL     1      -0.785   2.745   6.619  0.00  0.00    +0.050 A 
ATOM     18  C   UNL     1       0.309   1.973   6.248  0.00  0.00    +0.039 A 
ATOM     19  C   UNL     1       1.586   2.377   6.589  0.00  0.00    +0.021 A 
ATOM     20  C   UNL     1       1.775   3.544   7.307  0.00  0.00    +0.030 A 
ATOM     21  C   UNL     1       0.687   4.313   7.683  0.00  0.00    +0.021 A 
ATOM     22  C   UNL     1      -0.592   3.916   7.340  0.00  0.00    +0.039 A 
ATOM     23 BR   UNL     1       0.951   5.907   8.665  0.00  0.00    -0.050 Br
ATOM     24 BR   UNL     1       3.075   1.330   6.079  0.00  0.00    -0.050 Br
ENDBRANCH  15  17
ENDBRANCH   1  15
TORSDOF 5
