REMARK  Name = ZINC08769873
REMARK  9 active torsions:
REMARK  status: ('A' for Active; 'I' for Inactive)
REMARK    1  A    between atoms: C_1  and  C_2
REMARK    2  A    between atoms: C_5  and  N_8
REMARK    3  A    between atoms: C_11  and  C_17
REMARK    4  A    between atoms: C_12  and  O_16
REMARK    5  A    between atoms: C_14  and  O_15
REMARK    6  A    between atoms: C_21  and  O_29
REMARK    7  A    between atoms: C_22  and  O_27
REMARK    8  A    between atoms: O_27  and  C_28
REMARK    9  A    between atoms: O_29  and  C_30
REMARK                            x       y       z     vdW  Elec       q    Type
REMARK                         _______ _______ _______ _____ _____    ______ ____
ROOT
ATOM      1  N   UNL     1       3.253  -2.840   3.089  0.00  0.00    -0.231 N 
ATOM      2  C   UNL     1       2.759  -1.918   2.236  0.00  0.00    +0.267 A 
ATOM      3  O   UNL     1       2.240  -0.897   2.657  0.00  0.00    -0.267 OA
ATOM      4  C   UNL     1       2.850  -2.156   0.858  0.00  0.00    +0.069 A 
ATOM      5  C   UNL     1       3.441  -3.329   0.424  0.00  0.00    +0.224 A 
ATOM      6  N   UNL     1       3.918  -4.203   1.317  0.00  0.00    -0.161 NA
ATOM      7  C   UNL     1       3.828  -3.975   2.608  0.00  0.00    +0.306 A 
ENDROOT
BRANCH   4   8
ATOM      8  C   UNL     1       2.312  -1.155  -0.131  0.00  0.00    +0.001 C 
ATOM      9  C   UNL     1       3.105   0.121  -0.030  0.00  0.00    -0.050 A 
ATOM     10  C   UNL     1       4.484   0.031   0.099  0.00  0.00    +0.052 A 
ATOM     11  C   UNL     1       5.256   1.175   0.191  0.00  0.00    +0.162 A 
ATOM     12  C   UNL     1       4.643   2.425   0.153  0.00  0.00    +0.162 A 
ATOM     13  C   UNL     1       3.269   2.510   0.026  0.00  0.00    +0.053 A 
ATOM     14  C   UNL     1       2.499   1.359  -0.064  0.00  0.00    -0.044 A 
ATOM     15  C   UNL     1       1.004   1.504  -0.190  0.00  0.00    +0.016 C 
ATOM     16  C   UNL     1       0.392   0.193  -0.683  0.00  0.00    -0.077 C 
ATOM     17  N   UNL     1       0.893  -0.906   0.162  0.00  0.00    +0.387 N 
ATOM     18  H   UNL     1       0.790  -0.650   1.150  0.00  0.00    -0.085 HD
ATOM     19  H   UNL     1       0.352  -1.757  -0.030  0.00  0.00    -0.085 HD
BRANCH  12  20
ATOM     20  O   UNL     1       5.393   3.556   0.240  0.00  0.00    -0.491 OA
ATOM     21  C   UNL     1       4.695   4.802   0.194  0.00  0.00    +0.277 C 
ENDBRANCH  12  20
BRANCH  11  22
ATOM     22  O   UNL     1       6.606   1.080   0.316  0.00  0.00    -0.491 OA
ATOM     23  C   UNL     1       7.164  -0.235   0.347  0.00  0.00    +0.277 C 
ENDBRANCH  11  22
ENDBRANCH   4   8
BRANCH   1  28
ATOM     24  C   UNL     1       2.929  -1.978   8.689  0.00  0.00    +0.044 C 
ATOM     25  C   UNL     1       3.015  -2.207   7.202  0.00  0.00    -0.050 A 
ATOM     26  C   UNL     1       4.118  -1.759   6.497  0.00  0.00    +0.005 A 
ATOM     27  C   UNL     1       4.200  -1.968   5.134  0.00  0.00    +0.026 A 
ATOM     28  C   UNL     1       3.173  -2.627   4.471  0.00  0.00    +0.054 A 
ATOM     29  C   UNL     1       2.065  -3.070   5.181  0.00  0.00    +0.026 A 
ATOM     30  C   UNL     1       1.991  -2.863   6.544  0.00  0.00    +0.005 A 
ENDBRANCH   1  28
BRANCH   7  31
ATOM     31  O   UNL     1       4.317  -4.886   3.475  0.00  0.00    -0.479 OA
ATOM     32  H   UNL     1       4.719  -5.680   3.097  0.00  0.00    +0.295 HD
ENDBRANCH   7  31
BRANCH   5  33
ATOM     33  O   UNL     1       3.540  -3.590  -0.900  0.00  0.00    -0.492 OA
ATOM     34  H   UNL     1       3.967  -4.433  -1.104  0.00  0.00    +0.294 HD
ENDBRANCH   5  33
TORSDOF 6
