REMARK  Name = ZINC48821335
REMARK  7 active torsions:
REMARK  status: ('A' for Active; 'I' for Inactive)
REMARK    1  A    between atoms: C_1  and  C_2
REMARK    2  A    between atoms: C_2  and  C_3
REMARK    3  A    between atoms: N_7  and  C_8
REMARK    4  A    between atoms: C_8  and  C_9
REMARK    5  A    between atoms: C_9  and  C_10
REMARK    6  A    between atoms: N_12  and  C_13
REMARK    7  A    between atoms: C_16  and  N_20
REMARK                            x       y       z     vdW  Elec       q    Type
REMARK                         _______ _______ _______ _____ _____    ______ ____
ROOT
ATOM      1  C   UNL     1      -2.903   1.131  -4.607  0.00  0.00    +0.219 C 
ATOM      2  O   UNL     1      -3.261   0.506  -5.583  0.00  0.00    -0.275 OA
ATOM      3  N   UNL     1      -3.817   1.732  -3.820  0.00  0.00    -0.283 N 
ATOM      4  H   UNL     1      -3.538   2.170  -3.000  0.00  0.00    +0.155 HD
ENDROOT
BRANCH   3   5
ATOM      5  C   UNL     1      -5.171   1.725  -4.185  0.00  0.00    +0.071 A 
ATOM      6  C   UNL     1      -6.004   0.706  -3.743  0.00  0.00    +0.065 A 
ATOM      7  C   UNL     1      -7.338   0.699  -4.103  0.00  0.00    +0.044 A 
ATOM      8  C   UNL     1      -7.846   1.711  -4.907  0.00  0.00    +0.027 A 
ATOM      9  C   UNL     1      -7.013   2.730  -5.349  0.00  0.00    +0.044 A 
ATOM     10  C   UNL     1      -5.680   2.741  -4.984  0.00  0.00    +0.065 A 
ATOM     11 CL   UNL     1      -4.640   4.019  -5.531  0.00  0.00    -0.082 Cl
ATOM     12 CL   UNL     1      -5.370  -0.560  -2.738  0.00  0.00    -0.082 Cl
BRANCH   8  13
ATOM     13  N   UNL     1      -9.196   1.704  -5.271  0.00  0.00    -0.358 N 
ATOM     14  H   UNL     1      -9.778   0.992  -4.962  0.00  0.00    +0.142 HD
ATOM     15  H   UNL     1      -9.551   2.411  -5.832  0.00  0.00    +0.142 HD
ENDBRANCH   8  13
ENDBRANCH   3   5
BRANCH   1  16
ATOM     16  C   UNL     1      -1.437   1.235  -4.275  0.00  0.00    +0.117 C 
BRANCH  16  17
ATOM     17  C   UNL     1      -0.622   0.470  -5.319  0.00  0.00    +0.132 C 
BRANCH  17  22
ATOM     18  C   UNL     1       1.490  -0.218  -4.143  0.00  0.00    +0.087 A 
ATOM     19  N   UNL     1       2.735   0.172  -4.120  0.00  0.00    -0.350 N 
ATOM     20  C   UNL     1       2.885   1.218  -4.947  0.00  0.00    +0.101 A 
ATOM     21  C   UNL     1       1.688   1.486  -5.502  0.00  0.00    +0.104 A 
ATOM     22  N   UNL     1       0.804   0.571  -4.997  0.00  0.00    -0.335 N 
ATOM     23  H   UNL     1       3.440  -0.230  -3.590  0.00  0.00    +0.166 HD
BRANCH  18  25
ATOM     24  C   UNL     1       0.526  -0.876  -1.955  0.00  0.00    +0.012 C 
ATOM     25  C   UNL     1       0.915  -1.365  -3.352  0.00  0.00    +0.069 C 
ENDBRANCH  18  25
ENDBRANCH  17  22
ENDBRANCH  16  17
ENDBRANCH   1  16
TORSDOF 6
