REMARK  Name = ZINC02709621
REMARK  8 active torsions:
REMARK  status: ('A' for Active; 'I' for Inactive)
REMARK    1  A    between atoms: C_1  and  C_2
REMARK    2  A    between atoms: C_3  and  C_30
REMARK    3  A    between atoms: C_5  and  N_22
REMARK    4  A    between atoms: C_6  and  C_7
REMARK    5  A    between atoms: C_7  and  C_9
REMARK    6  A    between atoms: C_7  and  N_16
REMARK    7  A    between atoms: N_16  and  C_17
REMARK    8  A    between atoms: C_23  and  C_25
REMARK                            x       y       z     vdW  Elec       q    Type
REMARK                         _______ _______ _______ _____ _____    ______ ____
ROOT
ATOM      1  C   UNL     1       2.440   1.043  -0.006  0.00  0.00    +0.135 C 
ENDROOT
BRANCH   1   7
ATOM      2  C   UNL     1       2.225  -1.232  -1.813  0.00  0.00    +0.045 C 
ATOM      3  C   UNL     1       2.757   0.089  -2.306  0.00  0.00    -0.033 A 
ATOM      4  C   UNL     1       3.136   0.237  -3.598  0.00  0.00    -0.008 A 
ATOM      5  S   UNL     1       3.672   1.939  -3.637  0.00  0.00    -0.078 S 
ATOM      6  C   UNL     1       3.349   2.345  -1.929  0.00  0.00    +0.078 A 
ATOM      7  C   UNL     1       2.858   1.168  -1.448  0.00  0.00    +0.009 A 
ATOM      8  C   UNL     1       3.117  -0.776  -4.714  0.00  0.00    +0.052 C 
BRANCH   6   9
ATOM      9  N   UNL     1       3.547   3.555  -1.259  0.00  0.00    -0.273 N 
ATOM     10  C   UNL     1       4.124   4.592  -1.898  0.00  0.00    +0.284 C 
ATOM     11  O   UNL     1       4.472   4.474  -3.058  0.00  0.00    -0.266 OA
ATOM     12  H   UNL     1       3.269   3.648  -0.335  0.00  0.00    +0.156 HD
BRANCH  10  13
ATOM     13  C   UNL     1       4.332   5.862  -1.195  0.00  0.00    +0.189 A 
ATOM     14  C   UNL     1       4.901   6.986  -1.720  0.00  0.00    +0.054 A 
ATOM     15  C   UNL     1       4.897   7.953  -0.704  0.00  0.00    +0.042 A 
ATOM     16  C   UNL     1       4.333   7.385   0.385  0.00  0.00    +0.196 A 
ATOM     17  O   UNL     1       3.989   6.126   0.083  0.00  0.00    -0.458 OA
ENDBRANCH  10  13
ENDBRANCH   6   9
ENDBRANCH   1   7
BRANCH   1  18
ATOM     18  C   UNL     1       1.104   1.713   0.190  0.00  0.00    -0.022 A 
ATOM     19  C   UNL     1       1.046   3.044   0.562  0.00  0.00    +0.006 A 
ATOM     20  C   UNL     1      -0.178   3.659   0.742  0.00  0.00    +0.001 A 
ATOM     21  C   UNL     1      -1.346   2.944   0.549  0.00  0.00    +0.015 A 
ATOM     22  C   UNL     1      -1.288   1.614   0.173  0.00  0.00    +0.018 A 
ATOM     23  C   UNL     1      -0.062   0.998  -0.002  0.00  0.00    +0.021 A 
ATOM     24 BR   UNL     1      -2.885   0.637  -0.096  0.00  0.00    -0.050 Br
ENDBRANCH   1  18
BRANCH   1  25
ATOM     25  N   UNL     1       3.439   1.688   0.850  0.00  0.00    -0.320 N 
ATOM     26  H   UNL     1       4.054   2.337   0.474  0.00  0.00    +0.148 HD
BRANCH  25  27
ATOM     27  C   UNL     1       3.507   1.369   2.201  0.00  0.00    +0.097 A 
ATOM     28  C   UNL     1       2.622   0.436   2.735  0.00  0.00    +0.041 A 
ATOM     29  C   UNL     1       2.701   0.128   4.081  0.00  0.00    +0.005 A 
ATOM     30  C   UNL     1       3.665   0.765   4.851  0.00  0.00    +0.018 A 
ATOM     31  C   UNL     1       4.510   1.680   4.256  0.00  0.00    +0.084 A 
ATOM     32  N   UNL     1       4.466   2.002   2.936  0.00  0.00    -0.350 N 
ATOM     33  H   UNL     1       5.114   2.681   2.518  0.00  0.00    +0.166 HD
ENDBRANCH  25  27
ENDBRANCH   1  25
TORSDOF 6
