REMARK  Name = ZINC43285877
REMARK  8 active torsions:
REMARK  status: ('A' for Active; 'I' for Inactive)
REMARK    1  A    between atoms: C_1  and  C_2
REMARK    2  A    between atoms: C_2  and  C_3
REMARK    3  A    between atoms: C_3  and  C_5
REMARK    4  A    between atoms: C_3  and  N_23
REMARK    5  A    between atoms: C_5  and  C_7
REMARK    6  A    between atoms: C_5  and  N_13
REMARK    7  A    between atoms: C_16  and  C_19
REMARK    8  A    between atoms: N_21  and  C_22
REMARK                            x       y       z     vdW  Elec       q    Type
REMARK                         _______ _______ _______ _____ _____    ______ ____
ROOT
ATOM      1  C   UNL     1       0.834  -1.907  -1.222  0.00  0.00    +0.079 C 
ENDROOT
BRANCH   1   2
ATOM      2  C   UNL     1       1.598  -2.478  -0.055  0.00  0.00    +0.006 A 
ATOM      3  C   UNL     1       1.130  -2.921   1.137  0.00  0.00    +0.028 A 
ATOM      4  C   UNL     1       2.026  -3.409   2.070  0.00  0.00    +0.025 A 
ATOM      5  C   UNL     1       3.347  -3.431   1.764  0.00  0.00    +0.060 A 
ATOM      6  S   UNL     1       3.354  -2.753   0.112  0.00  0.00    -0.099 S 
ATOM      7 BR   UNL     1       1.419  -4.038   3.747  0.00  0.00    -0.050 Br
ENDBRANCH   1   2
BRANCH   1   8
ATOM      8  N   UNL     1       1.397  -2.424  -2.476  0.00  0.00    -0.296 NA
ATOM      9  C   UNL     1       0.688  -1.872  -3.638  0.00  0.00    +0.085 C 
ATOM     10  C   UNL     1       1.390  -2.316  -4.923  0.00  0.00    +0.028 C 
ATOM     11  C   UNL     1       1.405  -3.846  -4.989  0.00  0.00    +0.077 C 
ATOM     12  C   UNL     1       2.106  -4.396  -3.744  0.00  0.00    +0.028 C 
ATOM     13  C   UNL     1       1.383  -3.892  -2.493  0.00  0.00    +0.085 C 
BRANCH  11  14
ATOM     14  C   UNL     1       2.148  -4.289  -6.223  0.00  0.00    +0.216 C 
ATOM     15  O   UNL     1       2.620  -3.464  -6.976  0.00  0.00    -0.276 OA
ATOM     16  N   UNL     1       2.288  -5.603  -6.490  0.00  0.00    -0.318 N 
ATOM     17  C   UNL     1       3.010  -6.034  -7.689  0.00  0.00    +0.128 C 
ATOM     18  H   UNL     1       1.910  -6.263  -5.887  0.00  0.00    +0.148 HD
ENDBRANCH  11  14
ENDBRANCH   1   8
BRANCH   1  19
ATOM     19  C   UNL     1       0.943  -0.381  -1.205  0.00  0.00    -0.053 C 
BRANCH  19  20
ATOM     20  N   UNL     1       0.490   0.128   0.097  0.00  0.00    +0.381 N 
ATOM     21  H   UNL     1       0.465   1.137   0.074  0.00  0.00    -0.090 HD
ATOM     22  H   UNL     1      -0.434  -0.226   0.294  0.00  0.00    -0.090 HD
ATOM     23  H   UNL     1       1.128  -0.176   0.817  0.00  0.00    -0.090 HD
ENDBRANCH  19  20
BRANCH  19  25
ATOM     24  C   UNL     1       2.489   1.553  -1.541  0.00  0.00    +0.002 C 
ATOM     25  C   UNL     1       2.399   0.029  -1.434  0.00  0.00    -0.018 C 
ENDBRANCH  19  25
ENDBRANCH   1  19
TORSDOF 6
