REMARK  Name = ZINC35382685
REMARK  3 active torsions:
REMARK  status: ('A' for Active; 'I' for Inactive)
REMARK    1  A    between atoms: C_5  and  C_6
REMARK    2  A    between atoms: C_6  and  C_8
REMARK    3  A    between atoms: C_6  and  N_19
REMARK                            x       y       z     vdW  Elec       q    Type
REMARK                         _______ _______ _______ _____ _____    ______ ____
ROOT
ATOM      1  C   UNL     1      -1.155  -0.970   0.009  0.00  0.00    -0.005 C 
ENDROOT
BRANCH   1   2
ATOM      2  C   UNL     1      -1.397  -1.474  -1.391  0.00  0.00    -0.038 A 
ATOM      3  C   UNL     1      -0.924  -2.717  -1.772  0.00  0.00    +0.009 A 
ATOM      4  C   UNL     1      -1.147  -3.174  -3.051  0.00  0.00    -0.017 A 
ATOM      5  C   UNL     1      -1.843  -2.401  -3.973  0.00  0.00    +0.038 A 
ATOM      6  C   UNL     1      -2.315  -1.150  -3.583  0.00  0.00    +0.043 A 
ATOM      7  C   UNL     1      -2.096  -0.696  -2.297  0.00  0.00    +0.045 A 
ATOM      8 CL   UNL     1      -2.695   0.861  -1.817  0.00  0.00    -0.083 Cl
ATOM      9  N   UNL     1      -1.940  -3.074  -5.191  0.00  0.00    -0.285 N 
ATOM     10  C   UNL     1      -1.343  -4.277  -5.157  0.00  0.00    +0.222 C 
ATOM     11  O   UNL     1      -1.274  -5.073  -6.070  0.00  0.00    -0.275 OA
ATOM     12  C   UNL     1      -0.773  -4.453  -3.765  0.00  0.00    +0.133 C 
ATOM     13  H   UNL     1      -2.387  -2.714  -5.973  0.00  0.00    +0.155 HD
ENDBRANCH   1   2
BRANCH   1  18
ATOM     14  C   UNL     1      -0.016   1.345   0.009  0.00  0.00    +0.013 A 
ATOM     15  C   UNL     1       1.189   2.066   0.002  0.00  0.00    -0.037 A 
ATOM     16  C   UNL     1       2.330   1.335  -0.017  0.00  0.00    -0.007 A 
ATOM     17  S   UNL     1       1.753  -0.347  -0.017  0.00  0.00    -0.099 S 
ATOM     18  C   UNL     1       0.002  -0.004   0.002  0.00  0.00    -0.020 A 
ATOM     19  C   UNL     1       3.557   2.200  -0.032  0.00  0.00    +0.043 C 
ATOM     20  C   UNL     1       3.045   3.595  -0.452  0.00  0.00    +0.010 C 
ATOM     21  C   UNL     1       1.576   3.547   0.013  0.00  0.00    +0.036 C 
ENDBRANCH   1  18
BRANCH   1  22
ATOM     22  N   UNL     1      -0.842  -2.103   0.890  0.00  0.00    +0.386 N 
ATOM     23  H   UNL     1      -0.014  -2.572   0.553  0.00  0.00    -0.089 HD
ATOM     24  H   UNL     1      -0.680  -1.766   1.827  0.00  0.00    -0.089 HD
ATOM     25  H   UNL     1      -1.617  -2.749   0.894  0.00  0.00    -0.089 HD
ENDBRANCH   1  22
TORSDOF 3
