REMARK  Name = ZINC40862215
REMARK  7 active torsions:
REMARK  status: ('A' for Active; 'I' for Inactive)
REMARK    1  A    between atoms: C_1  and  C_2
REMARK    2  A    between atoms: C_2  and  C_4
REMARK    3  A    between atoms: C_2  and  C_15
REMARK    4  A    between atoms: C_4  and  N_5
REMARK    5  A    between atoms: N_5  and  S_6
REMARK    6  A    between atoms: S_6  and  N_9
REMARK    7  A    between atoms: C_15  and  N_16
REMARK                            x       y       z     vdW  Elec       q    Type
REMARK                         _______ _______ _______ _____ _____    ______ ____
ROOT
ATOM      1  N   UNL     1      -0.008  -0.140   2.444  0.00  0.00    -0.180 NA
ATOM      2  H   UNL     1      -0.710   0.528   2.391  0.00  0.00    +0.149 HD
ENDROOT
BRANCH   1   3
ATOM      3  S   UNL     1       0.341  -0.861   3.893  0.00  0.00    +0.097 S 
ATOM      4  O   UNL     1      -0.526  -0.278   4.856  0.00  0.00    -0.141 OA
ATOM      5  O   UNL     1       0.381  -2.261   3.652  0.00  0.00    -0.141 OA
BRANCH   3   6
ATOM      6  N   UNL     1       1.880  -0.408   4.307  0.00  0.00    -0.170 NA
ATOM      7  C   UNL     1       3.042  -1.203   3.880  0.00  0.00    +0.091 C 
ATOM      8  C   UNL     1       4.063  -0.261   3.232  0.00  0.00    -0.065 C 
ATOM      9  N   UNL     1       4.382   0.829   4.163  0.00  0.00    +0.381 N 
ATOM     10  C   UNL     1       3.187   1.647   4.405  0.00  0.00    -0.065 C 
ATOM     11  C   UNL     1       2.123   0.803   5.106  0.00  0.00    +0.091 C 
ATOM     12  H   UNL     1       4.703   0.439   5.037  0.00  0.00    -0.086 HD
ATOM     13  H   UNL     1       5.109   1.406   3.768  0.00  0.00    -0.086 HD
ENDBRANCH   3   6
ENDBRANCH   1   3
BRANCH   1  14
ATOM     14  C   UNL     1       0.742  -0.511   1.242  0.00  0.00    +0.108 C 
BRANCH  14  16
ATOM     15  C   UNL     1      -0.019   1.526   0.010  0.00  0.00    +0.007 C 
ATOM     16  C   UNL     1       0.002  -0.004   0.002  0.00  0.00    -0.015 C 
BRANCH  16  17
ATOM     17  C   UNL     1       0.718  -0.497  -1.257  0.00  0.00    -0.074 C 
BRANCH  17  18
ATOM     18  N   UNL     1      -0.057  -0.113  -2.444  0.00  0.00    +0.380 N 
ATOM     19  C   UNL     1      -1.351  -0.805  -2.427  0.00  0.00    -0.079 C 
ATOM     20  C   UNL     1      -2.195  -0.346  -3.618  0.00  0.00    -0.019 C 
ATOM     21  C   UNL     1      -1.456  -0.676  -4.918  0.00  0.00    -0.004 C 
ATOM     22  C   UNL     1      -0.077  -0.009  -4.892  0.00  0.00    -0.019 C 
ATOM     23  C   UNL     1       0.688  -0.480  -3.654  0.00  0.00    -0.079 C 
ATOM     24  H   UNL     1      -0.211   0.884  -2.435  0.00  0.00    -0.082 HD
ENDBRANCH  17  18
ENDBRANCH  16  17
ENDBRANCH  14  16
ENDBRANCH   1  14
TORSDOF 6
