REMARK  Name = ZINC42912971
REMARK  5 active torsions:
REMARK  status: ('A' for Active; 'I' for Inactive)
REMARK    1  A    between atoms: C_1  and  C_2
REMARK    2  A    between atoms: C_2  and  C_4
REMARK    3  A    between atoms: C_2  and  N_20
REMARK    4  A    between atoms: C_4  and  C_6
REMARK    5  A    between atoms: C_4  and  N_13
REMARK                            x       y       z     vdW  Elec       q    Type
REMARK                         _______ _______ _______ _____ _____    ______ ____
ROOT
ATOM      1  C   UNL     1       0.713  -0.402   1.297  0.00  0.00    +0.073 C 
ENDROOT
BRANCH   1   2
ATOM      2  N   UNL     1       2.048   0.211   1.331  0.00  0.00    -0.287 NA
ATOM      3  C   UNL     1       2.833  -0.296   2.468  0.00  0.00    +0.104 C 
ATOM      4  C   UNL     1       4.292   0.125   2.284  0.00  0.00    +0.119 C 
ATOM      5  N   UNL     1       4.368   1.556   2.004  0.00  0.00    -0.313 N 
ATOM      6  C   UNL     1       3.320   2.271   1.583  0.00  0.00    +0.227 C 
ATOM      7  O   UNL     1       3.479   3.449   1.344  0.00  0.00    -0.274 OA
ATOM      8  C   UNL     1       1.953   1.676   1.394  0.00  0.00    +0.181 C 
ATOM      9  H   UNL     1       5.217   2.008   2.129  0.00  0.00    +0.149 HD
ENDBRANCH   1   2
BRANCH   1  10
ATOM     10  C   UNL     1       0.849  -1.891   1.107  0.00  0.00    -0.032 A 
ATOM     11  C   UNL     1       1.804  -2.393   0.243  0.00  0.00    +0.008 A 
ATOM     12  C   UNL     1       1.929  -3.758   0.068  0.00  0.00    +0.038 A 
ATOM     13  C   UNL     1       1.098  -4.623   0.760  0.00  0.00    +0.123 A 
ATOM     14  C   UNL     1       0.142  -4.119   1.626  0.00  0.00    +0.038 A 
ATOM     15  C   UNL     1       0.022  -2.753   1.802  0.00  0.00    +0.008 A 
ATOM     16  F   UNL     1       1.220  -5.957   0.590  0.00  0.00    -0.205 F 
ENDBRANCH   1  10
BRANCH   1  18
ATOM     17  C   UNL     1      -1.475  -0.459   0.093  0.00  0.00    -0.012 C 
ATOM     18  C   UNL     1      -0.090   0.189   0.137  0.00  0.00    -0.056 C 
BRANCH  18  19
ATOM     19  N   UNL     1       0.612  -0.071  -1.127  0.00  0.00    +0.381 N 
ATOM     20  H   UNL     1       0.082   0.319  -1.893  0.00  0.00    -0.090 HD
ATOM     21  H   UNL     1       1.526   0.356  -1.099  0.00  0.00    -0.090 HD
ATOM     22  H   UNL     1       0.710  -1.066  -1.259  0.00  0.00    -0.090 HD
ENDBRANCH  18  19
ENDBRANCH   1  18
TORSDOF 4
