REMARK  Name = ZINC36136398
REMARK  5 active torsions:
REMARK  status: ('A' for Active; 'I' for Inactive)
REMARK    1  A    between atoms: C_1  and  C_2
REMARK    2  A    between atoms: C_2  and  C_4
REMARK    3  A    between atoms: C_2  and  N_16
REMARK    4  A    between atoms: C_9  and  C_12
REMARK    5  A    between atoms: N_14  and  C_15
REMARK                            x       y       z     vdW  Elec       q    Type
REMARK                         _______ _______ _______ _____ _____    ______ ____
ROOT
ATOM      1  C   UNL     1      -1.391  -0.566   0.128  0.00  0.00    +0.201 C 
ATOM      2  O   UNL     1      -1.701  -1.202   1.113  0.00  0.00    -0.277 OA
ATOM      3  N   UNL     1      -2.294  -0.354  -0.850  0.00  0.00    -0.303 N 
ATOM      4  C   UNL     1      -1.904   0.321  -2.095  0.00  0.00    +0.108 C 
ATOM      5  C   UNL     1      -2.851   1.502  -2.332  0.00  0.00    +0.032 C 
ATOM      6  C   UNL     1      -4.298   1.002  -2.314  0.00  0.00    +0.078 C 
ATOM      7  C   UNL     1      -4.613   0.397  -0.944  0.00  0.00    +0.032 C 
ATOM      8  C   UNL     1      -3.685  -0.801  -0.694  0.00  0.00    +0.108 C 
ENDROOT
BRANCH   6   9
ATOM      9  C   UNL     1      -5.231   2.155  -2.582  0.00  0.00    +0.216 C 
ATOM     10  O   UNL     1      -4.783   3.266  -2.768  0.00  0.00    -0.276 OA
ATOM     11  N   UNL     1      -6.563   1.950  -2.613  0.00  0.00    -0.318 N 
ATOM     12  C   UNL     1      -7.470   3.071  -2.873  0.00  0.00    +0.128 C 
ATOM     13  H   UNL     1      -6.920   1.061  -2.464  0.00  0.00    +0.148 HD
ENDBRANCH   6   9
BRANCH   1  15
ATOM     14  C   UNL     1       0.024   1.440   0.480  0.00  0.00    -0.005 C 
ATOM     15  C   UNL     1       0.005  -0.011  -0.002  0.00  0.00    +0.010 C 
BRANCH  15  16
ATOM     16  N   UNL     1       0.927  -0.811   0.815  0.00  0.00    +0.385 N 
ATOM     17  H   UNL     1       0.639  -0.774   1.781  0.00  0.00    -0.089 HD
ATOM     18  H   UNL     1       0.915  -1.768   0.497  0.00  0.00    -0.089 HD
ATOM     19  H   UNL     1       1.861  -0.440   0.728  0.00  0.00    -0.089 HD
ENDBRANCH  15  16
ENDBRANCH   1  15
TORSDOF 3
