REMARK  Name = ZINC62788891
REMARK  5 active torsions:
REMARK  status: ('A' for Active; 'I' for Inactive)
REMARK    1  A    between atoms: C_1  and  N_2
REMARK    2  A    between atoms: N_2  and  C_3
REMARK    3  A    between atoms: N_2  and  C_10
REMARK    4  A    between atoms: C_3  and  C_4
REMARK    5  A    between atoms: C_15  and  C_16
REMARK                            x       y       z     vdW  Elec       q    Type
REMARK                         _______ _______ _______ _____ _____    ______ ____
ROOT
ATOM      1  C   UNL     1      -0.298  -0.790  -1.276  0.00  0.00    +0.041 A 
ATOM      2  C   UNL     1      -1.575  -0.942  -1.802  0.00  0.00    +0.043 A 
ATOM      3  C   UNL     1      -1.795  -1.828  -2.838  0.00  0.00    +0.043 A 
ATOM      4  C   UNL     1      -0.746  -2.571  -3.361  0.00  0.00    +0.021 A 
ATOM      5  C   UNL     1       0.526  -2.432  -2.851  0.00  0.00    +0.014 A 
ATOM      6  C   UNL     1       0.765  -1.536  -1.807  0.00  0.00    +0.033 A 
ATOM      7 CL   UNL     1      -3.393  -2.014  -3.490  0.00  0.00    -0.083 Cl
ENDROOT
BRANCH   6   8
ATOM      8  C   UNL     1       2.127  -1.379  -1.261  0.00  0.00    +0.096 C 
ATOM      9  N   UNL     1       2.350  -1.573   0.039  0.00  0.00    -0.387 N 
ATOM     10  N   UNL     1       3.134  -1.043  -2.068  0.00  0.00    -0.345 N 
ATOM     11  H   UNL     1       1.633  -1.884   0.613  0.00  0.00    +0.157 HD
ATOM     12  H   UNL     1       2.971  -0.902  -3.014  0.00  0.00    +0.144 HD
ATOM     13  H   UNL     1       4.029  -0.940  -1.709  0.00  0.00    +0.144 HD
ATOM     14  H   UNL     1       3.230  -1.402   0.410  0.00  0.00    +0.157 HD
ENDBRANCH   6   8
BRANCH   1  16
ATOM     15  C   UNL     1       0.414   1.453  -0.518  0.00  0.00    +0.129 C 
ATOM     16  N   UNL     1      -0.074   0.101  -0.234  0.00  0.00    -0.332 N 
BRANCH  16  17
ATOM     17  C   UNL     1      -0.326  -0.311   1.149  0.00  0.00    +0.108 C 
BRANCH  17  18
ATOM     18  C   UNL     1      -1.807  -0.114   1.479  0.00  0.00    +0.006 C 
ATOM     19  C   UNL     1      -2.143   1.378   1.443  0.00  0.00    +0.005 C 
ATOM     20  C   UNL     1      -3.624   1.576   1.773  0.00  0.00    +0.000 C 
ATOM     21  C   UNL     1      -3.914   1.020   3.169  0.00  0.00    +0.000 C 
ATOM     22  C   UNL     1      -3.578  -0.472   3.204  0.00  0.00    +0.000 C 
ATOM     23  C   UNL     1      -2.097  -0.669   2.875  0.00  0.00    +0.005 C 
ENDBRANCH  17  18
ENDBRANCH  16  17
ENDBRANCH   1  16
TORSDOF 4
