REMARK  Name = ZINC08928050
REMARK  7 active torsions:
REMARK  status: ('A' for Active; 'I' for Inactive)
REMARK    1  A    between atoms: C_1  and  C_2
REMARK    2  A    between atoms: C_2  and  N_55
REMARK    3  A    between atoms: C_10  and  O_30
REMARK    4  A    between atoms: C_12  and  C_15
REMARK    5  A    between atoms: C_18  and  O_21
REMARK    6  A    between atoms: O_21  and  C_22
REMARK    7  A    between atoms: C_22  and  C_23
REMARK                            x       y       z     vdW  Elec       q    Type
REMARK                         _______ _______ _______ _____ _____    ______ ____
ROOT
ATOM      1  C   UNL     1      -2.135  -5.327  -7.726  0.00  0.00    -0.074 C 
ATOM      2  C   UNL     1      -1.944  -3.819  -7.537  0.00  0.00    +0.018 C 
ATOM      3  C   UNL     1      -0.604  -3.591  -6.846  0.00  0.00    -0.027 A 
ATOM      4  C   UNL     1       0.007  -4.615  -6.203  0.00  0.00    -0.021 A 
ATOM      5  S   UNL     1       1.506  -3.920  -5.563  0.00  0.00    -0.080 S 
ATOM      6  C   UNL     1       1.322  -2.317  -6.136  0.00  0.00    +0.080 A 
ATOM      7  C   UNL     1       0.099  -2.323  -6.820  0.00  0.00    +0.067 A 
ATOM      8  C   UNL     1      -0.341  -1.044  -7.435  0.00  0.00    +0.220 C 
ATOM      9  N   UNL     1       0.325   0.036  -7.135  0.00  0.00    -0.223 NA
ATOM     10  C   UNL     1       1.409   0.102  -6.163  0.00  0.00    +0.224 C 
ATOM     11  N   UNL     1       2.103  -1.193  -6.035  0.00  0.00    -0.313 N 
ATOM     12  C   UNL     1      -0.500  -6.016  -6.076  0.00  0.00    -0.035 C 
ATOM     13  H   UNL     1       3.060  -1.248  -5.886  0.00  0.00    +0.149 HD
ATOM     14  N   UNL     1      -1.940  -6.011  -6.431  0.00  0.00    +0.383 N 
ATOM     15  H   UNL     1      -2.462  -5.507  -5.705  0.00  0.00    -0.081 HD
ENDROOT
BRANCH  10  16
ATOM     16  C   UNL     1       0.844   0.492  -4.822  0.00  0.00    -0.005 A 
ATOM     17  C   UNL     1      -0.294   1.274  -4.753  0.00  0.00    +0.011 A 
ATOM     18  C   UNL     1      -0.815   1.633  -3.525  0.00  0.00    +0.046 A 
ATOM     19  C   UNL     1      -0.194   1.208  -2.359  0.00  0.00    +0.121 A 
ATOM     20  C   UNL     1       0.951   0.428  -2.431  0.00  0.00    +0.046 A 
ATOM     21  C   UNL     1       1.464   0.067  -3.662  0.00  0.00    +0.011 A 
BRANCH  19  22
ATOM     22  O   UNL     1      -0.704   1.559  -1.150  0.00  0.00    -0.487 OA
BRANCH  22  23
ATOM     23  C   UNL     1      -0.013   1.086   0.008  0.00  0.00    +0.266 C 
BRANCH  23  24
ATOM     24  C   UNL     1      -0.718   1.572   1.248  0.00  0.00    +0.008 A 
ATOM     25  C   UNL     1      -1.851   2.357   1.136  0.00  0.00    +0.008 A 
ATOM     26  C   UNL     1      -2.500   2.799   2.273  0.00  0.00    +0.000 A 
ATOM     27  C   UNL     1      -2.012   2.465   3.523  0.00  0.00    +0.001 A 
ATOM     28  C   UNL     1      -0.877   1.685   3.636  0.00  0.00    +0.020 A 
ATOM     29  C   UNL     1      -0.229   1.237   2.498  0.00  0.00    +0.047 A 
ATOM     30 CL   UNL     1       1.196   0.257   2.639  0.00  0.00    -0.083 Cl
ENDBRANCH  23  24
ENDBRANCH  22  23
ENDBRANCH  19  22
ENDBRANCH  10  16
BRANCH  14  32
ATOM     31  C   UNL     1      -1.997  -8.170  -5.269  0.00  0.00    -0.017 C 
ATOM     32  C   UNL     1      -2.447  -7.398  -6.511  0.00  0.00    -0.082 C 
ENDBRANCH  14  32
BRANCH   8  33
ATOM     33  O   UNL     1      -1.398  -1.002  -8.279  0.00  0.00    -0.492 OA
ATOM     34  H   UNL     1      -1.595  -0.119  -8.619  0.00  0.00    +0.294 HD
ENDBRANCH   8  33
TORSDOF 6
