REMARK  Name = ZINC43415096
REMARK  5 active torsions:
REMARK  status: ('A' for Active; 'I' for Inactive)
REMARK    1  A    between atoms: C_2  and  C_14
REMARK    2  A    between atoms: C_5  and  O_8
REMARK    3  A    between atoms: C_6  and  N_7
REMARK    4  A    between atoms: O_8  and  C_9
REMARK    5  A    between atoms: C_9  and  C_10
REMARK                            x       y       z     vdW  Elec       q    Type
REMARK                         _______ _______ _______ _____ _____    ______ ____
ROOT
ATOM      1  C   UNL     1      -0.017   1.379   0.010  0.00  0.00    +0.045 A 
ATOM      2  C   UNL     1       1.186   2.091   0.002  0.00  0.00    +0.055 A 
ATOM      3  C   UNL     1       2.402   1.402  -0.013  0.00  0.00    +0.037 A 
ATOM      4  C   UNL     1       2.414   0.023  -0.021  0.00  0.00    +0.058 A 
ATOM      5  C   UNL     1       1.220  -0.685  -0.014  0.00  0.00    +0.155 A 
ATOM      6  C   UNL     1       0.002  -0.004   0.002  0.00  0.00    +0.069 A 
ATOM      7  I   UNL     1       4.238  -1.006  -0.045  0.00  0.00    -0.040 I 
ENDROOT
BRANCH   6   8
ATOM      8  N   UNL     1      -1.200  -0.721   0.010  0.00  0.00    -0.355 N 
ATOM      9  H   UNL     1      -2.047  -0.247   0.020  0.00  0.00    +0.142 HD
ATOM     10  H   UNL     1      -1.187  -1.691   0.004  0.00  0.00    +0.142 HD
ENDBRANCH   6   8
BRANCH   2  11
ATOM     11  C   UNL     1       1.173   3.523   0.009  0.00  0.00    +0.099 C 
ATOM     12  N   UNL     1       1.162   4.659   0.015  0.00  0.00    -0.191 NA
ENDBRANCH   2  11
BRANCH   5  13
ATOM     13  O   UNL     1       1.238  -2.043  -0.023  0.00  0.00    -0.480 OA
BRANCH  13  14
ATOM     14  C   UNL     1       1.258  -2.700   1.246  0.00  0.00    +0.324 C 
BRANCH  14  15
ATOM     15  C   UNL     1       1.275  -4.193   1.039  0.00  0.00    +0.248 C 
ATOM     16  O   UNL     1       1.270  -4.649  -0.085  0.00  0.00    -0.272 OA
ATOM     17  N   UNL     1       1.296  -5.020   2.102  0.00  0.00    -0.327 N 
ATOM     18  H   UNL     1       1.300  -4.655   3.001  0.00  0.00    +0.145 HD
ATOM     19  H   UNL     1       1.307  -5.981   1.969  0.00  0.00    +0.145 HD
ENDBRANCH  14  15
ENDBRANCH  13  14
ENDBRANCH   5  13
TORSDOF 5
