REMARK  Name = ZINC37039902
REMARK  8 active torsions:
REMARK  status: ('A' for Active; 'I' for Inactive)
REMARK    1  A    between atoms: C_1  and  C_2
REMARK    2  A    between atoms: C_2  and  C_4
REMARK    3  A    between atoms: C_2  and  N_12
REMARK    4  A    between atoms: N_15  and  C_18
REMARK    5  A    between atoms: C_18  and  C_19
REMARK    6  A    between atoms: C_19  and  C_20
REMARK    7  A    between atoms: C_20  and  C_21
REMARK    8  A    between atoms: C_21  and  N_22
REMARK                            x       y       z     vdW  Elec       q    Type
REMARK                         _______ _______ _______ _____ _____    ______ ____
ROOT
ATOM      1  N   UNL     1      -1.334  -0.630  -0.031  0.00  0.00    -0.295 NA
ATOM      2  C   UNL     1      -1.268  -2.098  -0.002  0.00  0.00    +0.066 C 
ATOM      3  C   UNL     1      -2.686  -2.670  -0.067  0.00  0.00    -0.063 C 
ATOM      4  N   UNL     1      -3.341  -2.217  -1.300  0.00  0.00    +0.381 N 
ATOM      5  C   UNL     1      -3.421  -0.750  -1.303  0.00  0.00    -0.063 C 
ATOM      6  C   UNL     1      -2.010  -0.162  -1.249  0.00  0.00    +0.066 C 
ATOM      7  H   UNL     1      -2.807  -2.526  -2.098  0.00  0.00    -0.082 HD
ENDROOT
BRANCH   1   9
ATOM      8  C   UNL     1      -0.093   1.482  -0.028  0.00  0.00    +0.034 C 
ATOM      9  C   UNL     1       0.007  -0.041   0.087  0.00  0.00    +0.140 C 
BRANCH   9  10
ATOM     10  C   UNL     1       0.601  -0.406   1.423  0.00  0.00    +0.233 C 
ATOM     11  O   UNL     1      -0.125  -0.693   2.351  0.00  0.00    -0.274 OA
ATOM     12  N   UNL     1       1.938  -0.413   1.587  0.00  0.00    -0.296 N 
ATOM     13  C   UNL     1       2.842  -0.166   0.451  0.00  0.00    +0.136 C 
ATOM     14  C   UNL     1       3.847   0.917   0.860  0.00  0.00    +0.179 C 
ATOM     15  O   UNL     1       4.465   0.544   2.094  0.00  0.00    -0.377 OA
ATOM     16  C   UNL     1       3.559   0.440   3.194  0.00  0.00    +0.179 C 
ATOM     17  C   UNL     1       2.539  -0.662   2.907  0.00  0.00    +0.136 C 
ENDBRANCH   9  10
ENDBRANCH   1   9
BRANCH   4  18
ATOM     18  C   UNL     1      -4.696  -2.781  -1.371  0.00  0.00    -0.079 C 
BRANCH  18  19
ATOM     19  C   UNL     1      -5.333  -2.411  -2.712  0.00  0.00    -0.020 C 
BRANCH  19  20
ATOM     20  C   UNL     1      -6.744  -2.999  -2.785  0.00  0.00    -0.021 C 
BRANCH  20  21
ATOM     21  C   UNL     1      -7.381  -2.630  -4.126  0.00  0.00    -0.087 C 
BRANCH  21  22
ATOM     22  N   UNL     1      -8.735  -3.194  -4.197  0.00  0.00    +0.378 N 
ATOM     23  H   UNL     1      -8.686  -4.198  -4.113  0.00  0.00    -0.090 HD
ATOM     24  H   UNL     1      -9.295  -2.821  -3.444  0.00  0.00    -0.090 HD
ATOM     25  H   UNL     1      -9.156  -2.950  -5.081  0.00  0.00    -0.090 HD
ENDBRANCH  21  22
ENDBRANCH  20  21
ENDBRANCH  19  20
ENDBRANCH  18  19
ENDBRANCH   4  18
TORSDOF 7
