REMARK  Name = ZINC56541072
REMARK  8 active torsions:
REMARK  status: ('A' for Active; 'I' for Inactive)
REMARK    1  A    between atoms: C_1  and  C_2
REMARK    2  A    between atoms: C_2  and  C_23
REMARK    3  A    between atoms: C_4  and  N_10
REMARK    4  A    between atoms: C_6  and  C_8
REMARK    5  A    between atoms: C_6  and  C_9
REMARK    6  A    between atoms: N_13  and  C_14
REMARK    7  A    between atoms: C_19  and  O_20
REMARK    8  A    between atoms: O_20  and  C_21
REMARK                            x       y       z     vdW  Elec       q    Type
REMARK                         _______ _______ _______ _____ _____    ______ ____
ROOT
ATOM      1  N   UNL     1       2.625  -0.831  -2.616  0.00  0.00    -0.296 N 
ATOM      2  C   UNL     1       3.775  -0.339  -3.120  0.00  0.00    +0.304 C 
ATOM      3  O   UNL     1       4.378   0.530  -2.520  0.00  0.00    -0.252 OA
ATOM      4  N   UNL     1       4.255  -0.809  -4.288  0.00  0.00    -0.266 N 
ATOM      5  H   UNL     1       2.144  -1.524  -3.095  0.00  0.00    +0.151 HD
ATOM      6  H   UNL     1       3.808  -1.546  -4.734  0.00  0.00    +0.156 HD
ENDROOT
BRANCH   1  10
ATOM      7  C   UNL     1      -0.007   1.497   0.039  0.00  0.00    -0.010 C 
ATOM      8  C   UNL     1       0.023  -0.035   0.028  0.00  0.00    -0.072 C 
ATOM      9  C   UNL     1       0.589  -0.530  -1.299  0.00  0.00    +0.009 C 
ATOM     10  C   UNL     1       2.102  -0.318  -1.344  0.00  0.00    +0.072 C 
ATOM     11  C   UNL     1       2.728  -1.101  -0.190  0.00  0.00    +0.009 C 
ATOM     12  C   UNL     1       2.178  -0.611   1.145  0.00  0.00    -0.072 C 
ATOM     13  N   UNL     1       0.727  -0.558   1.185  0.00  0.00    +0.386 N 
ATOM     14  C   UNL     1       2.794   0.749   1.492  0.00  0.00    -0.010 C 
ATOM     15  C   UNL     1       2.642  -1.609   2.231  0.00  0.00    -0.010 C 
ATOM     16  C   UNL     1      -1.444  -0.517   0.113  0.00  0.00    -0.010 C 
ATOM     17  H   UNL     1       0.448  -0.011   2.005  0.00  0.00    -0.084 HD
ATOM     18  H   UNL     1       0.377  -1.503   1.373  0.00  0.00    -0.084 HD
ENDBRANCH   1  10
BRANCH   4  19
ATOM     19  C   UNL     1       5.398  -0.234  -4.859  0.00  0.00    +0.078 A 
ATOM     20  C   UNL     1       6.417   0.241  -4.046  0.00  0.00    +0.027 A 
ATOM     21  C   UNL     1       7.544   0.808  -4.610  0.00  0.00    +0.003 A 
ATOM     22  C   UNL     1       7.660   0.904  -5.984  0.00  0.00    +0.024 A 
ATOM     23  C   UNL     1       6.648   0.433  -6.802  0.00  0.00    +0.084 A 
ATOM     24  C   UNL     1       5.517  -0.143  -6.243  0.00  0.00    +0.159 A 
ATOM     25 CL   UNL     1       6.797   0.556  -8.527  0.00  0.00    -0.080 Cl
BRANCH  24  26
ATOM     26  O   UNL     1       4.524  -0.612  -7.045  0.00  0.00    -0.492 OA
ATOM     27  C   UNL     1       3.488   0.307  -7.400  0.00  0.00    +0.277 C 
ENDBRANCH  24  26
ENDBRANCH   4  19
TORSDOF 3
