REMARK  Name = ZINC65589307
REMARK  7 active torsions:
REMARK  status: ('A' for Active; 'I' for Inactive)
REMARK    1  A    between atoms: C_1  and  C_2
REMARK    2  A    between atoms: C_7  and  N_8
REMARK    3  A    between atoms: C_12  and  C_14
REMARK    4  A    between atoms: C_14  and  N_15
REMARK    5  A    between atoms: C_19  and  C_20
REMARK    6  A    between atoms: N_22  and  C_23
REMARK    7  A    between atoms: C_23  and  C_24
REMARK                            x       y       z     vdW  Elec       q    Type
REMARK                         _______ _______ _______ _____ _____    ______ ____
ROOT
ATOM      1  C   UNL     1       6.152   1.247   3.525  0.00  0.00    +0.020 C 
ENDROOT
BRANCH   1   6
ATOM      2  N   UNL     1       2.116  -0.004   1.231  0.00  0.00    -0.296 N 
ATOM      3  C   UNL     1       2.795   0.128   2.388  0.00  0.00    +0.306 C 
ATOM      4  O   UNL     1       2.267  -0.174   3.440  0.00  0.00    -0.252 OA
ATOM      5  N   UNL     1       4.059   0.594   2.379  0.00  0.00    -0.242 N 
ATOM      6  C   UNL     1       4.738   0.726   3.536  0.00  0.00    +0.204 C 
ATOM      7  O   UNL     1       4.211   0.424   4.585  0.00  0.00    -0.277 OA
ATOM      8  H   UNL     1       2.538   0.237   0.392  0.00  0.00    +0.151 HD
ATOM      9  H   UNL     1       4.481   0.835   1.539  0.00  0.00    +0.159 HD
BRANCH   2  16
ATOM     10  C   UNL     1      -0.019   1.526   0.010  0.00  0.00    +0.009 C 
ATOM     11  C   UNL     1       0.002  -0.004   0.002  0.00  0.00    +0.006 C 
ATOM     12  C   UNL     1      -1.433  -0.534   0.013  0.00  0.00    +0.005 C 
ATOM     13  C   UNL     1      -1.413  -2.063   0.004  0.00  0.00    +0.000 C 
ATOM     14  C   UNL     1      -0.673  -2.570   1.244  0.00  0.00    +0.002 C 
ATOM     15  C   UNL     1       0.763  -2.041   1.233  0.00  0.00    +0.022 C 
ATOM     16  C   UNL     1       0.742  -0.511   1.242  0.00  0.00    +0.077 C 
ENDBRANCH   2  16
ENDBRANCH   1   6
BRANCH   1  17
ATOM     17  N   UNL     1       6.666   1.296   4.900  0.00  0.00    +0.393 N 
ATOM     18  C   UNL     1       5.907   2.297   5.680  0.00  0.00    -0.077 C 
ATOM     19  C   UNL     1       6.954   2.938   6.625  0.00  0.00    -0.020 C 
ATOM     20  C   UNL     1       8.210   2.986   5.716  0.00  0.00    -0.008 C 
ATOM     21  C   UNL     1       8.086   1.691   4.885  0.00  0.00    +0.020 C 
ATOM     22  H   UNL     1       6.571   0.389   5.332  0.00  0.00    -0.080 HD
BRANCH  21  23
ATOM     23  C   UNL     1       8.928   0.604   5.502  0.00  0.00    +0.200 C 
ATOM     24  O   UNL     1       8.402  -0.407   5.917  0.00  0.00    -0.278 OA
ATOM     25  N   UNL     1      10.264   0.754   5.592  0.00  0.00    -0.308 N 
ATOM     26  H   UNL     1      10.684   1.563   5.260  0.00  0.00    +0.149 HD
BRANCH  25  27
ATOM     27  C   UNL     1      11.082  -0.303   6.191  0.00  0.00    +0.217 C 
BRANCH  27  28
ATOM     28  C   UNL     1      12.553   0.117   6.171  0.00  0.00    +0.405 C 
ATOM     29  F   UNL     1      12.711   1.299   6.901  0.00  0.00    -0.169 F 
ATOM     30  F   UNL     1      13.334  -0.893   6.743  0.00  0.00    -0.169 F 
ATOM     31  F   UNL     1      12.959   0.327   4.849  0.00  0.00    -0.169 F 
ENDBRANCH  27  28
ENDBRANCH  25  27
ENDBRANCH  21  23
ENDBRANCH   1  17
TORSDOF 6
