REMARK  Name = ZINC28822588
REMARK  11 active torsions:
REMARK  status: ('A' for Active; 'I' for Inactive)
REMARK    1  A    between atoms: C_1  and  C_2
REMARK    2  A    between atoms: N_4  and  C_5
REMARK    3  A    between atoms: C_5  and  C_6
REMARK    4  A    between atoms: C_7  and  C_8
REMARK    5  A    between atoms: C_11  and  N_38
REMARK    6  A    between atoms: C_16  and  C_17
REMARK    7  A    between atoms: C_20  and  N_25
REMARK    8  A    between atoms: C_21  and  O_23
REMARK    9  A    between atoms: O_23  and  C_24
REMARK   10  A    between atoms: C_26  and  C_28
REMARK   11  A    between atoms: N_36  and  C_37
REMARK                            x       y       z     vdW  Elec       q    Type
REMARK                         _______ _______ _______ _____ _____    ______ ____
ROOT
ATOM      1  C   UNL     1      -7.394  -8.046  -1.847  0.00  0.00    -0.013 A 
ATOM      2  C   UNL     1      -7.928  -9.230  -1.339  0.00  0.00    +0.010 A 
ATOM      3  C   UNL     1      -9.296  -9.390  -1.256  0.00  0.00    +0.027 A 
ATOM      4  C   UNL     1     -10.143  -8.375  -1.678  0.00  0.00    +0.076 A 
ATOM      5  C   UNL     1      -9.615  -7.190  -2.187  0.00  0.00    +0.142 A 
ATOM      6  C   UNL     1      -8.244  -7.023  -2.267  0.00  0.00    +0.056 A 
ENDROOT
BRANCH   1  15
ATOM      7  C   UNL     1      -2.840  -9.312  -3.441  0.00  0.00    +0.005 A 
ATOM      8  C   UNL     1      -3.344 -10.395  -4.159  0.00  0.00    +0.093 A 
ATOM      9  N   UNL     1      -4.641 -10.647  -4.153  0.00  0.00    -0.349 N 
ATOM     10  C   UNL     1      -5.518  -9.920  -3.492  0.00  0.00    +0.103 A 
ATOM     11  C   UNL     1      -5.114  -8.794  -2.728  0.00  0.00    +0.035 A 
ATOM     12  C   UNL     1      -3.733  -8.517  -2.721  0.00  0.00    +0.032 A 
ATOM     13  S   UNL     1      -3.589  -7.087  -1.687  0.00  0.00    -0.095 S 
ATOM     14  C   UNL     1      -5.308  -6.867  -1.270  0.00  0.00    +0.055 A 
ATOM     15  C   UNL     1      -5.925  -7.873  -1.936  0.00  0.00    +0.000 A 
ATOM     16  H   UNL     1      -4.964 -11.407  -4.662  0.00  0.00    +0.167 HD
BRANCH  10  17
ATOM     17  N   UNL     1      -6.862 -10.260  -3.545  0.00  0.00    -0.344 N 
ATOM     18  H   UNL     1      -7.123 -11.170  -3.752  0.00  0.00    +0.144 HD
ATOM     19  H   UNL     1      -7.539  -9.587  -3.374  0.00  0.00    +0.144 HD
ENDBRANCH  10  17
BRANCH   7  21
ATOM     20  C   UNL     1      -0.557  -9.782  -4.126  0.00  0.00    -0.008 C 
ATOM     21  C   UNL     1      -1.393  -9.016  -3.436  0.00  0.00    +0.008 C 
BRANCH  20  22
ATOM     22  C   UNL     1       0.919  -9.480  -4.121  0.00  0.00    +0.131 C 
BRANCH  22  26
ATOM     23  C   UNL     1       3.766 -11.857  -3.172  0.00  0.00    +0.109 C 
ATOM     24  C   UNL     1       3.004 -10.633  -3.612  0.00  0.00    +0.210 C 
ATOM     25  O   UNL     1       3.602  -9.616  -3.895  0.00  0.00    -0.276 OA
ATOM     26  N   UNL     1       1.659 -10.669  -3.692  0.00  0.00    -0.312 N 
ATOM     27  H   UNL     1       1.182 -11.483  -3.467  0.00  0.00    +0.149 HD
ENDBRANCH  22  26
ENDBRANCH  20  22
ENDBRANCH   7  21
ENDBRANCH   1  15
BRANCH   4  28
ATOM     28  N   UNL     1     -11.531  -8.542  -1.593  0.00  0.00    -0.277 N 
ATOM     29  C   UNL     1     -12.065  -9.241  -0.571  0.00  0.00    +0.265 C 
ATOM     30  O   UNL     1     -11.338  -9.759   0.256  0.00  0.00    -0.268 OA
ATOM     31  H   UNL     1     -12.109  -8.155  -2.270  0.00  0.00    +0.155 HD
BRANCH  29  32
ATOM     32  C   UNL     1     -13.524  -9.377  -0.457  0.00  0.00    +0.105 A 
ATOM     33  C   UNL     1     -14.176 -10.096   0.495  0.00  0.00    +0.041 A 
ATOM     34  C   UNL     1     -15.565  -9.969   0.255  0.00  0.00    +0.001 A 
ATOM     35  C   UNL     1     -16.703 -10.477   0.895  0.00  0.00    +0.010 A 
ATOM     36  C   UNL     1     -17.944 -10.172   0.418  0.00  0.00    +0.001 A 
ATOM     37  C   UNL     1     -18.092  -9.360  -0.700  0.00  0.00    +0.002 A 
ATOM     38  C   UNL     1     -16.990  -8.848  -1.347  0.00  0.00    +0.026 A 
ATOM     39  C   UNL     1     -15.713  -9.145  -0.878  0.00  0.00    +0.049 A 
ATOM     40  N   UNL     1     -14.451  -8.789  -1.295  0.00  0.00    -0.339 N 
ATOM     41  C   UNL     1     -14.142  -7.931  -2.441  0.00  0.00    +0.149 C 
ENDBRANCH  29  32
ENDBRANCH   4  28
BRANCH   5  42
ATOM     42  O   UNL     1     -10.446  -6.197  -2.601  0.00  0.00    -0.493 OA
ATOM     43  C   UNL     1      -9.835  -5.010  -3.111  0.00  0.00    +0.277 C 
ENDBRANCH   5  42
TORSDOF 8
