REMARK  Name = ZINC58961557
REMARK  8 active torsions:
REMARK  status: ('A' for Active; 'I' for Inactive)
REMARK    1  A    between atoms: C_1  and  C_2
REMARK    2  A    between atoms: C_2  and  C_4
REMARK    3  A    between atoms: C_2  and  S_14
REMARK    4  A    between atoms: N_6  and  N_7
REMARK    5  A    between atoms: N_10  and  C_13
REMARK    6  A    between atoms: S_14  and  C_15
REMARK    7  A    between atoms: C_17  and  C_25
REMARK    8  A    between atoms: C_19  and  C_21
REMARK                            x       y       z     vdW  Elec       q    Type
REMARK                         _______ _______ _______ _____ _____    ______ ____
ROOT
ATOM      1  C   UNL     1       2.509  -0.029  -1.285  0.00  0.00    +0.190 A 
ATOM      2  N   UNL     1       3.401  -0.295  -2.227  0.00  0.00    -0.222 NA
ATOM      3  C   UNL     1       4.662   0.115  -2.101  0.00  0.00    +0.077 A 
ATOM      4  C   UNL     1       5.030   0.832  -0.959  0.00  0.00    +0.060 A 
ATOM      5  C   UNL     1       4.065   1.088  -0.001  0.00  0.00    +0.148 A 
ATOM      6  N   UNL     1       2.830   0.654  -0.195  0.00  0.00    -0.218 NA
ENDROOT
BRANCH   3   7
ATOM      7  C   UNL     1       5.659  -0.184  -3.156  0.00  0.00    +0.019 A 
ATOM      8  C   UNL     1       6.978   0.244  -3.014  0.00  0.00    +0.013 A 
ATOM      9  C   UNL     1       7.902  -0.037  -3.999  0.00  0.00    +0.021 A 
ATOM     10  C   UNL     1       7.523  -0.744  -5.128  0.00  0.00    +0.042 A 
ATOM     11  C   UNL     1       6.215  -1.172  -5.275  0.00  0.00    +0.040 A 
ATOM     12  C   UNL     1       5.282  -0.901  -4.293  0.00  0.00    +0.052 A 
ATOM     13 CL   UNL     1       3.644  -1.445  -4.475  0.00  0.00    -0.083 Cl
ATOM     14 CL   UNL     1       8.691  -1.093  -6.363  0.00  0.00    -0.083 Cl
ENDBRANCH   3   7
BRANCH   5  15
ATOM     15  C   UNL     1       4.416   1.856   1.246  0.00  0.00    +0.434 C 
ATOM     16  F   UNL     1       4.218   3.223   1.023  0.00  0.00    -0.164 F 
ATOM     17  F   UNL     1       3.599   1.433   2.300  0.00  0.00    -0.164 F 
ATOM     18  F   UNL     1       5.756   1.626   1.575  0.00  0.00    -0.164 F 
ENDBRANCH   5  15
BRANCH   1  19
ATOM     19  S   UNL     1       0.851  -0.589  -1.490  0.00  0.00    -0.074 S 
BRANCH  19  21
ATOM     20  C   UNL     1      -0.019   1.526   0.010  0.00  0.00    +0.029 C 
ATOM     21  C   UNL     1       0.002  -0.004   0.002  0.00  0.00    +0.138 C 
BRANCH  21  22
ATOM     22  C   UNL     1      -1.412  -0.526   0.013  0.00  0.00    +0.240 C 
ATOM     23  O   UNL     1      -1.927  -0.901  -1.019  0.00  0.00    -0.273 OA
ATOM     24  N   UNL     1      -2.103  -0.575   1.169  0.00  0.00    -0.247 N 
ATOM     25  H   UNL     1      -1.691  -0.275   1.994  0.00  0.00    +0.169 HD
BRANCH  24  26
ATOM     26  N   UNL     1      -3.385  -1.048   1.178  0.00  0.00    -0.231 NA
ATOM     27  C   UNL     1      -4.331   0.003   1.578  0.00  0.00    +0.087 C 
ATOM     28  C   UNL     1      -5.757  -0.549   1.519  0.00  0.00    -0.062 C 
ATOM     29  N   UNL     1      -5.873  -1.704   2.419  0.00  0.00    +0.380 N 
ATOM     30  C   UNL     1      -4.939  -2.755   1.992  0.00  0.00    -0.062 C 
ATOM     31  C   UNL     1      -3.507  -2.221   2.055  0.00  0.00    +0.087 C 
ATOM     32  C   UNL     1      -7.247  -2.222   2.375  0.00  0.00    -0.096 C 
ATOM     33  H   UNL     1      -5.651  -1.419   3.361  0.00  0.00    -0.082 HD
ENDBRANCH  24  26
ENDBRANCH  21  22
ENDBRANCH  19  21
ENDBRANCH   1  19
TORSDOF 6
