REMARK  Name = ZINC12953857
REMARK  12 active torsions:
REMARK  status: ('A' for Active; 'I' for Inactive)
REMARK    1  A    between atoms: C_1  and  C_2
REMARK    2  A    between atoms: C_4  and  C_33
REMARK    3  A    between atoms: C_5  and  C_9
REMARK    4  A    between atoms: C_6  and  C_8
REMARK    5  A    between atoms: C_9  and  S_10
REMARK    6  A    between atoms: S_10  and  C_11
REMARK    7  A    between atoms: C_15  and  O_31
REMARK    8  A    between atoms: C_16  and  O_29
REMARK    9  A    between atoms: N_20  and  C_21
REMARK   10  A    between atoms: C_21  and  C_22
REMARK   11  A    between atoms: O_29  and  C_30
REMARK   12  A    between atoms: O_31  and  C_32
REMARK                            x       y       z     vdW  Elec       q    Type
REMARK                         _______ _______ _______ _____ _____    ______ ____
ROOT
ATOM      1  C   UNL     1       4.966  -1.244  -2.900  0.00  0.00    +0.171 A 
ATOM      2  N   UNL     1       4.569  -0.963  -1.685  0.00  0.00    -0.223 NA
ATOM      3  C   UNL     1       5.210  -1.442  -0.588  0.00  0.00    +0.081 A 
ATOM      4  C   UNL     1       4.770  -1.130   0.699  0.00  0.00    +0.078 A 
ATOM      5  C   UNL     1       5.445  -1.632   1.795  0.00  0.00    +0.164 A 
ATOM      6  C   UNL     1       6.565  -2.451   1.627  0.00  0.00    +0.162 A 
ATOM      7  C   UNL     1       7.013  -2.769   0.361  0.00  0.00    +0.063 A 
ATOM      8  C   UNL     1       6.341  -2.269  -0.753  0.00  0.00    +0.044 A 
ATOM      9  C   UNL     1       6.782  -2.580  -2.125  0.00  0.00    +0.116 A 
ATOM     10  N   UNL     1       6.046  -2.040  -3.166  0.00  0.00    -0.302 N 
ATOM     11  H   UNL     1       8.386  -3.759  -1.672  0.00  0.00    +0.157 HD
ATOM     12  N   UNL     1       7.829  -3.345  -2.420  0.00  0.00    -0.384 N 
ATOM     13  H   UNL     1       8.078  -3.519  -3.401  0.00  0.00    +0.157 HD
ENDROOT
BRANCH   6  14
ATOM     14  O   UNL     1       7.218  -2.937   2.718  0.00  0.00    -0.491 OA
ATOM     15  C   UNL     1       8.355  -3.768   2.476  0.00  0.00    +0.277 C 
ENDBRANCH   6  14
BRANCH   5  16
ATOM     16  O   UNL     1       5.016  -1.327   3.048  0.00  0.00    -0.491 OA
ATOM     17  C   UNL     1       3.866  -0.485   3.153  0.00  0.00    +0.277 C 
ENDBRANCH   5  16
BRANCH   1  18
ATOM     18  S   UNL     1       4.063  -0.572  -4.255  0.00  0.00    -0.083 S 
BRANCH  18  19
ATOM     19  C   UNL     1       2.791   0.352  -3.359  0.00  0.00    +0.113 C 
BRANCH  19  24
ATOM     20  C   UNL     1      -0.719   2.953  -7.141  0.00  0.00    +0.044 C 
ATOM     21  C   UNL     1       0.194   2.277  -6.151  0.00  0.00    -0.050 A 
ATOM     22  C   UNL     1       1.321   2.931  -5.691  0.00  0.00    +0.007 A 
ATOM     23  C   UNL     1       2.162   2.308  -4.788  0.00  0.00    -0.046 A 
ATOM     24  C   UNL     1       1.875   1.031  -4.344  0.00  0.00    -0.031 A 
ATOM     25  C   UNL     1       0.748   0.376  -4.804  0.00  0.00    -0.046 A 
ATOM     26  C   UNL     1      -0.093   0.999  -5.707  0.00  0.00    +0.007 A 
ATOM     27  C   UNL     1       0.435  -1.016  -4.320  0.00  0.00    +0.044 C 
ATOM     28  C   UNL     1       3.390   3.022  -4.286  0.00  0.00    +0.044 C 
ENDBRANCH  19  24
ENDBRANCH  18  19
ENDBRANCH   1  18
BRANCH  10  29
ATOM     29  C   UNL     1       6.428  -2.316  -4.553  0.00  0.00    +0.162 C 
BRANCH  29  30
ATOM     30  C   UNL     1       5.785  -3.602  -5.005  0.00  0.00    -0.009 A 
ATOM     31  C   UNL     1       4.461  -3.610  -5.402  0.00  0.00    +0.007 A 
ATOM     32  C   UNL     1       3.870  -4.789  -5.816  0.00  0.00    +0.000 A 
ATOM     33  C   UNL     1       4.603  -5.961  -5.834  0.00  0.00    +0.001 A 
ATOM     34  C   UNL     1       5.927  -5.954  -5.437  0.00  0.00    +0.020 A 
ATOM     35  C   UNL     1       6.520  -4.773  -5.027  0.00  0.00    +0.046 A 
ATOM     36 CL   UNL     1       8.185  -4.762  -4.535  0.00  0.00    -0.083 Cl
ENDBRANCH  29  30
ENDBRANCH  10  29
TORSDOF 7
