REMARK  Name = ZINC28421886
REMARK  8 active torsions:
REMARK  status: ('A' for Active; 'I' for Inactive)
REMARK    1  A    between atoms: C_1  and  C_2
REMARK    2  A    between atoms: C_2  and  O_3
REMARK    3  A    between atoms: O_3  and  C_4
REMARK    4  A    between atoms: C_9  and  N_12
REMARK    5  A    between atoms: N_15  and  C_16
REMARK    6  A    between atoms: N_19  and  C_22
REMARK    7  A    between atoms: C_22  and  C_23
REMARK    8  A    between atoms: N_25  and  C_26
REMARK                            x       y       z     vdW  Elec       q    Type
REMARK                         _______ _______ _______ _____ _____    ______ ____
ROOT
ATOM      1  N   UNL     1       5.013  -3.648   4.126  0.00  0.00    -0.296 N 
ATOM      2  C   UNL     1       5.333  -4.712   4.889  0.00  0.00    +0.300 C 
ATOM      3  O   UNL     1       4.456  -5.382   5.398  0.00  0.00    -0.253 OA
ATOM      4  N   UNL     1       6.627  -5.033   5.088  0.00  0.00    -0.297 N 
ATOM      5  H   UNL     1       5.713  -3.114   3.721  0.00  0.00    +0.151 HD
ATOM      6  H   UNL     1       7.328  -4.498   4.682  0.00  0.00    +0.151 HD
ENDROOT
BRANCH   1  12
ATOM      7  C   UNL     1       0.801  -1.812   1.304  0.00  0.00    +0.403 C 
ATOM      8  O   UNL     1       0.321  -2.554   0.470  0.00  0.00    -0.226 OA
ATOM      9  N   UNL     1       1.441  -2.324   2.374  0.00  0.00    -0.267 N 
ATOM     10  C   UNL     1       2.021  -1.440   3.394  0.00  0.00    +0.113 C 
ATOM     11  C   UNL     1       3.495  -1.808   3.585  0.00  0.00    +0.041 C 
ATOM     12  C   UNL     1       3.607  -3.299   3.910  0.00  0.00    +0.077 C 
ATOM     13  C   UNL     1       3.051  -4.120   2.744  0.00  0.00    +0.041 C 
ATOM     14  C   UNL     1       1.567  -3.778   2.546  0.00  0.00    +0.113 C 
BRANCH   7  15
ATOM     15  O   UNL     1       0.693  -0.477   1.160  0.00  0.00    -0.451 OA
BRANCH  15  17
ATOM     16  C   UNL     1      -0.019   1.526   0.010  0.00  0.00    +0.048 C 
ATOM     17  C   UNL     1       0.002  -0.004   0.002  0.00  0.00    +0.230 C 
ENDBRANCH  15  17
ENDBRANCH   7  15
ENDBRANCH   1  12
BRANCH   4  18
ATOM     18  C   UNL     1       6.976  -6.190   5.917  0.00  0.00    +0.071 C 
ATOM     19  C   UNL     1       7.016  -5.771   7.389  0.00  0.00    +0.004 C 
ATOM     20  C   UNL     1       7.458  -6.963   8.242  0.00  0.00    -0.076 C 
ATOM     21  N   UNL     1       8.793  -7.402   7.820  0.00  0.00    +0.385 N 
ATOM     22  C   UNL     1       8.747  -7.872   6.430  0.00  0.00    -0.076 C 
ATOM     23  C   UNL     1       8.355  -6.715   5.509  0.00  0.00    +0.004 C 
ATOM     24  H   UNL     1       9.438  -6.629   7.891  0.00  0.00    -0.081 HD
BRANCH  21  25
ATOM     25  C   UNL     1       9.245  -8.495   8.691  0.00  0.00    +0.019 C 
BRANCH  25  26
ATOM     26  C   UNL     1      10.664  -8.864   8.339  0.00  0.00    +0.196 C 
ATOM     27  O   UNL     1      11.241  -8.274   7.450  0.00  0.00    -0.278 OA
ATOM     28  N   UNL     1      11.290  -9.849   9.012  0.00  0.00    -0.320 N 
ATOM     29  C   UNL     1      12.669 -10.208   8.669  0.00  0.00    +0.128 C 
ATOM     30  H   UNL     1      10.829 -10.320   9.723  0.00  0.00    +0.148 HD
ENDBRANCH  25  26
ENDBRANCH  21  25
ENDBRANCH   4  18
TORSDOF 6
