REMARK  Name = ZINC41584997
REMARK  7 active torsions:
REMARK  status: ('A' for Active; 'I' for Inactive)
REMARK    1  A    between atoms: C_1  and  C_2
REMARK    2  A    between atoms: C_4  and  O_37
REMARK    3  A    between atoms: C_5  and  C_20
REMARK    4  A    between atoms: C_11  and  C_12
REMARK    5  A    between atoms: C_20  and  N_21
REMARK    6  A    between atoms: N_24  and  C_27
REMARK    7  A    between atoms: C_27  and  C_28
REMARK                            x       y       z     vdW  Elec       q    Type
REMARK                         _______ _______ _______ _____ _____    ______ ____
ROOT
ATOM      1  C   UNL     1       0.372   1.463  -0.008  0.00  0.00    +0.045 C 
ATOM      2  C   UNL     1       0.064  -0.012  -0.001  0.00  0.00    -0.033 A 
ATOM      3  C   UNL     1      -0.156  -0.670  -1.179  0.00  0.00    +0.050 A 
ATOM      4  C   UNL     1      -0.441  -2.033  -1.175  0.00  0.00    +0.122 A 
ATOM      5  C   UNL     1      -0.505  -2.737   0.017  0.00  0.00    +0.020 A 
ATOM      6  C   UNL     1      -0.284  -2.083   1.222  0.00  0.00    +0.145 A 
ATOM      7  C   UNL     1       0.008  -0.710   1.206  0.00  0.00    +0.071 A 
ATOM      8  C   UNL     1       0.198  -0.308   2.611  0.00  0.00    +0.232 C 
ATOM      9  O   UNL     1       0.462   0.801   3.041  0.00  0.00    -0.283 OA
ATOM     10  C   UNL     1      -0.004  -1.548   3.379  0.00  0.00    +0.176 C 
ATOM     11  C   UNL     1       0.069  -1.676   4.727  0.00  0.00    +0.058 C 
ATOM     12  O   UNL     1      -0.289  -2.533   2.496  0.00  0.00    -0.451 OA
ENDROOT
BRANCH  11  13
ATOM     13  C   UNL     1      -0.018  -3.007   5.344  0.00  0.00    -0.019 A 
ATOM     14  C   UNL     1      -0.004  -4.156   4.544  0.00  0.00    +0.008 A 
ATOM     15  C   UNL     1      -0.086  -5.401   5.130  0.00  0.00    +0.003 A 
ATOM     16  C   UNL     1      -0.181  -5.519   6.505  0.00  0.00    +0.038 A 
ATOM     17  C   UNL     1      -0.196  -4.388   7.306  0.00  0.00    +0.124 A 
ATOM     18  C   UNL     1      -0.109  -3.133   6.735  0.00  0.00    +0.046 A 
ATOM     19  F   UNL     1      -0.291  -4.512   8.648  0.00  0.00    -0.205 F 
ENDBRANCH  11  13
BRANCH   4  20
ATOM     20  O   UNL     1      -0.659  -2.678  -2.350  0.00  0.00    -0.506 OA
ATOM     21  H   UNL     1       0.141  -3.045  -2.751  0.00  0.00    +0.292 HD
ENDBRANCH   4  20
BRANCH   5  22
ATOM     22  C   UNL     1      -0.815  -4.212   0.005  0.00  0.00    -0.035 C 
BRANCH  22  23
ATOM     23  N   UNL     1       0.436  -4.974  -0.093  0.00  0.00    +0.384 N 
ATOM     24  C   UNL     1       1.076  -4.700  -1.387  0.00  0.00    -0.063 C 
ATOM     25  C   UNL     1       2.389  -5.480  -1.482  0.00  0.00    +0.066 C 
ATOM     26  N   UNL     1       2.113  -6.917  -1.348  0.00  0.00    -0.302 NA
ATOM     27  C   UNL     1       1.450  -7.204  -0.068  0.00  0.00    +0.066 C 
ATOM     28  C   UNL     1       0.145  -6.410   0.016  0.00  0.00    -0.063 C 
ATOM     29  H   UNL     1       1.057  -4.700   0.653  0.00  0.00    -0.081 HD
BRANCH  26  30
ATOM     30  C   UNL     1       3.345  -7.705  -1.491  0.00  0.00    +0.119 C 
BRANCH  30  31
ATOM     31  C   UNL     1       2.996  -9.168  -1.594  0.00  0.00    -0.030 A 
ATOM     32  C   UNL     1       2.904  -9.937  -0.449  0.00  0.00    +0.009 A 
ATOM     33  C   UNL     1       2.584 -11.279  -0.538  0.00  0.00    +0.050 A 
ATOM     34  C   UNL     1       2.354 -11.856  -1.776  0.00  0.00    +0.166 A 
ATOM     35  C   UNL     1       2.447 -11.081  -2.929  0.00  0.00    +0.167 A 
ATOM     36  C   UNL     1       2.762  -9.736  -2.832  0.00  0.00    +0.054 A 
ATOM     37  O   UNL     1       2.180 -11.872  -4.009  0.00  0.00    -0.453 OA
ATOM     38  C   UNL     1       2.324 -13.226  -3.540  0.00  0.00    +0.466 C 
ATOM     39  O   UNL     1       2.029 -13.133  -2.133  0.00  0.00    -0.453 OA
ENDBRANCH  30  31
ENDBRANCH  26  30
ENDBRANCH  22  23
ENDBRANCH   5  22
TORSDOF 6
