REMARK  Name = ZINC66388431
REMARK  12 active torsions:
REMARK  status: ('A' for Active; 'I' for Inactive)
REMARK    1  A    between atoms: C_1  and  C_2
REMARK    2  A    between atoms: C_2  and  C_3
REMARK    3  A    between atoms: C_2  and  C_4
REMARK    4  A    between atoms: C_4  and  C_6
REMARK    5  A    between atoms: C_4  and  N_13
REMARK    6  A    between atoms: N_8  and  C_9
REMARK    7  A    between atoms: C_9  and  C_10
REMARK    8  A    between atoms: C_9  and  C_11
REMARK    9  A    between atoms: C_9  and  C_12
REMARK   10  A    between atoms: N_13  and  C_14
REMARK   11  A    between atoms: C_14  and  C_15
REMARK   12  A    between atoms: N_17  and  C_18
REMARK                            x       y       z     vdW  Elec       q    Type
REMARK                         _______ _______ _______ _____ _____    ______ ____
ROOT
ATOM      1  N   UNL     1      -1.720  -2.256   0.401  0.00  0.00    +0.392 N 
ATOM      2  H   UNL     1      -2.717  -2.410   0.382  0.00  0.00    -0.084 HD
ATOM      3  H   UNL     1      -1.276  -2.838  -0.293  0.00  0.00    -0.084 HD
ENDROOT
BRANCH   1   4
ATOM      4  C   UNL     1      -1.437  -0.844   0.108  0.00  0.00    +0.019 C 
BRANCH   4   5
ATOM      5  C   UNL     1      -2.107  -0.455  -1.184  0.00  0.00    +0.200 C 
ATOM      6  O   UNL     1      -2.480  -1.312  -1.956  0.00  0.00    -0.278 OA
ATOM      7  N   UNL     1      -2.292   0.847  -1.482  0.00  0.00    -0.312 N 
ATOM      8  H   UNL     1      -1.927   1.534  -0.903  0.00  0.00    +0.149 HD
BRANCH   7   9
ATOM      9  C   UNL     1      -3.046   1.224  -2.680  0.00  0.00    +0.026 C 
ATOM     10  C   UNL     1      -4.465   0.660  -2.589  0.00  0.00    +0.031 C 
ATOM     11  C   UNL     1      -3.108   2.749  -2.784  0.00  0.00    +0.031 C 
ATOM     12  C   UNL     1      -2.351   0.656  -3.919  0.00  0.00    +0.031 C 
ENDBRANCH   7   9
ENDBRANCH   4   5
BRANCH   4  14
ATOM     13  C   UNL     1       0.590  -1.411  -1.237  0.00  0.00    +0.006 C 
ATOM     14  C   UNL     1       0.074  -0.642  -0.019  0.00  0.00    -0.023 C 
ATOM     15  C   UNL     1       0.377   0.848  -0.192  0.00  0.00    +0.006 C 
ENDBRANCH   4  14
ENDBRANCH   1   4
BRANCH   1  16
ATOM     16  C   UNL     1      -1.197  -2.594   1.731  0.00  0.00    +0.016 C 
BRANCH  16  17
ATOM     17  C   UNL     1      -1.391  -4.067   1.987  0.00  0.00    +0.200 C 
ATOM     18  O   UNL     1      -1.913  -4.765   1.144  0.00  0.00    -0.278 OA
ATOM     19  N   UNL     1      -0.984  -4.608   3.152  0.00  0.00    -0.287 N 
ATOM     20  H   UNL     1      -0.640  -4.037   3.858  0.00  0.00    +0.155 HD
BRANCH  19  21
ATOM     21  C   UNL     1      -1.058  -5.992   3.345  0.00  0.00    +0.033 A 
ATOM     22  C   UNL     1      -1.346  -6.505   4.603  0.00  0.00    +0.025 A 
ATOM     23  C   UNL     1      -1.419  -7.871   4.791  0.00  0.00    +0.022 A 
ATOM     24  C   UNL     1      -1.204  -8.729   3.727  0.00  0.00    +0.041 A 
ATOM     25  C   UNL     1      -0.917  -8.221   2.472  0.00  0.00    +0.022 A 
ATOM     26  C   UNL     1      -0.849  -6.855   2.278  0.00  0.00    +0.025 A 
ATOM     27 CL   UNL     1      -1.296 -10.446   3.966  0.00  0.00    -0.084 Cl
ENDBRANCH  19  21
ENDBRANCH  16  17
ENDBRANCH   1  16
TORSDOF 7
