REMARK  Name = ZINC62798556
REMARK  4 active torsions:
REMARK  status: ('A' for Active; 'I' for Inactive)
REMARK    1  A    between atoms: C_5  and  O_7
REMARK    2  A    between atoms: O_7  and  C_8
REMARK    3  A    between atoms: C_14  and  O_16
REMARK    4  A    between atoms: C_19  and  N_21
REMARK                            x       y       z     vdW  Elec       q    Type
REMARK                         _______ _______ _______ _____ _____    ______ ____
ROOT
ATOM      1  C   UNL     1       0.005   1.376   0.228  0.00  0.00    +0.004 A 
ATOM      2  C   UNL     1       1.171   2.084   0.003  0.00  0.00    +0.002 A 
ATOM      3  C   UNL     1       2.361   1.416  -0.232  0.00  0.00    -0.055 A 
ATOM      4  C   UNL     1       2.385   0.034  -0.240  0.00  0.00    -0.004 A 
ATOM      5  C   UNL     1       1.214  -0.678  -0.013  0.00  0.00    +0.124 A 
ATOM      6  C   UNL     1       0.024  -0.005   0.221  0.00  0.00    +0.046 A 
ATOM      7  C   UNL     1       3.791  -0.452  -0.516  0.00  0.00    +0.038 C 
ATOM      8  C   UNL     1       4.532   0.767  -1.105  0.00  0.00    -0.007 C 
ATOM      9  C   UNL     1       3.750   1.953  -0.501  0.00  0.00    -0.044 C 
ENDROOT
BRANCH   9  10
ATOM     10  N   UNL     1       4.379   2.392   0.752  0.00  0.00    +0.383 N 
ATOM     11  H   UNL     1       4.423   1.617   1.396  0.00  0.00    -0.089 HD
ATOM     12  H   UNL     1       5.312   2.725   0.562  0.00  0.00    -0.089 HD
ATOM     13  H   UNL     1       3.832   3.136   1.160  0.00  0.00    -0.089 HD
ENDBRANCH   9  10
BRANCH   5  14
ATOM     14  O   UNL     1       1.234  -2.037  -0.021  0.00  0.00    -0.486 OA
BRANCH  14  15
ATOM     15  C   UNL     1      -0.024  -2.705   0.098  0.00  0.00    +0.202 C 
ATOM     16  C   UNL     1      -0.392  -2.839   1.577  0.00  0.00    +0.047 C 
ATOM     17  C   UNL     1      -1.738  -3.554   1.705  0.00  0.00    +0.004 C 
ATOM     18  C   UNL     1      -1.638  -4.946   1.076  0.00  0.00    +0.003 C 
ATOM     19  C   UNL     1      -1.270  -4.812  -0.403  0.00  0.00    +0.035 C 
ATOM     20  C   UNL     1       0.077  -4.097  -0.530  0.00  0.00    +0.155 C 
BRANCH  20  21
ATOM     21  O   UNL     1       1.084  -4.853   0.145  0.00  0.00    -0.388 OA
ATOM     22  H   UNL     1       1.202  -5.748  -0.202  0.00  0.00    +0.210 HD
ENDBRANCH  20  21
ENDBRANCH  14  15
ENDBRANCH   5  14
TORSDOF 4
