REMARK  Name = ZINC67483786
REMARK  10 active torsions:
REMARK  status: ('A' for Active; 'I' for Inactive)
REMARK    1  A    between atoms: C_1  and  C_2
REMARK    2  A    between atoms: C_2  and  C_3
REMARK    3  A    between atoms: C_3  and  C_5
REMARK    4  A    between atoms: C_3  and  C_6
REMARK    5  A    between atoms: C_6  and  C_8
REMARK    6  A    between atoms: C_6  and  N_25
REMARK    7  A    between atoms: N_10  and  C_11
REMARK    8  A    between atoms: C_11  and  C_12
REMARK    9  A    between atoms: N_17  and  C_18
REMARK   10  A    between atoms: C_18  and  C_19
REMARK                            x       y       z     vdW  Elec       q    Type
REMARK                         _______ _______ _______ _____ _____    ______ ____
ROOT
ATOM      1  C   UNL     1      -2.827  -2.581   0.141  0.00  0.00    +0.234 C 
ATOM      2  O   UNL     1      -3.354  -2.882   1.191  0.00  0.00    -0.274 OA
ATOM      3  N   UNL     1      -3.506  -2.712  -1.016  0.00  0.00    -0.315 N 
ATOM      4  H   UNL     1      -3.084  -2.471  -1.856  0.00  0.00    +0.149 HD
ENDROOT
BRANCH   1   5
ATOM      5  C   UNL     1      -1.413  -2.059   0.130  0.00  0.00    +0.163 C 
BRANCH   5   6
ATOM      6  N   UNL     1      -0.741  -2.444   1.374  0.00  0.00    -0.288 N 
ATOM      7  C   UNL     1      -1.231  -2.033   2.560  0.00  0.00    +0.298 C 
ATOM      8  O   UNL     1      -2.231  -1.342   2.598  0.00  0.00    -0.253 OA
ATOM      9  N   UNL     1      -0.613  -2.387   3.704  0.00  0.00    -0.313 N 
ATOM     10  H   UNL     1       0.056  -2.996   1.343  0.00  0.00    +0.151 HD
ATOM     11  H   UNL     1       0.185  -2.939   3.673  0.00  0.00    +0.146 HD
ATOM     12  H   UNL     1      -0.965  -2.091   4.558  0.00  0.00    +0.146 HD
ENDBRANCH   5   6
BRANCH   5  13
ATOM     13  C   UNL     1      -1.433  -0.534   0.013  0.00  0.00    +0.015 C 
ATOM     14  C   UNL     1      -2.135  -0.131  -1.286  0.00  0.00    +0.010 C 
BRANCH  13  16
ATOM     15  C   UNL     1      -0.019   1.526   0.010  0.00  0.00    +0.004 C 
ATOM     16  C   UNL     1       0.002  -0.004   0.002  0.00  0.00    +0.002 C 
ENDBRANCH  13  16
ENDBRANCH   5  13
ENDBRANCH   1   5
BRANCH   3  17
ATOM     17  C   UNL     1      -4.880  -3.219  -1.006  0.00  0.00    +0.089 C 
BRANCH  17  18
ATOM     18  C   UNL     1      -5.416  -3.270  -2.438  0.00  0.00    -0.051 C 
ATOM     19  C   UNL     1      -6.797  -3.959  -2.458  0.00  0.00    -0.016 C 
ATOM     20  C   UNL     1      -6.751  -4.795  -3.764  0.00  0.00    -0.020 C 
ATOM     21  C   UNL     1      -5.267  -5.237  -3.801  0.00  0.00    -0.078 C 
ATOM     22  N   UNL     1      -4.512  -4.072  -3.283  0.00  0.00    +0.383 N 
ATOM     23  H   UNL     1      -3.728  -4.391  -2.735  0.00  0.00    -0.081 HD
BRANCH  22  24
ATOM     24  C   UNL     1      -4.029  -3.254  -4.404  0.00  0.00    -0.075 C 
BRANCH  24  25
ATOM     25  C   UNL     1      -2.997  -4.049  -5.207  0.00  0.00    -0.028 C 
ATOM     26  C   UNL     1      -1.766  -4.310  -4.338  0.00  0.00    +0.002 C 
ATOM     27  C   UNL     1      -0.734  -5.105  -5.140  0.00  0.00    +0.000 C 
ATOM     28  C   UNL     1      -0.323  -4.303  -6.377  0.00  0.00    +0.000 C 
ATOM     29  C   UNL     1      -1.554  -4.042  -7.247  0.00  0.00    +0.000 C 
ATOM     30  C   UNL     1      -2.587  -3.247  -6.444  0.00  0.00    +0.002 C 
ENDBRANCH  24  25
ENDBRANCH  22  24
ENDBRANCH  17  18
ENDBRANCH   3  17
TORSDOF 8
