REMARK  Name = ZINC12791800
REMARK  9 active torsions:
REMARK  status: ('A' for Active; 'I' for Inactive)
REMARK    1  A    between atoms: C_1  and  C_2
REMARK    2  A    between atoms: C_3  and  N_9
REMARK    3  A    between atoms: C_10  and  C_12
REMARK    4  A    between atoms: C_12  and  N_13
REMARK    5  A    between atoms: C_14  and  C_16
REMARK    6  A    between atoms: C_16  and  N_61
REMARK    7  A    between atoms: C_22  and  C_24
REMARK    8  A    between atoms: C_27  and  O_30
REMARK    9  A    between atoms: O_30  and  C_31
REMARK                            x       y       z     vdW  Elec       q    Type
REMARK                         _______ _______ _______ _____ _____    ______ ____
ROOT
ATOM      1  N   UNL     1       1.436  -0.175  -2.575  0.00  0.00    -0.308 N 
ATOM      2  C   UNL     1       0.223  -0.441  -2.051  0.00  0.00    +0.197 C 
ATOM      3  O   UNL     1      -0.558  -1.144  -2.657  0.00  0.00    -0.278 OA
ATOM      4  H   UNL     1       2.062   0.384  -2.088  0.00  0.00    +0.149 HD
ENDROOT
BRANCH   1   5
ATOM      5  C   UNL     1       1.810  -0.731  -3.878  0.00  0.00    +0.200 C 
BRANCH   5   7
ATOM      6  N   UNL     1       3.763  -0.679  -5.394  0.00  0.00    -0.284 N 
ATOM      7  C   UNL     1       3.205  -0.287  -4.232  0.00  0.00    +0.234 C 
ATOM      8  O   UNL     1       3.827   0.424  -3.471  0.00  0.00    -0.274 OA
ATOM      9  H   UNL     1       3.296  -1.307  -5.968  0.00  0.00    +0.155 HD
BRANCH   6  12
ATOM     10  C   UNL     1       5.263  -2.142  -7.320  0.00  0.00    +0.047 C 
ATOM     11  C   UNL     1       5.780  -0.864  -6.710  0.00  0.00    -0.011 A 
ATOM     12  C   UNL     1       5.015  -0.182  -5.773  0.00  0.00    +0.038 A 
ATOM     13  C   UNL     1       5.496   0.992  -5.209  0.00  0.00    +0.023 A 
ATOM     14  C   UNL     1       6.733   1.481  -5.585  0.00  0.00    +0.003 A 
ATOM     15  C   UNL     1       7.491   0.803  -6.521  0.00  0.00    +0.020 A 
ATOM     16  C   UNL     1       7.014  -0.367  -7.085  0.00  0.00    +0.046 A 
ATOM     17 CL   UNL     1       7.969  -1.216  -8.261  0.00  0.00    -0.083 Cl
ENDBRANCH   6  12
ENDBRANCH   5   7
ENDBRANCH   1   5
BRANCH   2  18
ATOM     18  C   UNL     1      -0.161   0.131  -0.711  0.00  0.00    +0.019 C 
BRANCH  18  25
ATOM     19  C   UNL     1      -2.447   0.241  -1.433  0.00  0.00    -0.077 C 
ATOM     20  C   UNL     1      -3.766   0.779  -0.847  0.00  0.00    -0.019 C 
ATOM     21  C   UNL     1      -4.297  -0.100   0.304  0.00  0.00    -0.002 C 
ATOM     22  C   UNL     1      -4.164  -1.573   0.029  0.00  0.00    -0.001 C 
ATOM     23  C   UNL     1      -2.817  -2.068   0.602  0.00  0.00    -0.011 C 
ATOM     24  C   UNL     1      -1.698  -1.694  -0.257  0.00  0.00    -0.037 C 
ATOM     25  N   UNL     1      -1.562  -0.224  -0.389  0.00  0.00    +0.390 N 
ATOM     26  H   UNL     1      -1.824   0.220   0.499  0.00  0.00    -0.080 HD
BRANCH  24  27
ATOM     27  C   UNL     1      -0.428  -2.252   0.330  0.00  0.00    -0.061 A 
ATOM     28  C   UNL     1       0.065  -1.745   1.518  0.00  0.00    +0.005 A 
ATOM     29  C   UNL     1       1.227  -2.259   2.061  0.00  0.00    +0.046 A 
ATOM     30  C   UNL     1       1.905  -3.277   1.407  0.00  0.00    +0.120 A 
ATOM     31  C   UNL     1       1.411  -3.781   0.212  0.00  0.00    +0.046 A 
ATOM     32  C   UNL     1       0.246  -3.267  -0.324  0.00  0.00    +0.005 A 
BRANCH  30  33
ATOM     33  O   UNL     1       3.051  -3.782   1.936  0.00  0.00    -0.495 OA
ATOM     34  C   UNL     1       3.500  -3.215   3.169  0.00  0.00    +0.277 C 
ENDBRANCH  30  33
ENDBRANCH  24  27
ENDBRANCH  18  25
ENDBRANCH   2  18
TORSDOF 7
