REMARK  Name = ZINC21264052
REMARK  14 active torsions:
REMARK  status: ('A' for Active; 'I' for Inactive)
REMARK    1  A    between atoms: C_1  and  C_2
REMARK    2  A    between atoms: C_2  and  C_4
REMARK    3  A    between atoms: C_2  and  N_12
REMARK    4  A    between atoms: C_7  and  O_10
REMARK    5  A    between atoms: O_10  and  C_11
REMARK    6  A    between atoms: N_12  and  C_13
REMARK    7  A    between atoms: N_12  and  C_20
REMARK    8  A    between atoms: C_13  and  C_14
REMARK    9  A    between atoms: C_20  and  N_22
REMARK   10  A    between atoms: N_22  and  C_23
REMARK   11  A    between atoms: C_25  and  C_31
REMARK   12  A    between atoms: C_25  and  C_32
REMARK   13  A    between atoms: C_27  and  C_29
REMARK   14  A    between atoms: C_27  and  C_30
REMARK                            x       y       z     vdW  Elec       q    Type
REMARK                         _______ _______ _______ _____ _____    ______ ____
ROOT
ATOM      1  N   UNL     1      -1.696   3.595  -2.321  0.00  0.00    -0.302 N 
ENDROOT
BRANCH   1   3
ATOM      2  C   UNL     1      -3.148   5.132  -3.549  0.00  0.00    +0.033 C 
ATOM      3  C   UNL     1      -2.301   4.929  -2.291  0.00  0.00    +0.103 C 
BRANCH   3   4
ATOM      4  C   UNL     1      -1.215   5.972  -2.243  0.00  0.00    -0.027 A 
ATOM      5  C   UNL     1      -0.113   5.860  -3.071  0.00  0.00    +0.009 A 
ATOM      6  C   UNL     1       0.881   6.819  -3.033  0.00  0.00    +0.046 A 
ATOM      7  C   UNL     1       0.779   7.888  -2.155  0.00  0.00    +0.120 A 
ATOM      8  C   UNL     1      -0.325   7.995  -1.321  0.00  0.00    +0.046 A 
ATOM      9  C   UNL     1      -1.319   7.037  -1.367  0.00  0.00    +0.009 A 
BRANCH   7  10
ATOM     10  O   UNL     1       1.759   8.828  -2.111  0.00  0.00    -0.495 OA
ATOM     11  C   UNL     1       2.866   8.654  -2.998  0.00  0.00    +0.277 C 
ENDBRANCH   7  10
ENDBRANCH   3   4
ENDBRANCH   1   3
BRANCH   1  12
ATOM     12  C   UNL     1      -0.991   3.151  -1.261  0.00  0.00    +0.134 C 
ATOM     13  S   UNL     1      -0.803   4.146   0.119  0.00  0.00    -0.019 S 
BRANCH  12  14
ATOM     14  N   UNL     1      -0.434   1.924  -1.288  0.00  0.00    -0.324 N 
ATOM     15  H   UNL     1      -0.555   1.285  -2.175  0.00  0.00    +0.148 HD
BRANCH  14  16
ATOM     16  C   UNL     1       0.334   1.441  -0.134  0.00  0.00    +0.069 C 
ATOM     17  C   UNL     1       1.785   1.904  -0.264  0.00  0.00    +0.009 C 
ATOM     18  C   UNL     1       2.619   1.388   0.906  0.00  0.00    -0.072 C 
ATOM     19  N   UNL     1       2.433  -0.026   1.158  0.00  0.00    +0.386 N 
ATOM     20  C   UNL     1       1.109  -0.610   1.075  0.00  0.00    -0.072 C 
ATOM     21  C   UNL     1       0.317  -0.089  -0.123  0.00  0.00    +0.009 C 
ATOM     22  C   UNL     1       0.312  -0.377   2.362  0.00  0.00    -0.010 C 
ATOM     23  C   UNL     1       1.266  -2.137   0.900  0.00  0.00    -0.010 C 
ATOM     24  C   UNL     1       2.314   2.219   2.158  0.00  0.00    -0.010 C 
ATOM     25  C   UNL     1       4.105   1.623   0.555  0.00  0.00    -0.010 C 
ATOM     26  H   UNL     1       3.025  -0.608   0.436  0.00  0.00    -0.084 HD
ATOM     27  H   UNL     1       2.764  -0.263   2.180  0.00  0.00    -0.084 HD
ENDBRANCH  14  16
ENDBRANCH  12  14
ENDBRANCH   1  12
BRANCH   1  28
ATOM     28  C   UNL     1      -1.857   2.743  -3.502  0.00  0.00    +0.142 C 
BRANCH  28  29
ATOM     29  C   UNL     1      -3.010   1.798  -3.286  0.00  0.00    -0.027 A 
ATOM     30  C   UNL     1      -2.836   0.613  -2.589  0.00  0.00    +0.025 A 
ATOM     31  C   UNL     1      -3.919  -0.227  -2.408  0.00  0.00    +0.111 A 
ATOM     32  N   UNL     1      -5.103   0.084  -2.897  0.00  0.00    -0.263 NA
ATOM     33  C   UNL     1      -5.304   1.200  -3.569  0.00  0.00    +0.111 A 
ATOM     34  C   UNL     1      -4.270   2.091  -3.786  0.00  0.00    +0.025 A 
ENDBRANCH  28  29
ENDBRANCH   1  28
TORSDOF 8
