REMARK  Name = ZINC39490343
REMARK  8 active torsions:
REMARK  status: ('A' for Active; 'I' for Inactive)
REMARK    1  A    between atoms: C_1  and  C_2
REMARK    2  A    between atoms: C_2  and  O_3
REMARK    3  A    between atoms: O_3  and  C_4
REMARK    4  A    between atoms: C_6  and  N_33
REMARK    5  A    between atoms: N_17  and  C_20
REMARK    6  A    between atoms: C_20  and  C_21
REMARK    7  A    between atoms: C_26  and  C_27
REMARK    8  A    between atoms: C_34  and  C_36
REMARK                            x       y       z     vdW  Elec       q    Type
REMARK                         _______ _______ _______ _____ _____    ______ ____
ROOT
ATOM      1  C   UNL     1      -1.175  -1.531  -0.055  0.00  0.00    +0.153 C 
ATOM      2  C   UNL     1      -1.233  -1.953   1.429  0.00  0.00    +0.133 C 
ATOM      3  C   UNL     1      -2.707  -1.998   1.771  0.00  0.00    -0.021 A 
ATOM      4  C   UNL     1      -3.343  -2.007   3.001  0.00  0.00    +0.006 A 
ATOM      5  C   UNL     1      -4.722  -2.052   3.072  0.00  0.00    +0.000 A 
ATOM      6  C   UNL     1      -5.471  -2.090   1.910  0.00  0.00    +0.000 A 
ATOM      7  C   UNL     1      -4.839  -2.082   0.682  0.00  0.00    +0.004 A 
ATOM      8  C   UNL     1      -3.456  -2.036   0.609  0.00  0.00    -0.034 A 
ATOM      9  C   UNL     1      -2.533  -2.015  -0.592  0.00  0.00    +0.021 C 
ATOM     10  C   UNL     1      -3.053  -1.046  -1.651  0.00  0.00    -0.005 C 
ATOM     11  C   UNL     1      -2.126  -1.083  -2.870  0.00  0.00    -0.078 C 
ATOM     12  N   UNL     1      -2.079  -2.446  -3.410  0.00  0.00    +0.380 N 
ATOM     13  C   UNL     1      -1.493  -3.357  -2.419  0.00  0.00    -0.078 C 
ATOM     14  C   UNL     1      -2.393  -3.416  -1.182  0.00  0.00    -0.005 C 
ATOM     15  H   UNL     1      -3.015  -2.751  -3.633  0.00  0.00    -0.082 HD
ENDROOT
BRANCH   2  16
ATOM     16  N   UNL     1      -0.628  -3.276   1.605  0.00  0.00    -0.299 N 
ATOM     17  C   UNL     1      -0.115  -3.628   2.801  0.00  0.00    +0.280 C 
ATOM     18  O   UNL     1      -0.154  -2.848   3.734  0.00  0.00    -0.267 OA
ATOM     19  H   UNL     1      -0.596  -3.898   0.862  0.00  0.00    +0.150 HD
BRANCH  17  20
ATOM     20  C   UNL     1       0.491  -4.952   2.977  0.00  0.00    +0.189 A 
ATOM     21  C   UNL     1       1.040  -5.437   4.130  0.00  0.00    +0.054 A 
ATOM     22  C   UNL     1       1.495  -6.734   3.846  0.00  0.00    +0.042 A 
ATOM     23  C   UNL     1       1.208  -6.981   2.549  0.00  0.00    +0.196 A 
ATOM     24  O   UNL     1       0.599  -5.907   2.030  0.00  0.00    -0.458 OA
ENDBRANCH  17  20
ENDBRANCH   2  16
BRANCH   1  25
ATOM     25  O   UNL     1      -1.057  -0.112  -0.175  0.00  0.00    -0.374 OA
BRANCH  25  27
ATOM     26  C   UNL     1       0.295   1.877  -0.419  0.00  0.00    +0.034 C 
ATOM     27  C   UNL     1       0.289   0.352  -0.297  0.00  0.00    +0.157 C 
ENDBRANCH  25  27
ENDBRANCH   1  25
BRANCH  12  28
ATOM     28  C   UNL     1      -1.261  -2.460  -4.630  0.00  0.00    -0.063 C 
BRANCH  28  29
ATOM     29  C   UNL     1      -1.956  -1.643  -5.720  0.00  0.00    +0.066 C 
ATOM     30  C   UNL     1      -3.207  -2.351  -6.203  0.00  0.00    +0.115 C 
ATOM     31  N   UNL     1      -3.020  -2.594  -7.459  0.00  0.00    -0.161 NA
ATOM     32  N   UNL     1      -1.786  -2.138  -7.912  0.00  0.00    -0.153 NA
ATOM     33  C   UNL     1      -1.092  -1.564  -6.963  0.00  0.00    +0.077 C 
BRANCH  33  34
ATOM     34  C   UNL     1       0.248  -0.966  -7.075  0.00  0.00    -0.001 A 
ATOM     35  C   UNL     1       0.859  -0.394  -5.955  0.00  0.00    +0.010 A 
ATOM     36  C   UNL     1       2.115   0.165  -6.069  0.00  0.00    +0.001 A 
ATOM     37  C   UNL     1       2.771   0.159  -7.287  0.00  0.00    +0.000 A 
ATOM     38  C   UNL     1       2.173  -0.406  -8.401  0.00  0.00    +0.001 A 
ATOM     39  C   UNL     1       0.920  -0.974  -8.302  0.00  0.00    +0.010 A 
ENDBRANCH  33  34
ENDBRANCH  28  29
ENDBRANCH  12  28
TORSDOF 7
