REMARK  Name = ZINC33413554
REMARK  6 active torsions:
REMARK  status: ('A' for Active; 'I' for Inactive)
REMARK    1  A    between atoms: C_4  and  O_20
REMARK    2  A    between atoms: C_5  and  C_7
REMARK    3  A    between atoms: N_9  and  C_17
REMARK    4  A    between atoms: C_10  and  C_12
REMARK    5  A    between atoms: C_10  and  O_16
REMARK    6  A    between atoms: C_17  and  N_19
REMARK                            x       y       z     vdW  Elec       q    Type
REMARK                         _______ _______ _______ _____ _____    ______ ____
ROOT
ATOM      1  C   UNL     1       0.818  -2.089  -0.132  0.00  0.00    +0.075 C 
ATOM      2  N   UNL     1       1.998  -2.597  -0.039  0.00  0.00    -0.179 NA
ATOM      3  N   UNL     1       2.013  -3.986   0.072  0.00  0.00    -0.164 N 
ATOM      4  C   UNL     1       0.627  -4.480   0.049  0.00  0.00    +0.256 C 
ATOM      5  C   UNL     1      -0.213  -3.194  -0.084  0.00  0.00    +0.124 C 
ENDROOT
BRANCH   1  10
ATOM      6  C   UNL     1      -1.079   1.131  -0.469  0.00  0.00    +0.001 A 
ATOM      7  C   UNL     1      -0.046   2.053  -0.502  0.00  0.00    +0.004 A 
ATOM      8  C   UNL     1       1.268   1.634  -0.415  0.00  0.00    +0.046 A 
ATOM      9  C   UNL     1       1.560   0.285  -0.294  0.00  0.00    +0.126 A 
ATOM     10  C   UNL     1       0.519  -0.652  -0.260  0.00  0.00    +0.039 A 
ATOM     11  C   UNL     1      -0.805  -0.215  -0.349  0.00  0.00    +0.013 A 
BRANCH   9  12
ATOM     12  O   UNL     1       2.852  -0.128  -0.209  0.00  0.00    -0.506 OA
ATOM     13  H   UNL     1       3.191  -0.176   0.695  0.00  0.00    +0.292 HD
ENDBRANCH   9  12
ENDBRANCH   1  10
BRANCH   4  14
ATOM     14  C   UNL     1       0.292  -5.203   1.355  0.00  0.00    +0.438 C 
ATOM     15  F   UNL     1       0.602  -4.375   2.439  0.00  0.00    -0.166 F 
ATOM     16  F   UNL     1      -1.073  -5.512   1.379  0.00  0.00    -0.166 F 
ATOM     17  F   UNL     1       1.039  -6.383   1.440  0.00  0.00    -0.166 F 
ENDBRANCH   4  14
BRANCH   4  18
ATOM     18  O   UNL     1       0.419  -5.341  -1.072  0.00  0.00    -0.363 OA
ATOM     19  H   UNL     1       0.974  -6.133  -1.068  0.00  0.00    +0.212 HD
ENDBRANCH   4  18
BRANCH   3  20
ATOM     20  C   UNL     1       3.117  -4.752   0.183  0.00  0.00    +0.153 C 
ATOM     21  S   UNL     1       2.968  -6.450   0.335  0.00  0.00    -0.017 S 
BRANCH  20  22
ATOM     22  N   UNL     1       4.338  -4.180   0.174  0.00  0.00    -0.339 N 
ATOM     23  H   UNL     1       4.422  -3.218   0.088  0.00  0.00    +0.144 HD
ATOM     24  H   UNL     1       5.132  -4.731   0.254  0.00  0.00    +0.144 HD
ENDBRANCH  20  22
ENDBRANCH   3  20
TORSDOF 6
