REMARK  Name = ZINC39531995
REMARK  10 active torsions:
REMARK  status: ('A' for Active; 'I' for Inactive)
REMARK    1  A    between atoms: C_1  and  C_2
REMARK    2  A    between atoms: C_5  and  C_8
REMARK    3  A    between atoms: C_8  and  C_10
REMARK    4  A    between atoms: C_8  and  N_21
REMARK    5  A    between atoms: C_10  and  N_11
REMARK    6  A    between atoms: N_11  and  S_12
REMARK    7  A    between atoms: S_12  and  C_15
REMARK    8  A    between atoms: C_25  and  S_28
REMARK    9  A    between atoms: S_28  and  O_31
REMARK   10  A    between atoms: O_31  and  C_32
REMARK                            x       y       z     vdW  Elec       q    Type
REMARK                         _______ _______ _______ _____ _____    ______ ____
ROOT
ATOM      1  C   UNL     1       0.059  -4.275  -0.021  0.00  0.00    +0.102 C 
ENDROOT
BRANCH   1   2
ATOM      2  N   UNL     1       1.050  -4.758   0.950  0.00  0.00    -0.296 NA
ATOM      3  C   UNL     1       0.678  -4.372   2.318  0.00  0.00    +0.066 C 
ATOM      4  C   UNL     1       1.701  -4.943   3.302  0.00  0.00    -0.064 C 
ATOM      5  N   UNL     1       3.036  -4.425   2.976  0.00  0.00    +0.398 N 
ATOM      6  C   UNL     1       3.405  -4.839   1.616  0.00  0.00    +0.130 C 
ATOM      7  C   UNL     1       2.396  -4.267   0.618  0.00  0.00    +0.095 C 
ATOM      8  H   UNL     1       3.028  -3.418   3.031  0.00  0.00    -0.083 HD
ATOM      9  H   UNL     1       3.709  -4.792   3.633  0.00  0.00    -0.083 HD
BRANCH   6  10
ATOM     10  S   UNL     1       5.063  -4.216   1.223  0.00  0.00    +0.109 S 
ATOM     11  O   UNL     1       5.507  -4.755  -0.015  0.00  0.00    -0.138 OA
ATOM     12  O   UNL     1       5.133  -2.819   1.472  0.00  0.00    -0.138 OA
BRANCH  10  13
ATOM     13  O   UNL     1       5.974  -4.844   2.268  0.00  0.00    -0.347 OA
BRANCH  13  14
ATOM     14  C   UNL     1       6.234  -6.161   2.057  0.00  0.00    +0.156 A 
ATOM     15  C   UNL     1       5.404  -7.129   2.603  0.00  0.00    +0.048 A 
ATOM     16  C   UNL     1       5.670  -8.467   2.385  0.00  0.00    +0.004 A 
ATOM     17  C   UNL     1       6.762  -8.842   1.625  0.00  0.00    +0.000 A 
ATOM     18  C   UNL     1       7.591  -7.878   1.080  0.00  0.00    +0.004 A 
ATOM     19  C   UNL     1       7.326  -6.539   1.289  0.00  0.00    +0.048 A 
ENDBRANCH  13  14
ENDBRANCH  10  13
ENDBRANCH   6  10
ENDBRANCH   1   2
BRANCH   1  24
ATOM     20  C   UNL     1      -0.376   1.474   0.368  0.00  0.00    +0.044 C 
ATOM     21  C   UNL     1      -0.262  -0.025   0.266  0.00  0.00    -0.050 A 
ATOM     22  C   UNL     1      -0.761  -0.826   1.276  0.00  0.00    +0.003 A 
ATOM     23  C   UNL     1      -0.657  -2.202   1.183  0.00  0.00    +0.005 A 
ATOM     24  C   UNL     1      -0.055  -2.776   0.080  0.00  0.00    -0.029 A 
ATOM     25  C   UNL     1       0.444  -1.975  -0.931  0.00  0.00    +0.005 A 
ATOM     26  C   UNL     1       0.336  -0.600  -0.840  0.00  0.00    +0.003 A 
ENDBRANCH   1  24
BRANCH   1  27
ATOM     27  C   UNL     1      -1.299  -4.912   0.278  0.00  0.00    +0.129 C 
BRANCH  27  28
ATOM     28  N   UNL     1      -1.162  -6.370   0.297  0.00  0.00    -0.188 NA
ATOM     29  H   UNL     1      -0.369  -6.787  -0.074  0.00  0.00    +0.148 HD
BRANCH  28  30
ATOM     30  S   UNL     1      -2.361  -7.306   0.952  0.00  0.00    +0.058 S 
ATOM     31  O   UNL     1      -1.950  -8.658   0.798  0.00  0.00    -0.153 OA
ATOM     32  O   UNL     1      -2.669  -6.743   2.220  0.00  0.00    -0.153 OA
BRANCH  30  33
ATOM     33  C   UNL     1      -3.793  -7.097  -0.053  0.00  0.00    +0.105 A 
ATOM     34  C   UNL     1      -4.697  -6.091   0.233  0.00  0.00    +0.028 A 
ATOM     35  C   UNL     1      -5.821  -5.927  -0.555  0.00  0.00    +0.002 A 
ATOM     36  C   UNL     1      -6.040  -6.769  -1.630  0.00  0.00    +0.000 A 
ATOM     37  C   UNL     1      -5.135  -7.774  -1.916  0.00  0.00    +0.002 A 
ATOM     38  C   UNL     1      -4.010  -7.935  -1.131  0.00  0.00    +0.028 A 
ENDBRANCH  30  33
ENDBRANCH  28  30
ENDBRANCH  27  28
ENDBRANCH   1  27
TORSDOF 9
