REMARK  Name = ZINC64409712
REMARK  10 active torsions:
REMARK  status: ('A' for Active; 'I' for Inactive)
REMARK    1  A    between atoms: C_1  and  O_2
REMARK    2  A    between atoms: O_2  and  C_3
REMARK    3  A    between atoms: C_3  and  C_4
REMARK    4  A    between atoms: C_4  and  N_5
REMARK    5  A    between atoms: C_6  and  C_8
REMARK    6  A    between atoms: C_8  and  S_9
REMARK    7  A    between atoms: S_9  and  C_10
REMARK    8  A    between atoms: C_14  and  N_17
REMARK    9  A    between atoms: C_23  and  C_25
REMARK   10  A    between atoms: C_25  and  C_26
REMARK                            x       y       z     vdW  Elec       q    Type
REMARK                         _______ _______ _______ _____ _____    ______ ____
ROOT
ATOM      1  N   UNL     1       1.815  -5.810   8.055  0.00  0.00    -0.275 NA
ATOM      2  C   UNL     1       1.774  -7.276   7.961  0.00  0.00    +0.105 C 
ATOM      3  C   UNL     1       1.623  -7.871   9.365  0.00  0.00    +0.123 C 
ATOM      4  N   UNL     1       2.693  -7.332  10.218  0.00  0.00    -0.299 N 
ATOM      5  C   UNL     1       2.885  -5.875  10.258  0.00  0.00    +0.123 C 
ATOM      6  C   UNL     1       2.986  -5.358   8.818  0.00  0.00    +0.105 C 
ATOM      7  C   UNL     1       3.477  -8.153  10.945  0.00  0.00    +0.220 C 
ATOM      8  O   UNL     1       3.304  -9.353  10.901  0.00  0.00    -0.275 OA
ENDROOT
BRANCH   1  12
ATOM      9  C   UNL     1       1.333  -6.511   4.312  0.00  0.00    +0.187 C 
ATOM     10  N   UNL     1       2.602  -5.735   4.485  0.00  0.00    -0.232 NA
ATOM     11  N   UNL     1       2.944  -5.647   5.900  0.00  0.00    -0.229 NA
ATOM     12  C   UNL     1       1.787  -5.196   6.721  0.00  0.00    +0.201 C 
ATOM     13  S   UNL     1       0.367  -5.830   5.730  0.00  0.00    -0.094 S 
ATOM     14  H   UNL     1       3.354  -6.150   3.956  0.00  0.00    +0.143 HD
ATOM     15  H   UNL     1       3.744  -5.048   6.042  0.00  0.00    +0.143 HD
BRANCH   9  16
ATOM     16  S   UNL     1       0.537  -6.134   2.727  0.00  0.00    -0.121 S 
BRANCH  16  17
ATOM     17  C   UNL     1       0.369  -4.328   2.738  0.00  0.00    +0.167 C 
BRANCH  17  19
ATOM     18  N   UNL     1      -0.515  -2.565   1.245  0.00  0.00    -0.312 N 
ATOM     19  C   UNL     1      -0.287  -3.876   1.459  0.00  0.00    +0.223 C 
ATOM     20  O   UNL     1      -0.610  -4.693   0.622  0.00  0.00    -0.275 OA
ATOM     21  H   UNL     1      -0.257  -1.913   1.914  0.00  0.00    +0.149 HD
BRANCH  18  22
ATOM     22  C   UNL     1      -1.154  -2.126   0.002  0.00  0.00    +0.132 C 
BRANCH  22  23
ATOM     23  C   UNL     1      -1.295  -0.603   0.011  0.00  0.00    +0.178 C 
BRANCH  23  25
ATOM     24  C   UNL     1      -0.017   1.425   0.010  0.00  0.00    +0.194 C 
ATOM     25  O   UNL     1       0.002  -0.004   0.002  0.00  0.00    -0.381 OA
ENDBRANCH  23  25
ENDBRANCH  22  23
ENDBRANCH  18  22
ENDBRANCH  17  19
ENDBRANCH  16  17
ENDBRANCH   9  16
ENDBRANCH   1  12
BRANCH   7  26
ATOM     26  C   UNL     1       4.567  -7.580  11.813  0.00  0.00    +0.129 C 
BRANCH  26  27
ATOM     27  C   UNL     1       5.291  -8.700  12.515  0.00  0.00    -0.033 C 
ATOM     28  C   UNL     1       6.432  -9.307  12.116  0.00  0.00    -0.001 A 
ATOM     29  C   UNL     1       7.307  -9.114  10.953  0.00  0.00    +0.010 A 
ATOM     30  C   UNL     1       8.405  -9.893  10.821  0.00  0.00    +0.001 A 
ATOM     31  C   UNL     1       8.727 -10.877  11.765  0.00  0.00    +0.002 A 
ATOM     32  C   UNL     1       7.973 -11.114  12.859  0.00  0.00    +0.026 A 
ATOM     33  C   UNL     1       6.795 -10.353  13.099  0.00  0.00    +0.043 A 
ATOM     34  N   UNL     1       5.913 -10.391  14.068  0.00  0.00    -0.380 N 
ATOM     35  C   UNL     1       4.893  -9.368  13.812  0.00  0.00    +0.145 C 
ATOM     36  H   UNL     1       5.934 -10.992  14.828  0.00  0.00    +0.160 HD
ENDBRANCH  26  27
ENDBRANCH   7  26
TORSDOF 9
