REMARK  Name = ZINC35148890
REMARK  6 active torsions:
REMARK  status: ('A' for Active; 'I' for Inactive)
REMARK    1  A    between atoms: C_1  and  C_2
REMARK    2  A    between atoms: C_2  and  C_4
REMARK    3  A    between atoms: C_2  and  N_7
REMARK    4  A    between atoms: N_7  and  C_8
REMARK    5  A    between atoms: C_8  and  C_9
REMARK    6  A    between atoms: C_12  and  C_14
REMARK                            x       y       z     vdW  Elec       q    Type
REMARK                         _______ _______ _______ _____ _____    ______ ____
ROOT
ATOM      1  C   UNL     1       0.620  -0.579  -3.634  0.00  0.00    +0.089 A 
ATOM      2  C   UNL     1       0.430  -1.775  -4.228  0.00  0.00    +0.043 A 
ATOM      3  C   UNL     1       1.282  -1.820  -5.347  0.00  0.00    +0.052 A 
ATOM      4  C   UNL     1       1.954  -0.635  -5.376  0.00  0.00    +0.160 A 
ATOM      5  O   UNL     1       1.536   0.109  -4.332  0.00  0.00    -0.460 OA
ENDROOT
BRANCH   4   6
ATOM      6  C   UNL     1       2.956  -0.235  -6.375  0.00  0.00    +0.144 A 
ATOM      7  N   UNL     1       3.397  -0.908  -7.419  0.00  0.00    -0.236 NA
ATOM      8  C   UNL     1       4.327  -0.412  -8.258  0.00  0.00    +0.079 A 
ATOM      9  C   UNL     1       4.884  -1.024  -9.406  0.00  0.00    +0.029 A 
ATOM     10  C   UNL     1       5.822  -0.383 -10.152  0.00  0.00    +0.002 A 
ATOM     11  C   UNL     1       6.271   0.888  -9.823  0.00  0.00    +0.001 A 
ATOM     12  C   UNL     1       5.752   1.523  -8.709  0.00  0.00    +0.017 A 
ATOM     13  C   UNL     1       4.804   0.884  -7.949  0.00  0.00    +0.040 A 
ATOM     14  S   UNL     1       3.880   1.291  -6.488  0.00  0.00    -0.064 S 
ENDBRANCH   4   6
BRANCH   1  15
ATOM     15  C   UNL     1      -0.086  -0.093  -2.394  0.00  0.00    -0.006 C 
BRANCH  15  16
ATOM     16  N   UNL     1       0.690  -0.478  -1.207  0.00  0.00    +0.391 N 
ATOM     17  H   UNL     1       1.608  -0.063  -1.256  0.00  0.00    -0.084 HD
ATOM     18  H   UNL     1       0.776  -1.482  -1.172  0.00  0.00    -0.084 HD
BRANCH  16  20
ATOM     19  C   UNL     1      -0.019   1.526   0.010  0.00  0.00    -0.004 C 
ATOM     20  C   UNL     1       0.002  -0.004   0.002  0.00  0.00    +0.013 C 
BRANCH  20  21
ATOM     21  C   UNL     1       0.731  -0.503   1.223  0.00  0.00    +0.196 C 
ATOM     22  O   UNL     1       1.725  -1.187   1.099  0.00  0.00    -0.278 OA
ATOM     23  N   UNL     1       0.278  -0.191   2.453  0.00  0.00    -0.331 N 
ATOM     24  H   UNL     1      -0.517   0.356   2.553  0.00  0.00    +0.145 HD
ATOM     25  H   UNL     1       0.747  -0.512   3.239  0.00  0.00    +0.145 HD
ENDBRANCH  20  21
ENDBRANCH  16  20
ENDBRANCH  15  16
ENDBRANCH   1  15
TORSDOF 5
