REMARK  Name = ZINC08748559
REMARK  11 active torsions:
REMARK  status: ('A' for Active; 'I' for Inactive)
REMARK    1  A    between atoms: C_1  and  C_2
REMARK    2  A    between atoms: C_6  and  C_28
REMARK    3  A    between atoms: C_7  and  N_8
REMARK    4  A    between atoms: C_9  and  C_11
REMARK    5  A    between atoms: C_11  and  N_12
REMARK    6  A    between atoms: C_13  and  C_15
REMARK    7  A    between atoms: C_15  and  C_17
REMARK    8  A    between atoms: C_15  and  N_52
REMARK    9  A    between atoms: C_18  and  C_20
REMARK   10  A    between atoms: C_18  and  C_21
REMARK   11  A    between atoms: C_18  and  N_52
REMARK                            x       y       z     vdW  Elec       q    Type
REMARK                         _______ _______ _______ _____ _____    ______ ____
ROOT
ATOM      1  N   UNL     1      -1.537  -6.686  -0.215  0.00  0.00    -0.308 N 
ATOM      2  C   UNL     1      -1.450  -5.481   0.382  0.00  0.00    +0.199 C 
ATOM      3  O   UNL     1      -2.300  -4.640   0.178  0.00  0.00    -0.278 OA
ATOM      4  H   UNL     1      -0.858  -7.359  -0.052  0.00  0.00    +0.149 HD
ENDROOT
BRANCH   2   5
ATOM      5  C   UNL     1      -0.297  -5.179   1.305  0.00  0.00    +0.014 C 
ATOM      6  C   UNL     1       1.019  -5.306   0.534  0.00  0.00    -0.004 C 
BRANCH   5   7
ATOM      7  N   UNL     1      -0.436  -3.804   1.819  0.00  0.00    +0.391 N 
ATOM      8  H   UNL     1      -1.432  -3.590   1.949  0.00  0.00    -0.084 HD
ATOM      9  H   UNL     1      -0.030  -3.147   1.143  0.00  0.00    -0.084 HD
BRANCH   7  10
ATOM     10  C   UNL     1       0.263  -3.667   3.111  0.00  0.00    -0.040 C 
ATOM     11  C   UNL     1      -0.663  -4.118   4.243  0.00  0.00    -0.009 C 
BRANCH  10  12
ATOM     12  C   UNL     1       0.643  -2.224   3.317  0.00  0.00    -0.026 A 
ATOM     13  C   UNL     1      -0.072  -1.224   2.686  0.00  0.00    +0.005 A 
ATOM     14  C   UNL     1       0.276   0.101   2.875  0.00  0.00    +0.000 A 
ATOM     15  C   UNL     1       1.340   0.426   3.696  0.00  0.00    +0.003 A 
ATOM     16  C   UNL     1       2.057  -0.572   4.328  0.00  0.00    +0.038 A 
ATOM     17  C   UNL     1       1.709  -1.899   4.139  0.00  0.00    +0.125 A 
ATOM     18  F   UNL     1       2.408  -2.876   4.757  0.00  0.00    -0.205 F 
ENDBRANCH  10  12
ENDBRANCH   7  10
ENDBRANCH   5   7
ENDBRANCH   2   5
BRANCH   1  19
ATOM     19  C   UNL     1      -2.658  -6.980  -1.112  0.00  0.00    +0.200 C 
BRANCH  19  21
ATOM     20  N   UNL     1      -3.444  -8.874  -2.495  0.00  0.00    -0.284 N 
ATOM     21  C   UNL     1      -2.521  -8.383  -1.645  0.00  0.00    +0.234 C 
ATOM     22  O   UNL     1      -1.580  -9.070  -1.309  0.00  0.00    -0.274 OA
ATOM     23  H   UNL     1      -4.233  -8.352  -2.709  0.00  0.00    +0.155 HD
BRANCH  20  30
ATOM     24  C   UNL     1      -5.565 -10.760  -2.283  0.00  0.00    +0.045 C 
ATOM     25  C   UNL     1      -4.274 -11.088  -2.989  0.00  0.00    -0.029 A 
ATOM     26  C   UNL     1      -4.096 -12.332  -3.561  0.00  0.00    +0.005 A 
ATOM     27  C   UNL     1      -2.910 -12.636  -4.205  0.00  0.00    +0.001 A 
ATOM     28  C   UNL     1      -1.901 -11.693  -4.281  0.00  0.00    +0.005 A 
ATOM     29  C   UNL     1      -2.075 -10.445  -3.715  0.00  0.00    -0.029 A 
ATOM     30  C   UNL     1      -3.265 -10.137  -3.069  0.00  0.00    +0.039 A 
ATOM     31  C   UNL     1      -0.975  -9.419  -3.800  0.00  0.00    +0.045 C 
ENDBRANCH  20  30
ENDBRANCH  19  21
ENDBRANCH   1  19
TORSDOF 7
