REMARK  Name = ZINC15205727
REMARK  6 active torsions:
REMARK  status: ('A' for Active; 'I' for Inactive)
REMARK    1  A    between atoms: C_3  and  O_12
REMARK    2  A    between atoms: O_12  and  C_13
REMARK    3  A    between atoms: C_15  and  O_28
REMARK    4  A    between atoms: C_17  and  O_27
REMARK    5  A    between atoms: C_19  and  O_26
REMARK    6  A    between atoms: C_21  and  C_24
REMARK                            x       y       z     vdW  Elec       q    Type
REMARK                         _______ _______ _______ _____ _____    ______ ____
ROOT
ATOM      1  C   UNL     1      -1.531   3.878   0.132  0.00  0.00    +0.340 C 
ATOM      2  C   UNL     1      -0.843   3.462  -1.170  0.00  0.00    +0.214 C 
ATOM      3  C   UNL     1      -0.761   1.933  -1.229  0.00  0.00    +0.180 C 
ATOM      4  C   UNL     1      -0.017   1.425   0.010  0.00  0.00    +0.186 C 
ATOM      5  C   UNL     1      -0.736   1.920   1.268  0.00  0.00    +0.266 C 
ATOM      6  O   UNL     1      -0.807   3.347   1.244  0.00  0.00    -0.322 OA
ENDROOT
BRANCH   5   7
ATOM      7  C   UNL     1       0.024   1.473   2.490  0.00  0.00    +0.387 C 
ATOM      8  O   UNL     1       0.538   2.292   3.214  0.00  0.00    -0.243 OA
ATOM      9  O   UNL     1       0.129   0.165   2.773  0.00  0.00    -0.243 OA
ENDBRANCH   5   7
BRANCH   4  10
ATOM     10  O   UNL     1       0.002  -0.004   0.002  0.00  0.00    -0.386 OA
ATOM     11  H   UNL     1       0.456  -0.395   0.761  0.00  0.00    +0.210 HD
ENDBRANCH   4  10
BRANCH   3  12
ATOM     12  O   UNL     1      -2.080   1.385  -1.254  0.00  0.00    -0.386 OA
ATOM     13  H   UNL     1      -2.608   1.665  -2.014  0.00  0.00    +0.210 HD
ENDBRANCH   3  12
BRANCH   2  14
ATOM     14  O   UNL     1      -1.596   3.943  -2.285  0.00  0.00    -0.383 OA
ATOM     15  H   UNL     1      -1.689   4.905  -2.311  0.00  0.00    +0.210 HD
ENDBRANCH   2  14
BRANCH   1  16
ATOM     16  O   UNL     1      -1.562   5.304   0.221  0.00  0.00    -0.461 OA
BRANCH  16  19
ATOM     17  C   UNL     1      -3.533   5.510   3.262  0.00  0.00    +0.012 A 
ATOM     18  C   UNL     1      -2.853   5.000   2.199  0.00  0.00    +0.046 A 
ATOM     19  C   UNL     1      -2.234   5.843   1.272  0.00  0.00    +0.125 A 
ATOM     20  C   UNL     1      -2.292   7.201   1.410  0.00  0.00    +0.054 A 
ATOM     21  C   UNL     1      -2.990   7.759   2.493  0.00  0.00    -0.014 A 
ATOM     22  C   UNL     1      -3.617   6.902   3.433  0.00  0.00    -0.017 A 
ATOM     23  C   UNL     1      -4.312   7.462   4.518  0.00  0.00    +0.023 A 
ATOM     24  C   UNL     1      -4.374   8.816   4.653  0.00  0.00    +0.018 A 
ATOM     25  C   UNL     1      -3.757   9.658   3.728  0.00  0.00    +0.016 A 
ATOM     26  C   UNL     1      -3.076   9.152   2.665  0.00  0.00    +0.010 A 
ATOM     27 BR   UNL     1      -5.310   9.565   6.115  0.00  0.00    -0.050 Br
ENDBRANCH  16  19
ENDBRANCH   1  16
TORSDOF 6
