REMARK  Name = ZINC35992784
REMARK  9 active torsions:
REMARK  status: ('A' for Active; 'I' for Inactive)
REMARK    1  A    between atoms: C_1  and  C_2
REMARK    2  A    between atoms: C_2  and  O_3
REMARK    3  A    between atoms: O_3  and  C_4
REMARK    4  A    between atoms: C_4  and  C_6
REMARK    5  A    between atoms: C_7  and  C_22
REMARK    6  A    between atoms: N_8  and  C_21
REMARK    7  A    between atoms: C_12  and  C_14
REMARK    8  A    between atoms: C_22  and  N_23
REMARK    9  A    between atoms: C_30  and  C_32
REMARK                            x       y       z     vdW  Elec       q    Type
REMARK                         _______ _______ _______ _____ _____    ______ ____
ROOT
ATOM      1  C   UNL     1       0.204  -2.648  -3.575  0.00  0.00    +0.076 C 
ATOM      2  C   UNL     1       1.139  -3.524  -3.151  0.00  0.00    +0.010 C 
ATOM      3  N   UNL     1       2.418  -3.476  -3.627  0.00  0.00    -0.264 N 
ATOM      4  C   UNL     1       2.841  -2.582  -4.529  0.00  0.00    +0.307 C 
ATOM      5  O   UNL     1       4.000  -2.618  -4.893  0.00  0.00    -0.252 OA
ATOM      6  N   UNL     1       2.024  -1.644  -5.047  0.00  0.00    -0.288 N 
ATOM      7  C   UNL     1       0.620  -1.614  -4.602  0.00  0.00    +0.145 C 
ATOM      8  C   UNL     1       3.381  -4.458  -3.122  0.00  0.00    +0.139 C 
ATOM      9  H   UNL     1       2.352  -1.005  -5.699  0.00  0.00    +0.151 HD
ENDROOT
BRANCH   7  10
ATOM     10  C   UNL     1       0.350  -0.249  -4.024  0.00  0.00    -0.004 A 
ATOM     11  C   UNL     1       1.321   0.389  -3.275  0.00  0.00    +0.007 A 
ATOM     12  C   UNL     1       1.073   1.641  -2.745  0.00  0.00    +0.000 A 
ATOM     13  C   UNL     1      -0.146   2.256  -2.962  0.00  0.00    +0.001 A 
ATOM     14  C   UNL     1      -1.118   1.618  -3.710  0.00  0.00    +0.020 A 
ATOM     15  C   UNL     1      -0.868   0.367  -4.246  0.00  0.00    +0.046 A 
ATOM     16 CL   UNL     1      -2.086  -0.431  -5.192  0.00  0.00    -0.083 Cl
ENDBRANCH   7  10
BRANCH   1  17
ATOM     17  C   UNL     1      -1.122  -2.697  -3.083  0.00  0.00    +0.339 C 
ATOM     18  O   UNL     1      -2.000  -3.212  -3.750  0.00  0.00    -0.245 OA
BRANCH  17  19
ATOM     19  O   UNL     1      -1.412  -2.172  -1.874  0.00  0.00    -0.462 OA
BRANCH  19  21
ATOM     20  C   UNL     1      -2.918  -1.597  -0.074  0.00  0.00    +0.048 C 
ATOM     21  C   UNL     1      -2.745  -2.355  -1.391  0.00  0.00    +0.229 C 
ENDBRANCH  19  21
ENDBRANCH  17  19
ENDBRANCH   1  17
BRANCH   2  22
ATOM     22  C   UNL     1       0.765  -4.572  -2.134  0.00  0.00    -0.026 C 
BRANCH  22  23
ATOM     23  N   UNL     1       0.170  -5.728  -2.817  0.00  0.00    +0.384 N 
ATOM     24  C   UNL     1      -0.408  -6.612  -1.809  0.00  0.00    -0.077 C 
ATOM     25  C   UNL     1      -1.582  -7.355  -2.409  0.00  0.00    +0.000 C 
ATOM     26  C   UNL     1      -1.103  -8.711  -2.959  0.00  0.00    +0.106 C 
ATOM     27  N   UNL     1       0.212  -8.582  -3.619  0.00  0.00    -0.299 N 
ATOM     28  C   UNL     1       0.543  -7.462  -4.476  0.00  0.00    +0.089 C 
ATOM     29  C   UNL     1       1.158  -6.321  -3.634  0.00  0.00    -0.059 C 
ATOM     30  C   UNL     1       1.137  -9.540  -3.416  0.00  0.00    +0.249 C 
ATOM     31  O   UNL     1       2.259  -9.407  -3.865  0.00  0.00    -0.270 OA
ATOM     32  H   UNL     1      -0.576  -5.395  -3.411  0.00  0.00    -0.081 HD
BRANCH  30  33
ATOM     33  C   UNL     1       0.788 -10.754  -2.650  0.00  0.00    +0.072 A 
ATOM     34  C   UNL     1      -0.365 -11.476  -2.966  0.00  0.00    +0.016 A 
ATOM     35  C   UNL     1      -0.685 -12.607  -2.246  0.00  0.00    +0.001 A 
ATOM     36  C   UNL     1       0.132 -13.030  -1.212  0.00  0.00    +0.003 A 
ATOM     37  C   UNL     1       1.275 -12.322  -0.891  0.00  0.00    +0.039 A 
ATOM     38  C   UNL     1       1.613 -11.188  -1.608  0.00  0.00    +0.135 A 
ATOM     39  F   UNL     1       2.733 -10.499  -1.298  0.00  0.00    -0.205 F 
ENDBRANCH  30  33
ENDBRANCH  22  23
ENDBRANCH   2  22
TORSDOF 7
