REMARK  Name = ZINC48273829
REMARK  13 active torsions:
REMARK  status: ('A' for Active; 'I' for Inactive)
REMARK    1  A    between atoms: C_1  and  C_2
REMARK    2  A    between atoms: C_2  and  C_4
REMARK    3  A    between atoms: C_2  and  N_10
REMARK    4  A    between atoms: C_14  and  C_17
REMARK    5  A    between atoms: C_17  and  N_18
REMARK    6  A    between atoms: N_18  and  C_19
REMARK    7  A    between atoms: C_19  and  C_20
REMARK    8  A    between atoms: C_19  and  C_21
REMARK    9  A    between atoms: C_22  and  O_24
REMARK   10  A    between atoms: O_24  and  C_25
REMARK   11  A    between atoms: C_25  and  C_26
REMARK   12  A    between atoms: C_25  and  C_27
REMARK   13  A    between atoms: C_25  and  C_28
REMARK                            x       y       z     vdW  Elec       q    Type
REMARK                         _______ _______ _______ _____ _____    ______ ____
ROOT
ATOM      1  N   UNL     1       0.323  -0.926   1.099  0.00  0.00    +0.387 N 
ATOM      2  C   UNL     1      -0.004  -2.299   0.694  0.00  0.00    -0.078 C 
ATOM      3  C   UNL     1       0.404  -3.272   1.802  0.00  0.00    -0.018 C 
ATOM      4  C   UNL     1      -0.355  -2.923   3.086  0.00  0.00    +0.001 C 
ATOM      5  C   UNL     1      -0.065  -1.466   3.458  0.00  0.00    -0.010 C 
ATOM      6  C   UNL     1      -0.455  -0.559   2.288  0.00  0.00    -0.073 C 
ATOM      7  H   UNL     1       1.308  -0.866   1.311  0.00  0.00    -0.081 HD
ENDROOT
BRANCH   1   9
ATOM      8  C   UNL     1       0.360   1.425   0.416  0.00  0.00    -0.004 C 
ATOM      9  C   UNL     1       0.002  -0.004   0.002  0.00  0.00    +0.017 C 
BRANCH   9  10
ATOM     10  C   UNL     1       0.793  -0.386  -1.223  0.00  0.00    +0.207 C 
ATOM     11  O   UNL     1       1.869  -0.931  -1.103  0.00  0.00    -0.277 OA
ATOM     12  N   UNL     1       0.304  -0.121  -2.450  0.00  0.00    -0.242 N 
ATOM     13  C   UNL     1       1.011  -0.463  -3.546  0.00  0.00    +0.303 C 
ATOM     14  O   UNL     1       2.090  -1.009  -3.426  0.00  0.00    -0.253 OA
ATOM     15  N   UNL     1       0.522  -0.198  -4.773  0.00  0.00    -0.313 N 
ATOM     16  H   UNL     1      -0.557   0.315  -2.546  0.00  0.00    +0.159 HD
ATOM     17  H   UNL     1      -0.339   0.238  -4.869  0.00  0.00    +0.146 HD
ATOM     18  H   UNL     1       1.031  -0.444  -5.561  0.00  0.00    +0.146 HD
ENDBRANCH   9  10
ENDBRANCH   1   9
BRANCH   5  19
ATOM     19  C   UNL     1      -0.879  -1.083   4.696  0.00  0.00    +0.113 C 
BRANCH  19  20
ATOM     20  N   UNL     1      -0.424  -1.873   5.843  0.00  0.00    -0.265 N 
ATOM     21  C   UNL     1      -0.998  -3.063   6.111  0.00  0.00    +0.404 C 
ATOM     22  O   UNL     1      -1.892  -3.480   5.402  0.00  0.00    -0.226 OA
BRANCH  20  23
ATOM     23  C   UNL     1       0.654  -1.371   6.697  0.00  0.00    +0.073 C 
ATOM     24  C   UNL     1       0.140  -1.218   8.130  0.00  0.00    +0.028 C 
ATOM     25  C   UNL     1       1.823  -2.357   6.678  0.00  0.00    +0.028 C 
ENDBRANCH  20  23
BRANCH  21  26
ATOM     26  O   UNL     1      -0.580  -3.789   7.165  0.00  0.00    -0.445 OA
BRANCH  26  27
ATOM     27  C   UNL     1      -1.232  -5.041   7.390  0.00  0.00    +0.107 C 
ATOM     28  C   UNL     1      -1.043  -5.942   6.169  0.00  0.00    +0.055 C 
ATOM     29  C   UNL     1      -0.627  -5.717   8.622  0.00  0.00    +0.055 C 
ATOM     30  C   UNL     1      -2.726  -4.803   7.621  0.00  0.00    +0.055 C 
ENDBRANCH  26  27
ENDBRANCH  21  26
ENDBRANCH  19  20
ENDBRANCH   5  19
TORSDOF 7
