REMARK  Name = ZINC67417883
REMARK  8 active torsions:
REMARK  status: ('A' for Active; 'I' for Inactive)
REMARK    1  A    between atoms: C_1  and  C_2
REMARK    2  A    between atoms: C_2  and  N_3
REMARK    3  A    between atoms: C_7  and  C_9
REMARK    4  A    between atoms: C_9  and  C_11
REMARK    5  A    between atoms: C_9  and  N_12
REMARK    6  A    between atoms: C_16  and  C_19
REMARK    7  A    between atoms: C_19  and  N_20
REMARK    8  A    between atoms: C_21  and  C_23
REMARK                            x       y       z     vdW  Elec       q    Type
REMARK                         _______ _______ _______ _____ _____    ______ ____
ROOT
ATOM      1  N   UNL     1       2.294  -5.550   3.966  0.00  0.00    +0.387 N 
ATOM      2  C   UNL     1       2.892  -6.026   5.219  0.00  0.00    -0.078 C 
ATOM      3  C   UNL     1       2.736  -7.544   5.319  0.00  0.00    -0.018 C 
ATOM      4  C   UNL     1       3.443  -8.204   4.131  0.00  0.00    +0.001 C 
ATOM      5  C   UNL     1       2.862  -7.645   2.829  0.00  0.00    -0.011 C 
ATOM      6  C   UNL     1       3.014  -6.122   2.822  0.00  0.00    -0.073 C 
ATOM      7  H   UNL     1       1.327  -5.832   3.929  0.00  0.00    -0.081 HD
ENDROOT
BRANCH   1   8
ATOM      8  C   UNL     1       2.378  -4.084   3.911  0.00  0.00    +0.017 C 
ATOM      9  C   UNL     1       1.676  -3.487   5.133  0.00  0.00    -0.004 C 
BRANCH   8  14
ATOM     10  N   UNL     1       1.882  -0.818   0.418  0.00  0.00    -0.299 N 
ATOM     11  C   UNL     1       1.495  -1.982   0.976  0.00  0.00    +0.306 C 
ATOM     12  O   UNL     1       0.604  -2.634   0.465  0.00  0.00    -0.252 OA
ATOM     13  N   UNL     1       2.095  -2.425   2.099  0.00  0.00    -0.242 N 
ATOM     14  C   UNL     1       1.707  -3.589   2.656  0.00  0.00    +0.207 C 
ATOM     15  O   UNL     1       0.819  -4.239   2.147  0.00  0.00    -0.277 OA
ATOM     16  H   UNL     1       2.593  -0.298   0.826  0.00  0.00    +0.150 HD
ATOM     17  H   UNL     1       2.805  -1.905   2.506  0.00  0.00    +0.159 HD
BRANCH  10  19
ATOM     18  C   UNL     1       1.853   0.996  -1.222  0.00  0.00    +0.024 C 
ATOM     19  C   UNL     1       1.230  -0.337  -0.802  0.00  0.00    +0.102 C 
ENDBRANCH  10  19
ENDBRANCH   8  14
ENDBRANCH   1   8
BRANCH   5  20
ATOM     20  C   UNL     1       3.615  -8.240   1.637  0.00  0.00    +0.105 C 
BRANCH  20  21
ATOM     21  N   UNL     1       3.374  -9.684   1.580  0.00  0.00    -0.315 N 
ATOM     22  C   UNL     1       3.941 -10.423   0.605  0.00  0.00    +0.210 C 
ATOM     23  O   UNL     1       4.649  -9.892  -0.224  0.00  0.00    -0.276 OA
ATOM     24  C   UNL     1       3.693 -11.908   0.546  0.00  0.00    +0.109 C 
ATOM     25  H   UNL     1       2.808 -10.108   2.243  0.00  0.00    +0.149 HD
ENDBRANCH  20  21
ENDBRANCH   5  20
TORSDOF 5
