REMARK  Name = ZINC39273764
REMARK  5 active torsions:
REMARK  status: ('A' for Active; 'I' for Inactive)
REMARK    1  A    between atoms: C_1  and  C_2
REMARK    2  A    between atoms: N_16  and  N_17
REMARK    3  A    between atoms: C_18  and  C_19
REMARK    4  A    between atoms: C_24  and  O_25
REMARK    5  A    between atoms: O_25  and  C_26
REMARK                            x       y       z     vdW  Elec       q    Type
REMARK                         _______ _______ _______ _____ _____    ______ ____
ROOT
ATOM      1  C   UNL     1      -0.018   1.503   0.010  0.00  0.00    +0.044 C 
ATOM      2  C   UNL     1       0.002  -0.004   0.002  0.00  0.00    -0.050 A 
ATOM      3  C   UNL     1       0.005  -0.672  -1.230  0.00  0.00    +0.005 A 
ATOM      4  C   UNL     1       0.017  -2.022  -1.308  0.00  0.00    +0.026 A 
ATOM      5  C   UNL     1       0.027  -2.812  -0.071  0.00  0.00    +0.046 A 
ATOM      6  N   UNL     1       0.071  -4.106   0.139  0.00  0.00    -0.359 N 
ATOM      7  C   UNL     1      -0.067  -4.355   1.565  0.00  0.00    +0.229 C 
ATOM      8  C   UNL     1       0.064  -2.998   2.235  0.00  0.00    +0.115 C 
ATOM      9  C   UNL     1       0.035  -2.075   1.218  0.00  0.00    +0.025 A 
ATOM     10  C   UNL     1       0.022  -0.662   1.184  0.00  0.00    +0.015 A 
ATOM     11  N   UNL     1       0.301  -2.882   3.544  0.00  0.00    -0.146 NA
ATOM     12  N   UNL     1       0.929  -3.879   4.089  0.00  0.00    -0.113 NA
ATOM     13  C   UNL     1       1.373  -4.934   3.364  0.00  0.00    +0.230 C 
ATOM     14  N   UNL     1       0.971  -5.206   2.143  0.00  0.00    -0.330 N 
ATOM     15  N   UNL     1       2.301  -5.776   3.943  0.00  0.00    -0.206 N 
ATOM     16  H   UNL     1       2.638  -6.540   3.449  0.00  0.00    +0.177 HD
ATOM     17  H   UNL     1       0.178  -4.786  -0.544  0.00  0.00    +0.162 HD
ATOM     18  H   UNL     1       1.350  -5.945   1.641  0.00  0.00    +0.165 HD
ENDROOT
BRANCH  15  19
ATOM     19  N   UNL     1       2.756  -5.527   5.244  0.00  0.00    -0.187 NA
ATOM     20  C   UNL     1       3.629  -6.319   5.789  0.00  0.00    +0.142 C 
BRANCH  20  21
ATOM     21  C   UNL     1       4.108  -6.057   7.158  0.00  0.00    +0.038 A 
ATOM     22  C   UNL     1       5.052  -6.903   7.746  0.00  0.00    +0.028 A 
ATOM     23  C   UNL     1       5.496  -6.652   9.028  0.00  0.00    +0.020 A 
ATOM     24  C   UNL     1       5.011  -5.565   9.735  0.00  0.00    +0.034 A 
ATOM     25  C   UNL     1       4.076  -4.721   9.164  0.00  0.00    +0.061 A 
ATOM     26  C   UNL     1       3.624  -4.954   7.875  0.00  0.00    +0.143 A 
ATOM     27 BR   UNL     1       3.420  -3.240  10.141  0.00  0.00    -0.046 Br
ATOM     28 BR   UNL     1       6.773  -7.798   9.823  0.00  0.00    -0.050 Br
BRANCH  26  29
ATOM     29  O   UNL     1       2.711  -4.122   7.311  0.00  0.00    -0.493 OA
ATOM     30  C   UNL     1       1.333  -4.441   7.508  0.00  0.00    +0.277 C 
ENDBRANCH  26  29
ENDBRANCH  20  21
ENDBRANCH  15  19
TORSDOF 3
