REMARK  Name = ZINC63350104
REMARK  4 active torsions:
REMARK  status: ('A' for Active; 'I' for Inactive)
REMARK    1  A    between atoms: C_8  and  C_16
REMARK    2  A    between atoms: C_19  and  O_22
REMARK    3  A    between atoms: O_22  and  C_23
REMARK    4  A    between atoms: C_23  and  C_24
REMARK                            x       y       z     vdW  Elec       q    Type
REMARK                         _______ _______ _______ _____ _____    ______ ____
ROOT
ATOM      1  C   UNL     1      -0.016   1.347   0.009  0.00  0.00    +0.001 A 
ATOM      2  C   UNL     1       1.165   2.101   0.002  0.00  0.00    +0.002 A 
ATOM      3  C   UNL     1       2.390   1.534  -0.017  0.00  0.00    +0.026 A 
ATOM      4  C   UNL     1       2.529   0.120  -0.031  0.00  0.00    +0.043 A 
ATOM      5  N   UNL     1       3.593  -0.653  -0.026  0.00  0.00    -0.376 N 
ATOM      6  C   UNL     1       3.155  -2.041  -0.140  0.00  0.00    +0.128 C 
ATOM      7  C   UNL     1       3.676  -2.919   1.001  0.00  0.00    +0.111 C 
ATOM      8  N   UNL     1       2.957  -4.202   0.964  0.00  0.00    -0.307 NA
ATOM      9  C   UNL     1       1.532  -4.075   1.282  0.00  0.00    +0.086 C 
ATOM     10  C   UNL     1       0.819  -3.248   0.195  0.00  0.00    +0.048 C 
ATOM     11  C   UNL     1       1.640  -1.996  -0.015  0.00  0.00    -0.035 C 
ATOM     12  C   UNL     1       1.294  -0.703  -0.014  0.00  0.00    -0.001 A 
ATOM     13  C   UNL     1       0.002  -0.004   0.002  0.00  0.00    +0.010 A 
ATOM     14  H   UNL     1       3.089  -4.665   0.077  0.00  0.00    +0.123 HD
ATOM     15  H   UNL     1       4.512  -0.352   0.043  0.00  0.00    +0.160 HD
ENDROOT
BRANCH   7  16
ATOM     16  C   UNL     1       5.153  -3.159   0.824  0.00  0.00    -0.028 A 
ATOM     17  C   UNL     1       5.594  -4.115  -0.072  0.00  0.00    +0.009 A 
ATOM     18  C   UNL     1       6.948  -4.338  -0.236  0.00  0.00    +0.046 A 
ATOM     19  C   UNL     1       7.865  -3.599   0.498  0.00  0.00    +0.121 A 
ATOM     20  C   UNL     1       7.420  -2.640   1.395  0.00  0.00    +0.046 A 
ATOM     21  C   UNL     1       6.066  -2.418   1.552  0.00  0.00    +0.009 A 
BRANCH  19  22
ATOM     22  O   UNL     1       9.197  -3.817   0.338  0.00  0.00    -0.483 OA
BRANCH  22  23
ATOM     23  C   UNL     1      10.083  -3.020   1.127  0.00  0.00    +0.324 C 
BRANCH  23  24
ATOM     24  C   UNL     1      11.509  -3.398   0.817  0.00  0.00    +0.248 C 
ATOM     25  O   UNL     1      11.743  -4.264   0.002  0.00  0.00    -0.272 OA
ATOM     26  N   UNL     1      12.524  -2.773   1.447  0.00  0.00    -0.327 N 
ATOM     27  H   UNL     1      12.336  -2.080   2.099  0.00  0.00    +0.145 HD
ATOM     28  H   UNL     1      13.441  -3.017   1.248  0.00  0.00    +0.145 HD
ENDBRANCH  23  24
ENDBRANCH  22  23
ENDBRANCH  19  22
ENDBRANCH   7  16
TORSDOF 4
