REMARK  Name = ZINC50369189
REMARK  5 active torsions:
REMARK  status: ('A' for Active; 'I' for Inactive)
REMARK    1  A    between atoms: C_1  and  O_2
REMARK    2  A    between atoms: O_2  and  C_3
REMARK    3  A    between atoms: C_8  and  N_10
REMARK    4  A    between atoms: N_10  and  C_11
REMARK    5  A    between atoms: C_20  and  N_21
REMARK                            x       y       z     vdW  Elec       q    Type
REMARK                         _______ _______ _______ _____ _____    ______ ____
ROOT
ATOM      1  C   UNL     1       0.235  -3.016  -2.386  0.00  0.00    +0.059 A 
ATOM      2  C   UNL     1       1.503  -3.160  -2.993  0.00  0.00    +0.022 A 
ATOM      3  C   UNL     1       2.515  -2.208  -2.800  0.00  0.00    +0.027 A 
ATOM      4  C   UNL     1       3.726  -2.381  -3.402  0.00  0.00    +0.019 A 
ATOM      5  C   UNL     1       3.970  -3.493  -4.207  0.00  0.00    +0.017 A 
ATOM      6  C   UNL     1       3.010  -4.434  -4.415  0.00  0.00    +0.027 A 
ATOM      7  C   UNL     1       1.749  -4.290  -3.811  0.00  0.00    +0.048 A 
ATOM      8  N   UNL     1       0.789  -5.202  -3.998  0.00  0.00    -0.359 N 
ATOM      9  C   UNL     1      -0.394  -5.085  -3.442  0.00  0.00    +0.107 A 
ATOM     10  C   UNL     1      -0.714  -4.005  -2.620  0.00  0.00    +0.062 A 
ATOM     11 BR   UNL     1       5.090  -1.098  -3.142  0.00  0.00    -0.050 Br
ATOM     12  H   UNL     1       0.972  -5.971  -4.561  0.00  0.00    +0.165 HD
ENDROOT
BRANCH  10  13
ATOM     13  N   UNL     1      -1.986  -3.915  -2.037  0.00  0.00    -0.355 N 
ATOM     14  H   UNL     1      -2.172  -3.223  -1.383  0.00  0.00    +0.142 HD
ATOM     15  H   UNL     1      -2.680  -4.544  -2.288  0.00  0.00    +0.142 HD
ENDBRANCH  10  13
BRANCH   1  16
ATOM     16  N   UNL     1      -0.053  -1.923  -1.575  0.00  0.00    -0.337 N 
ATOM     17  H   UNL     1       0.476  -1.757  -0.779  0.00  0.00    +0.147 HD
BRANCH  16  22
ATOM     18  C   UNL     1      -0.652   0.082  -2.871  0.00  0.00    +0.138 C 
ATOM     19  C   UNL     1      -0.888   1.425  -2.148  0.00  0.00    +0.033 C 
ATOM     20  C   UNL     1      -2.024   1.119  -1.141  0.00  0.00    +0.004 C 
ATOM     21  C   UNL     1      -1.677  -0.311  -0.657  0.00  0.00    +0.025 C 
ATOM     22  C   UNL     1      -1.154  -1.022  -1.924  0.00  0.00    +0.099 C 
BRANCH  18  24
ATOM     23  C   UNL     1       1.158   0.387  -4.412  0.00  0.00    +0.194 C 
ATOM     24  O   UNL     1       0.742  -0.094  -3.133  0.00  0.00    -0.378 OA
ENDBRANCH  18  24
ENDBRANCH  16  22
ENDBRANCH   1  16
TORSDOF 4
