REMARK  Name = ZINC59170711
REMARK  8 active torsions:
REMARK  status: ('A' for Active; 'I' for Inactive)
REMARK    1  A    between atoms: C_1  and  O_2
REMARK    2  A    between atoms: O_2  and  C_3
REMARK    3  A    between atoms: N_11  and  C_12
REMARK    4  A    between atoms: C_15  and  S_18
REMARK    5  A    between atoms: S_18  and  N_21
REMARK    6  A    between atoms: C_22  and  C_24
REMARK    7  A    between atoms: N_26  and  C_27
REMARK    8  A    between atoms: C_31  and  N_33
REMARK                            x       y       z     vdW  Elec       q    Type
REMARK                         _______ _______ _______ _____ _____    ______ ____
ROOT
ATOM      1  C   UNL     1       0.460  -0.643  -0.765  0.00  0.00    +0.163 A 
ATOM      2  C   UNL     1       1.529   0.132  -1.181  0.00  0.00    +0.049 A 
ATOM      3  C   UNL     1       2.727  -0.460  -1.553  0.00  0.00    +0.004 A 
ATOM      4  C   UNL     1       2.871  -1.828  -1.514  0.00  0.00    +0.012 A 
ATOM      5  C   UNL     1       1.799  -2.628  -1.098  0.00  0.00    +0.022 A 
ATOM      6  C   UNL     1       0.586  -2.027  -0.713  0.00  0.00    +0.179 A 
ATOM      7  O   UNL     1      -0.447  -2.800  -0.297  0.00  0.00    -0.435 OA
ATOM      8  C   UNL     1      -0.503  -4.067  -0.780  0.00  0.00    +0.212 A 
ATOM      9  N   UNL     1      -1.647  -4.606  -1.141  0.00  0.00    -0.325 N 
ATOM     10  C   UNL     1       0.761  -4.823  -0.887  0.00  0.00    +0.098 A 
ATOM     11  C   UNL     1       1.924  -4.086  -1.055  0.00  0.00    +0.030 A 
ATOM     12  H   UNL     1      -1.659  -5.469  -1.584  0.00  0.00    +0.169 HD
ENDROOT
BRANCH   9  13
ATOM     13  C   UNL     1      -2.821  -3.949  -0.893  0.00  0.00    +0.042 A 
ATOM     14  C   UNL     1      -3.043  -3.354   0.351  0.00  0.00    +0.027 A 
ATOM     15  C   UNL     1      -4.228  -2.693   0.594  0.00  0.00    +0.030 A 
ATOM     16  C   UNL     1      -5.197  -2.618  -0.391  0.00  0.00    +0.105 A 
ATOM     17  C   UNL     1      -4.984  -3.204  -1.626  0.00  0.00    +0.030 A 
ATOM     18  C   UNL     1      -3.801  -3.864  -1.885  0.00  0.00    +0.027 A 
BRANCH  16  19
ATOM     19  S   UNL     1      -6.709  -1.772  -0.072  0.00  0.00    +0.056 S 
ATOM     20  O   UNL     1      -7.673  -2.310  -0.966  0.00  0.00    -0.153 OA
ATOM     21  O   UNL     1      -6.889  -1.780   1.338  0.00  0.00    -0.153 OA
BRANCH  19  22
ATOM     22  N   UNL     1      -6.488  -0.190  -0.511  0.00  0.00    -0.204 NA
ATOM     23  H   UNL     1      -7.239   0.334  -0.830  0.00  0.00    +0.144 HD
ATOM     24  H   UNL     1      -5.607   0.211  -0.449  0.00  0.00    +0.144 HD
ENDBRANCH  19  22
ENDBRANCH  16  19
ENDBRANCH   9  13
BRANCH  10  25
ATOM     25  C   UNL     1       0.784  -6.294  -0.828  0.00  0.00    +0.253 C 
ATOM     26  O   UNL     1       1.818  -6.896  -1.050  0.00  0.00    -0.270 OA
ATOM     27  N   UNL     1      -0.340  -6.974  -0.527  0.00  0.00    -0.281 N 
ATOM     28  H   UNL     1      -1.176  -6.499  -0.402  0.00  0.00    +0.155 HD
BRANCH  27  29
ATOM     29  C   UNL     1      -0.301  -8.366  -0.396  0.00  0.00    +0.036 A 
ATOM     30  C   UNL     1       0.542  -9.118  -1.204  0.00  0.00    +0.023 A 
ATOM     31  C   UNL     1       0.578 -10.492  -1.071  0.00  0.00    +0.004 A 
ATOM     32  C   UNL     1      -0.224 -11.120  -0.136  0.00  0.00    +0.033 A 
ATOM     33  C   UNL     1      -1.064 -10.374   0.671  0.00  0.00    +0.128 A 
ATOM     34  C   UNL     1      -1.101  -8.999   0.547  0.00  0.00    +0.056 A 
BRANCH  33  35
ATOM     35  N   UNL     1      -1.921 -11.049   1.671  0.00  0.00    +0.056 N 
ATOM     36  O   UNL     1      -1.886 -12.253   1.782  0.00  0.00    -0.126 OA
ATOM     37  O   UNL     1      -2.655 -10.398   2.376  0.00  0.00    -0.126 OA
ENDBRANCH  33  35
ENDBRANCH  27  29
ENDBRANCH  10  25
BRANCH   1  39
ATOM     38  C   UNL     1      -0.768   1.374  -0.481  0.00  0.00    +0.277 C 
ATOM     39  O   UNL     1      -0.710  -0.051  -0.403  0.00  0.00    -0.491 OA
ENDBRANCH   1  39
TORSDOF 7
