REMARK  Name = ZINC19961845
REMARK  10 active torsions:
REMARK  status: ('A' for Active; 'I' for Inactive)
REMARK    1  A    between atoms: C_1  and  C_2
REMARK    2  A    between atoms: C_2  and  C_3
REMARK    3  A    between atoms: C_8  and  N_9
REMARK    4  A    between atoms: C_10  and  C_12
REMARK    5  A    between atoms: C_12  and  C_13
REMARK    6  A    between atoms: C_21  and  C_23
REMARK    7  A    between atoms: C_23  and  N_24
REMARK    8  A    between atoms: N_27  and  C_30
REMARK    9  A    between atoms: C_35  and  O_36
REMARK   10  A    between atoms: O_36  and  C_37
REMARK                            x       y       z     vdW  Elec       q    Type
REMARK                         _______ _______ _______ _____ _____    ______ ____
ROOT
ATOM      1  C   UNL     1       9.375   4.590  -2.565  0.00  0.00    +0.170 C 
ATOM      2  C   UNL     1      10.794   4.458  -2.084  0.00  0.00    +0.234 C 
ATOM      3  O   UNL     1      11.597   3.894  -2.797  0.00  0.00    -0.274 OA
ATOM      4  N   UNL     1      11.210   4.931  -0.908  0.00  0.00    -0.312 N 
ATOM      5  C   UNL     1      10.345   5.548   0.088  0.00  0.00    +0.123 C 
ATOM      6  C   UNL     1       9.058   6.074  -0.561  0.00  0.00    +0.127 C 
ATOM      7  N   UNL     1       8.529   5.018  -1.441  0.00  0.00    -0.289 N 
ATOM      8  C   UNL     1       7.317   4.470  -1.227  0.00  0.00    +0.200 C 
ATOM      9  O   UNL     1       6.903   3.605  -1.970  0.00  0.00    -0.278 OA
ATOM     10  H   UNL     1      12.289   4.831  -0.714  0.00  0.00    +0.149 HD
ENDROOT
BRANCH   1  11
ATOM     11  C   UNL     1       9.308   5.634  -3.682  0.00  0.00    +0.128 C 
BRANCH  11  13
ATOM     12  N   UNL     1       7.611   6.541  -5.236  0.00  0.00    -0.285 N 
ATOM     13  C   UNL     1       7.908   5.687  -4.236  0.00  0.00    +0.219 C 
ATOM     14  O   UNL     1       7.048   4.963  -3.782  0.00  0.00    -0.275 OA
ATOM     15  H   UNL     1       8.365   7.261  -5.587  0.00  0.00    +0.155 HD
BRANCH  12  21
ATOM     16  C   UNL     1       5.839   7.645  -6.450  0.00  0.00    -0.026 A 
ATOM     17  C   UNL     1       4.590   7.610  -7.039  0.00  0.00    +0.005 A 
ATOM     18  C   UNL     1       3.838   6.451  -7.001  0.00  0.00    +0.000 A 
ATOM     19  C   UNL     1       4.336   5.321  -6.379  0.00  0.00    +0.002 A 
ATOM     20  C   UNL     1       5.587   5.347  -5.793  0.00  0.00    +0.023 A 
ATOM     21  C   UNL     1       6.344   6.511  -5.829  0.00  0.00    +0.037 A 
BRANCH  16  23
ATOM     22  C   UNL     1       7.615   8.867  -7.676  0.00  0.00    +0.009 C 
ATOM     23  C   UNL     1       6.655   8.912  -6.486  0.00  0.00    +0.033 C 
ENDBRANCH  16  23
ENDBRANCH  12  21
ENDBRANCH  11  13
ENDBRANCH   1  11
BRANCH   8  24
ATOM     24  C   UNL     1       6.475   4.932  -0.065  0.00  0.00    +0.019 C 
BRANCH  24  25
ATOM     25  N   UNL     1       5.209   4.186  -0.051  0.00  0.00    +0.387 N 
ATOM     26  C   UNL     1       4.466   4.434   1.193  0.00  0.00    -0.059 C 
ATOM     27  C   UNL     1       3.196   3.580   1.204  0.00  0.00    +0.086 C 
ATOM     28  N   UNL     1       2.377   3.911   0.029  0.00  0.00    -0.331 N 
ATOM     29  C   UNL     1       3.120   3.663  -1.214  0.00  0.00    +0.086 C 
ATOM     30  C   UNL     1       4.390   4.517  -1.225  0.00  0.00    -0.059 C 
ATOM     31  H   UNL     1       5.449   3.114  -0.095  0.00  0.00    -0.081 HD
BRANCH  28  32
ATOM     32  C   UNL     1       1.171   3.201   0.043  0.00  0.00    +0.072 A 
ATOM     33  C   UNL     1       1.180   1.814   0.035  0.00  0.00    +0.027 A 
ATOM     34  C   UNL     1      -0.012   1.115   0.049  0.00  0.00    +0.002 A 
ATOM     35  C   UNL     1      -1.216   1.795   0.066  0.00  0.00    +0.004 A 
ATOM     36  C   UNL     1      -1.233   3.177   0.079  0.00  0.00    +0.047 A 
ATOM     37  C   UNL     1      -0.043   3.885   0.065  0.00  0.00    +0.141 A 
BRANCH  37  38
ATOM     38  O   UNL     1      -0.058   5.245   0.074  0.00  0.00    -0.493 OA
ATOM     39  C   UNL     1      -1.339   5.879   0.097  0.00  0.00    +0.277 C 
ENDBRANCH  37  38
ENDBRANCH  28  32
ENDBRANCH  24  25
ENDBRANCH   8  24
TORSDOF 8
