REMARK  Name = ZINC27563515
REMARK  9 active torsions:
REMARK  status: ('A' for Active; 'I' for Inactive)
REMARK    1  A    between atoms: C_1  and  C_2
REMARK    2  A    between atoms: C_2  and  N_3
REMARK    3  A    between atoms: N_3  and  C_4
REMARK    4  A    between atoms: N_3  and  C_16
REMARK    5  A    between atoms: C_4  and  C_5
REMARK    6  A    between atoms: N_7  and  C_8
REMARK    7  A    between atoms: C_16  and  C_17
REMARK    8  A    between atoms: N_22  and  C_23
REMARK    9  A    between atoms: C_23  and  C_24
REMARK                            x       y       z     vdW  Elec       q    Type
REMARK                         _______ _______ _______ _____ _____    ______ ____
ROOT
ATOM      1  N   UNL     1       5.796   2.769  -0.689  0.00  0.00    +0.391 N 
ATOM      2  H   UNL     1       5.724   3.653  -0.038  0.00  0.00    -0.080 HD
ENDROOT
BRANCH   1   4
ATOM      3  C   UNL     1       4.511   4.256  -2.151  0.00  0.00    -0.017 C 
ATOM      4  C   UNL     1       5.633   3.218  -2.078  0.00  0.00    -0.081 C 
ENDBRANCH   1   4
BRANCH   1   5
ATOM      5  C   UNL     1       4.725   1.839  -0.307  0.00  0.00    +0.020 C 
BRANCH   5   6
ATOM      6  C   UNL     1       4.619   1.784   1.195  0.00  0.00    +0.201 C 
ATOM      7  O   UNL     1       5.290   2.529   1.878  0.00  0.00    -0.278 OA
ATOM      8  N   UNL     1       3.780   0.907   1.780  0.00  0.00    -0.285 N 
ATOM      9  H   UNL     1       3.215   0.192   1.164  0.00  0.00    +0.155 HD
BRANCH   8  10
ATOM     10  C   UNL     1       3.626   0.906   3.172  0.00  0.00    +0.070 A 
ATOM     11  C   UNL     1       3.571  -0.296   3.865  0.00  0.00    +0.064 A 
ATOM     12  C   UNL     1       3.420  -0.293   5.239  0.00  0.00    +0.022 A 
ATOM     13  C   UNL     1       3.322   0.905   5.923  0.00  0.00    +0.003 A 
ATOM     14  C   UNL     1       3.382   2.103   5.237  0.00  0.00    +0.022 A 
ATOM     15  C   UNL     1       3.527   2.108   3.862  0.00  0.00    +0.064 A 
ATOM     16 CL   UNL     1       3.595   3.613   3.000  0.00  0.00    -0.082 Cl
ATOM     17 CL   UNL     1       3.694  -1.801   3.008  0.00  0.00    -0.082 Cl
ENDBRANCH   8  10
ENDBRANCH   5   6
ENDBRANCH   1   5
BRANCH   1  18
ATOM     18  C   UNL     1       7.118   2.163  -0.483  0.00  0.00    +0.020 C 
BRANCH  18  19
ATOM     19  C   UNL     1       8.184   3.216  -0.647  0.00  0.00    +0.204 C 
ATOM     20  O   UNL     1       7.873   4.358  -0.910  0.00  0.00    -0.277 OA
ATOM     21  N   UNL     1       9.483   2.887  -0.502  0.00  0.00    -0.242 N 
ATOM     22  C   UNL     1      10.437   3.828  -0.649  0.00  0.00    +0.306 C 
ATOM     23  O   UNL     1      10.125   4.973  -0.912  0.00  0.00    -0.252 OA
ATOM     24  N   UNL     1      11.736   3.499  -0.504  0.00  0.00    -0.292 N 
ATOM     25  H   UNL     1       9.765   1.851  -0.264  0.00  0.00    +0.159 HD
ATOM     26  H   UNL     1      12.018   2.463  -0.266  0.00  0.00    +0.151 HD
BRANCH  24  27
ATOM     27  C   UNL     1      12.772   4.522  -0.664  0.00  0.00    +0.180 C 
BRANCH  27  28
ATOM     28  C   UNL     1      14.129   3.900  -0.453  0.00  0.00    +0.122 A 
ATOM     29  C   UNL     1      14.898   3.348  -1.408  0.00  0.00    +0.046 A 
ATOM     30  C   UNL     1      16.076   2.892  -0.772  0.00  0.00    +0.041 A 
ATOM     31  C   UNL     1      15.956   3.193   0.533  0.00  0.00    +0.195 A 
ATOM     32  O   UNL     1      14.777   3.809   0.720  0.00  0.00    -0.466 OA
ENDBRANCH  27  28
ENDBRANCH  24  27
ENDBRANCH  18  19
ENDBRANCH   1  18
TORSDOF 8
