REMARK  Name = ZINC05003784
REMARK  6 active torsions:
REMARK  status: ('A' for Active; 'I' for Inactive)
REMARK    1  A    between atoms: C_3  and  N_24
REMARK    2  A    between atoms: C_4  and  N_21
REMARK    3  A    between atoms: C_6  and  C_7
REMARK    4  A    between atoms: C_7  and  C_11
REMARK    5  A    between atoms: C_14  and  N_20
REMARK    6  A    between atoms: C_15  and  N_17
REMARK                            x       y       z     vdW  Elec       q    Type
REMARK                         _______ _______ _______ _____ _____    ______ ____
ROOT
ATOM      1  C   UNL     1      -0.892   2.452   0.211  0.00  0.00    +0.019 C 
ATOM      2  C   UNL     1       0.320   1.877   0.248  0.00  0.00    +0.115 C 
ATOM      3 CL   UNL     1       0.469   0.190   0.631  0.00  0.00    -0.070 Cl
ATOM      4 CL   UNL     1       1.738   2.817  -0.095  0.00  0.00    -0.070 Cl
ENDROOT
BRANCH   1  10
ATOM      5  C   UNL     1      -1.504   4.785   0.839  0.00  0.00    +0.010 A 
ATOM      6  C   UNL     1      -1.617   6.125   0.535  0.00  0.00    +0.025 A 
ATOM      7  C   UNL     1      -1.256   6.585  -0.727  0.00  0.00    +0.055 A 
ATOM      8  C   UNL     1      -0.777   5.696  -1.682  0.00  0.00    +0.147 A 
ATOM      9  C   UNL     1      -0.658   4.356  -1.381  0.00  0.00    +0.043 A 
ATOM     10  C   UNL     1      -1.019   3.892  -0.116  0.00  0.00    -0.013 A 
BRANCH   8  11
ATOM     11  N   UNL     1      -0.394   6.189  -3.025  0.00  0.00    +0.058 N 
ATOM     12  O   UNL     1      -0.083   5.398  -3.898  0.00  0.00    -0.126 OA
ATOM     13  O   UNL     1      -0.390   7.384  -3.256  0.00  0.00    -0.126 OA
ENDBRANCH   8  11
BRANCH   7  14
ATOM     14  N   UNL     1      -1.376   7.941  -1.035  0.00  0.00    -0.356 N 
ATOM     15  H   UNL     1      -1.482   8.222  -1.957  0.00  0.00    +0.142 HD
ATOM     16  H   UNL     1      -1.353   8.603  -0.326  0.00  0.00    +0.142 HD
ENDBRANCH   7  14
ENDBRANCH   1  10
BRANCH   1  17
ATOM     17  C   UNL     1      -2.103   1.648   0.498  0.00  0.00    -0.013 A 
ATOM     18  C   UNL     1      -3.054   1.437  -0.500  0.00  0.00    +0.010 A 
ATOM     19  C   UNL     1      -4.177   0.684  -0.233  0.00  0.00    +0.025 A 
ATOM     20  C   UNL     1      -4.368   0.143   1.034  0.00  0.00    +0.055 A 
ATOM     21  C   UNL     1      -3.424   0.357   2.032  0.00  0.00    +0.147 A 
ATOM     22  C   UNL     1      -2.296   1.105   1.768  0.00  0.00    +0.043 A 
BRANCH  21  23
ATOM     23  N   UNL     1      -3.630  -0.221   3.380  0.00  0.00    +0.058 N 
ATOM     24  O   UNL     1      -2.860   0.053   4.283  0.00  0.00    -0.126 OA
ATOM     25  O   UNL     1      -4.568  -0.969   3.585  0.00  0.00    -0.126 OA
ENDBRANCH  21  23
BRANCH  20  26
ATOM     26  N   UNL     1      -5.509  -0.615   1.304  0.00  0.00    -0.356 N 
ATOM     27  H   UNL     1      -5.837  -0.690   2.214  0.00  0.00    +0.142 HD
ATOM     28  H   UNL     1      -5.974  -1.066   0.582  0.00  0.00    +0.142 HD
ENDBRANCH  20  26
ENDBRANCH   1  17
TORSDOF 6
