REMARK  Name = ZINC43401365
REMARK  4 active torsions:
REMARK  status: ('A' for Active; 'I' for Inactive)
REMARK    1  A    between atoms: C_1  and  C_2
REMARK    2  A    between atoms: C_5  and  C_14
REMARK    3  A    between atoms: C_6  and  N_8
REMARK    4  A    between atoms: C_10  and  C_13
REMARK                            x       y       z     vdW  Elec       q    Type
REMARK                         _______ _______ _______ _____ _____    ______ ____
ROOT
ATOM      1  C   UNL     1      -0.295   1.485   0.012  0.00  0.00    +0.065 C 
ATOM      2  C   UNL     1      -0.124  -0.012  -0.003  0.00  0.00    +0.041 A 
ATOM      3  C   UNL     1      -0.054  -0.676  -1.215  0.00  0.00    +0.024 A 
ATOM      4  C   UNL     1       0.103  -2.051  -1.229  0.00  0.00    +0.016 A 
ATOM      5  C   UNL     1       0.186  -2.723  -0.005  0.00  0.00    +0.056 A 
ATOM      6  C   UNL     1       0.107  -1.980   1.181  0.00  0.00    +0.165 A 
ATOM      7  N   UNL     1      -0.038  -0.666   1.139  0.00  0.00    -0.232 NA
ENDROOT
BRANCH   5   8
ATOM      8  C   UNL     1       0.354  -4.190   0.037  0.00  0.00    +0.098 C 
ATOM      9  N   UNL     1      -0.532  -4.980  -0.570  0.00  0.00    -0.387 N 
ATOM     10  N   UNL     1       1.390  -4.724   0.682  0.00  0.00    -0.344 N 
ATOM     11  H   UNL     1      -1.247  -4.591  -1.097  0.00  0.00    +0.157 HD
ATOM     12  H   UNL     1       2.035  -4.149   1.124  0.00  0.00    +0.144 HD
ATOM     13  H   UNL     1       1.500  -5.688   0.710  0.00  0.00    +0.144 HD
ATOM     14  H   UNL     1      -0.460  -5.943  -0.485  0.00  0.00    +0.157 HD
ENDBRANCH   5   8
BRANCH   6  15
ATOM     15  N   UNL     1       0.187  -2.629   2.412  0.00  0.00    -0.221 N 
ATOM     16  C   UNL     1       0.623  -2.084   3.578  0.00  0.00    +0.119 A 
ATOM     17  C   UNL     1       0.543  -3.039   4.532  0.00  0.00    -0.013 A 
ATOM     18  C   UNL     1       0.045  -4.204   3.935  0.00  0.00    +0.138 A 
ATOM     19  N   UNL     1      -0.173  -3.958   2.669  0.00  0.00    -0.173 NA
ATOM     20  C   UNL     1       0.925  -2.880   5.981  0.00  0.00    +0.047 C 
ENDBRANCH   6  15
TORSDOF 2
