REMARK  Name = ZINC50594887
REMARK  7 active torsions:
REMARK  status: ('A' for Active; 'I' for Inactive)
REMARK    1  A    between atoms: C_1  and  C_2
REMARK    2  A    between atoms: C_4  and  C_19
REMARK    3  A    between atoms: N_5  and  C_7
REMARK    4  A    between atoms: C_7  and  C_8
REMARK    5  A    between atoms: C_8  and  C_9
REMARK    6  A    between atoms: C_8  and  C_15
REMARK    7  A    between atoms: C_8  and  N_18
REMARK                            x       y       z     vdW  Elec       q    Type
REMARK                         _______ _______ _______ _____ _____    ______ ____
ROOT
ATOM      1  C   UNL     1       1.503  -3.688   1.779  0.00  0.00    +0.138 C 
ENDROOT
BRANCH   1   2
ATOM      2  C   UNL     1       1.523  -4.907   2.664  0.00  0.00    -0.017 A 
ATOM      3  C   UNL     1       0.502  -5.835   2.586  0.00  0.00    +0.006 A 
ATOM      4  C   UNL     1       0.520  -6.954   3.398  0.00  0.00    +0.000 A 
ATOM      5  C   UNL     1       1.561  -7.144   4.288  0.00  0.00    +0.000 A 
ATOM      6  C   UNL     1       2.584  -6.217   4.365  0.00  0.00    +0.000 A 
ATOM      7  C   UNL     1       2.567  -5.101   3.550  0.00  0.00    +0.006 A 
ENDBRANCH   1   2
BRANCH   1   8
ATOM      8  C   UNL     1       2.212  -3.994   0.485  0.00  0.00    +0.237 C 
ATOM      9  O   UNL     1       2.285  -5.139   0.090  0.00  0.00    -0.274 OA
ATOM     10  N   UNL     1       2.763  -2.997  -0.234  0.00  0.00    -0.327 N 
ATOM     11  H   UNL     1       2.704  -2.081   0.081  0.00  0.00    +0.145 HD
ATOM     12  H   UNL     1       3.220  -3.194  -1.067  0.00  0.00    +0.145 HD
ENDBRANCH   1   8
BRANCH   1  13
ATOM     13  N   UNL     1       2.183  -2.578   2.459  0.00  0.00    -0.312 NA
ATOM     14  H   UNL     1       1.727  -2.353   3.330  0.00  0.00    +0.120 HD
ATOM     15  H   UNL     1       3.159  -2.787   2.606  0.00  0.00    +0.120 HD
ENDBRANCH   1  13
BRANCH   1  16
ATOM     16  C   UNL     1       0.053  -3.295   1.486  0.00  0.00    +0.180 C 
BRANCH  16  21
ATOM     17  C   UNL     1      -0.018   1.503   0.010  0.00  0.00    +0.068 C 
ATOM     18  C   UNL     1       0.002  -0.004   0.002  0.00  0.00    +0.074 A 
ATOM     19  C   UNL     1       0.008  -0.818  -1.136  0.00  0.00    +0.061 A 
ATOM     20  C   UNL     1       0.027  -2.108  -0.725  0.00  0.00    +0.050 A 
ATOM     21  N   UNL     1       0.034  -2.109   0.625  0.00  0.00    -0.265 N 
ATOM     22  N   UNL     1       0.023  -0.777   1.058  0.00  0.00    -0.175 NA
ATOM     23  C   UNL     1       0.039  -3.324  -1.615  0.00  0.00    +0.066 C 
ATOM     24 BR   UNL     1      -0.009  -0.222  -2.930  0.00  0.00    -0.047 Br
ENDBRANCH  16  21
ENDBRANCH   1  16
TORSDOF 5
