REMARK  Name = ZINC64417722
REMARK  3 active torsions:
REMARK  status: ('A' for Active; 'I' for Inactive)
REMARK    1  A    between atoms: C_5  and  C_6
REMARK    2  A    between atoms: C_12  and  C_14
REMARK    3  A    between atoms: C_24  and  O_30
REMARK                            x       y       z     vdW  Elec       q    Type
REMARK                         _______ _______ _______ _____ _____    ______ ____
ROOT
ATOM      1  C   UNL     1      -0.148  -1.054  -0.246  0.00  0.00    +0.056 C 
ATOM      2  N   UNL     1      -1.113  -0.187  -0.226  0.00  0.00    -0.264 NA
ATOM      3  C   UNL     1      -2.435  -0.851  -0.124  0.00  0.00    +0.200 C 
ATOM      4  C   UNL     1      -2.151  -2.262  -0.684  0.00  0.00    +0.088 C 
ATOM      5  C   UNL     1      -0.706  -2.466  -0.181  0.00  0.00    +0.068 C 
ATOM      6  C   UNL     1      -3.112  -3.297  -0.145  0.00  0.00    +0.210 C 
ATOM      7  N   UNL     1      -3.228  -3.216   1.308  0.00  0.00    -0.274 N 
ATOM      8  C   UNL     1      -3.131  -2.032   1.931  0.00  0.00    +0.303 C 
ATOM      9  O   UNL     1      -3.365  -1.977   3.123  0.00  0.00    -0.253 OA
ATOM     10  N   UNL     1      -2.778  -0.890   1.295  0.00  0.00    -0.277 N 
ATOM     11  H   UNL     1      -3.376  -4.023   1.826  0.00  0.00    +0.153 HD
ATOM     12  H   UNL     1      -2.763  -0.054   1.788  0.00  0.00    +0.152 HD
ENDROOT
BRANCH   5  13
ATOM     13  C   UNL     1      -0.700  -2.991   1.256  0.00  0.00    +0.145 C 
ATOM     14  C   UNL     1       0.469  -2.357   1.986  0.00  0.00    +0.099 C 
ATOM     15  N   UNL     1       1.368  -3.155   2.512  0.00  0.00    -0.152 NA
ATOM     16  C   UNL     1       1.289  -4.484   2.426  0.00  0.00    +0.331 C 
ATOM     17  O   UNL     1       2.174  -5.136   2.948  0.00  0.00    -0.250 OA
ATOM     18  N   UNL     1       0.307  -5.154   1.810  0.00  0.00    -0.238 N 
ATOM     19  C   UNL     1      -0.710  -4.508   1.205  0.00  0.00    +0.231 C 
ATOM     20  O   UNL     1      -1.597  -5.117   0.646  0.00  0.00    -0.275 OA
ATOM     21  N   UNL     1       0.580  -1.016   2.091  0.00  0.00    -0.348 N 
ATOM     22  H   UNL     1       0.330  -6.124   1.796  0.00  0.00    +0.159 HD
ATOM     23  H   UNL     1      -0.174  -0.448   1.867  0.00  0.00    +0.143 HD
ATOM     24  H   UNL     1       1.413  -0.620   2.390  0.00  0.00    +0.143 HD
ENDBRANCH   5  13
BRANCH   1  29
ATOM     25  C   UNL     1       1.877   0.528  -0.389  0.00  0.00    +0.019 A 
ATOM     26  C   UNL     1       3.251   0.526  -0.457  0.00  0.00    +0.028 A 
ATOM     27  C   UNL     1       3.908  -0.661  -0.458  0.00  0.00    +0.079 A 
ATOM     28  S   UNL     1       2.685  -1.809  -0.367  0.00  0.00    -0.076 S 
ATOM     29  C   UNL     1       1.275  -0.719  -0.326  0.00  0.00    +0.035 A 
ATOM     30 CL   UNL     1       5.621  -0.932  -0.536  0.00  0.00    -0.076 Cl
ENDBRANCH   1  29
BRANCH   6  31
ATOM     31  O   UNL     1      -4.400  -3.086  -0.727  0.00  0.00    -0.374 OA
ATOM     32  H   UNL     1      -5.074  -3.713  -0.430  0.00  0.00    +0.212 HD
ENDBRANCH   6  31
TORSDOF 3
