REMARK  Name = ZINC08914902
REMARK  7 active torsions:
REMARK  status: ('A' for Active; 'I' for Inactive)
REMARK    1  A    between atoms: C_1  and  C_2
REMARK    2  A    between atoms: C_9  and  O_20
REMARK    3  A    between atoms: C_12  and  C_14
REMARK    4  A    between atoms: C_23  and  O_37
REMARK    5  A    between atoms: C_24  and  C_31
REMARK    6  A    between atoms: C_27  and  O_30
REMARK    7  A    between atoms: N_32  and  N_33
REMARK                            x       y       z     vdW  Elec       q    Type
REMARK                         _______ _______ _______ _____ _____    ______ ____
ROOT
ATOM      1  C   UNL     1      -3.735  -2.202   3.464  0.00  0.00    +0.014 C 
ATOM      2  C   UNL     1      -2.900  -3.495   3.518  0.00  0.00    +0.004 C 
ATOM      3  C   UNL     1      -1.548  -3.214   4.112  0.00  0.00    +0.010 C 
ATOM      4  C   UNL     1      -0.589  -2.599   3.083  0.00  0.00    +0.005 C 
ATOM      5  C   UNL     1      -1.290  -2.125   1.823  0.00  0.00    +0.009 C 
ATOM      6  C   UNL     1      -2.051  -3.251   1.141  0.00  0.00    +0.025 C 
ATOM      7  C   UNL     1      -2.753  -4.143   2.127  0.00  0.00    +0.075 C 
ATOM      8  C   UNL     1      -4.205  -4.526   1.803  0.00  0.00    +0.036 C 
ATOM      9  C   UNL     1      -4.714  -5.093   3.156  0.00  0.00    +0.011 C 
ATOM     10  C   UNL     1      -3.792  -4.508   4.256  0.00  0.00    +0.027 C 
ATOM     11  C   UNL     1      -2.957  -2.718   0.040  0.00  0.00    +0.009 C 
ATOM     12  C   UNL     1      -2.254  -1.600  -0.742  0.00  0.00    +0.036 C 
ATOM     13  C   UNL     1      -0.750  -1.743  -0.593  0.00  0.00    +0.079 C 
ATOM     14  C   UNL     1      -0.322  -1.461   0.846  0.00  0.00    +0.039 C 
ATOM     15  C   UNL     1       1.127  -1.889   1.016  0.00  0.00    +0.018 C 
ATOM     16  C   UNL     1       2.011  -1.108   0.041  0.00  0.00    +0.032 C 
ATOM     17  C   UNL     1       1.524  -1.202  -1.399  0.00  0.00    +0.117 C 
ATOM     18  C   UNL     1       0.041  -0.830  -1.532  0.00  0.00    +0.067 C 
ENDROOT
BRANCH  10  19
ATOM     19  C   UNL     1      -3.014  -5.601   4.944  0.00  0.00    -0.022 C 
ATOM     20  C   UNL     1      -2.862  -6.852   4.519  0.00  0.00    +0.094 C 
ATOM     21  C   UNL     1      -2.035  -7.596   5.473  0.00  0.00    +0.332 C 
ATOM     22  O   UNL     1      -1.716  -8.764   5.358  0.00  0.00    -0.246 OA
ATOM     23  O   UNL     1      -1.683  -6.797   6.497  0.00  0.00    -0.457 OA
ATOM     24  C   UNL     1      -2.266  -5.486   6.251  0.00  0.00    +0.264 C 
ENDBRANCH  10  19
BRANCH   7  25
ATOM     25  O   UNL     1      -1.985  -5.363   2.236  0.00  0.00    -0.388 OA
ATOM     26  H   UNL     1      -1.854  -5.822   1.395  0.00  0.00    +0.210 HD
ENDBRANCH   7  25
BRANCH  17  27
ATOM     27  O   UNL     1       2.300  -0.318  -2.216  0.00  0.00    -0.392 OA
ATOM     28  H   UNL     1       3.251  -0.488  -2.187  0.00  0.00    +0.210 HD
ENDBRANCH  17  27
BRANCH  14  29
ATOM     29  C   UNL     1      -0.413   0.025   1.123  0.00  0.00    +0.113 C 
ATOM     30  N   UNL     1       0.628   0.672   1.490  0.00  0.00    -0.191 NA
BRANCH  30  31
ATOM     31  N   UNL     1       0.544   2.047   1.746  0.00  0.00    -0.191 N 
ATOM     32  C   UNL     1       1.640   2.729   2.132  0.00  0.00    +0.317 C 
ATOM     33  O   UNL     1       1.567   3.922   2.354  0.00  0.00    -0.251 OA
ATOM     34  N   UNL     1       2.818   2.089   2.271  0.00  0.00    -0.312 N 
ATOM     35  H   UNL     1      -0.303   2.509   1.642  0.00  0.00    +0.179 HD
ATOM     36  H   UNL     1       2.876   1.137   2.094  0.00  0.00    +0.147 HD
ATOM     37  H   UNL     1       3.607   2.580   2.549  0.00  0.00    +0.147 HD
ENDBRANCH  30  31
ENDBRANCH  14  29
BRANCH  13  38
ATOM     38  O   UNL     1      -0.381  -3.087  -0.951  0.00  0.00    -0.388 OA
ATOM     39  H   UNL     1      -0.623  -3.334  -1.854  0.00  0.00    +0.210 HD
ENDBRANCH  13  38
TORSDOF 6
