REMARK  Name = ZINC44779602
REMARK  7 active torsions:
REMARK  status: ('A' for Active; 'I' for Inactive)
REMARK    1  A    between atoms: C_1  and  C_2
REMARK    2  A    between atoms: C_2  and  C_4
REMARK    3  A    between atoms: C_2  and  N_10
REMARK    4  A    between atoms: C_4  and  N_5
REMARK    5  A    between atoms: C_11  and  C_13
REMARK    6  A    between atoms: C_13  and  C_18
REMARK    7  A    between atoms: C_18  and  N_20
REMARK                            x       y       z     vdW  Elec       q    Type
REMARK                         _______ _______ _______ _____ _____    ______ ____
ROOT
ATOM      1  N   UNL     1       1.209  -0.351   1.269  0.00  0.00    -0.314 N 
ATOM      2  C   UNL     1       0.331  -0.516   2.278  0.00  0.00    +0.225 C 
ATOM      3  O   UNL     1      -0.799  -0.088   2.174  0.00  0.00    -0.275 OA
ATOM      4  H   UNL     1       2.134  -0.622   1.382  0.00  0.00    +0.149 HD
ENDROOT
BRANCH   2   5
ATOM      5  C   UNL     1       0.752  -1.234   3.534  0.00  0.00    +0.091 C 
ATOM      6  C   UNL     1      -0.441  -1.356   4.497  0.00  0.00    +0.023 C 
ATOM      7  C   UNL     1      -0.044  -0.608   5.787  0.00  0.00    +0.001 C 
ATOM      8  C   UNL     1       1.040   0.396   5.326  0.00  0.00    +0.001 C 
ATOM      9  C   UNL     1       1.833  -0.417   4.272  0.00  0.00    +0.023 C 
BRANCH   5  10
ATOM     10  C   UNL     1       1.283  -2.603   3.193  0.00  0.00    +0.061 C 
ATOM     11  S   UNL     1       2.826  -2.945   3.435  0.00  0.00    -0.040 S 
BRANCH  10  12
ATOM     12  N   UNL     1       0.457  -3.538   2.684  0.00  0.00    -0.355 N 
ATOM     13  H   UNL     1      -0.493  -3.359   2.613  0.00  0.00    +0.143 HD
ATOM     14  H   UNL     1       0.814  -4.391   2.389  0.00  0.00    +0.143 HD
ENDBRANCH  10  12
ENDBRANCH   5  10
ENDBRANCH   2   5
BRANCH   1  16
ATOM     15  C   UNL     1       0.820   1.764   0.103  0.00  0.00    +0.026 C 
ATOM     16  C   UNL     1       0.767   0.238   0.002  0.00  0.00    +0.053 C 
BRANCH  16  17
ATOM     17  C   UNL     1       1.688  -0.231  -1.126  0.00  0.00    -0.057 C 
BRANCH  17  18
ATOM     18  N   UNL     1       1.730  -1.699  -1.146  0.00  0.00    +0.381 N 
ATOM     19  C   UNL     1       0.416  -2.244  -1.574  0.00  0.00    -0.079 C 
ATOM     20  C   UNL     1       0.769  -3.665  -2.080  0.00  0.00    -0.020 C 
ATOM     21  C   UNL     1       2.135  -3.456  -2.772  0.00  0.00    -0.020 C 
ATOM     22  C   UNL     1       2.708  -2.168  -2.152  0.00  0.00    -0.079 C 
ATOM     23  H   UNL     1       1.974  -2.053  -0.233  0.00  0.00    -0.082 HD
ENDBRANCH  17  18
ENDBRANCH  16  17
ENDBRANCH   1  16
TORSDOF 6
