REMARK  Name = ZINC26403894
REMARK  10 active torsions:
REMARK  status: ('A' for Active; 'I' for Inactive)
REMARK    1  A    between atoms: C_1  and  C_2
REMARK    2  A    between atoms: N_11  and  C_14
REMARK    3  A    between atoms: C_14  and  C_15
REMARK    4  A    between atoms: C_15  and  C_16
REMARK    5  A    between atoms: C_23  and  O_27
REMARK    6  A    between atoms: C_28  and  C_39
REMARK    7  A    between atoms: C_29  and  C_30
REMARK    8  A    between atoms: C_32  and  C_38
REMARK    9  A    between atoms: C_33  and  O_37
REMARK   10  A    between atoms: C_34  and  C_36
REMARK                            x       y       z     vdW  Elec       q    Type
REMARK                         _______ _______ _______ _____ _____    ______ ____
ROOT
ATOM      1  C   UNL     1       1.136  -0.633  -0.611  0.00  0.00    +0.194 C 
ATOM      2  C   UNL     1       2.470  -0.149  -0.024  0.00  0.00    +0.167 C 
ATOM      3  N   UNL     1       2.454   1.321  -0.016  0.00  0.00    -0.333 N 
ATOM      4  C   UNL     1       1.237   1.967   0.001  0.00  0.00    +0.092 A 
ATOM      5  C   UNL     1       1.440   3.353   0.007  0.00  0.00    +0.010 A 
ATOM      6  C   UNL     1       0.321   4.197   0.023  0.00  0.00    +0.056 A 
ATOM      7  C   UNL     1      -0.926   3.581   0.031  0.00  0.00    +0.121 A 
ATOM      8  C   UNL     1      -1.100   2.194   0.030  0.00  0.00    +0.093 A 
ATOM      9  C   UNL     1      -0.016   1.349   0.009  0.00  0.00    +0.148 A 
ATOM     10  O   UNL     1       0.002  -0.004   0.002  0.00  0.00    -0.485 OA
ATOM     11  C   UNL     1       2.877   3.521  -0.008  0.00  0.00    -0.017 A 
ATOM     12  C   UNL     1       3.436   2.267  -0.022  0.00  0.00    +0.053 A 
ATOM     13  C   UNL     1       3.623   4.830  -0.009  0.00  0.00    +0.046 C 
ENDROOT
BRANCH  12  14
ATOM     14  C   UNL     1       4.887   1.984  -0.040  0.00  0.00    -0.001 A 
ATOM     15  C   UNL     1       5.421   1.012   0.807  0.00  0.00    +0.017 A 
ATOM     16  C   UNL     1       6.774   0.748   0.783  0.00  0.00    -0.008 A 
ATOM     17  C   UNL     1       7.607   1.456  -0.073  0.00  0.00    +0.123 A 
ATOM     18  C   UNL     1       7.080   2.428  -0.913  0.00  0.00    -0.008 A 
ATOM     19  C   UNL     1       5.728   2.694  -0.900  0.00  0.00    +0.017 A 
ATOM     20  C   UNL     1       7.988   3.193  -1.841  0.00  0.00    +0.047 C 
ATOM     21  C   UNL     1       7.351  -0.306   1.693  0.00  0.00    +0.047 C 
BRANCH  17  22
ATOM     22  O   UNL     1       8.940   1.197  -0.089  0.00  0.00    -0.506 OA
ATOM     23  H   UNL     1       9.601   1.756  -0.767  0.00  0.00    +0.292 HD
ENDBRANCH  17  22
ENDBRANCH  12  14
BRANCH   7  24
ATOM     24  O   UNL     1      -2.034   4.369   0.046  0.00  0.00    -0.507 OA
ATOM     25  H   UNL     1      -3.034   3.912   0.053  0.00  0.00    +0.292 HD
ENDBRANCH   7  24
BRANCH   1  26
ATOM     26  C   UNL     1       1.029  -2.146  -0.414  0.00  0.00    +0.061 C 
BRANCH  26  27
ATOM     27  C   UNL     1      -0.193  -2.674  -1.168  0.00  0.00    +0.088 C 
BRANCH  27  38
ATOM     28  C   UNL     1       1.254 -11.346  -2.562  0.00  0.00    +0.044 C 
ATOM     29  C   UNL     1       0.217 -10.406  -2.002  0.00  0.00    -0.046 A 
ATOM     30  C   UNL     1      -0.870 -10.893  -1.288  0.00  0.00    +0.021 A 
ATOM     31  C   UNL     1      -1.802 -10.006  -0.788  0.00  0.00    +0.084 A 
ATOM     32  N   UNL     1      -1.672  -8.707  -0.981  0.00  0.00    -0.350 N 
ATOM     33  C   UNL     1      -0.650  -8.205  -1.656  0.00  0.00    +0.099 A 
ATOM     34  C   UNL     1       0.324  -9.041  -2.192  0.00  0.00    +0.045 A 
ATOM     35  N   UNL     1      -0.553  -6.830  -1.835  0.00  0.00    -0.314 N 
ATOM     36  C   UNL     1      -1.680  -6.134  -1.198  0.00  0.00    +0.122 C 
ATOM     37  C   UNL     1      -1.579  -4.634  -1.486  0.00  0.00    +0.103 C 
ATOM     38  N   UNL     1      -0.296  -4.127  -0.979  0.00  0.00    -0.299 NA
ATOM     39  C   UNL     1       0.831  -4.822  -1.615  0.00  0.00    +0.103 C 
ATOM     40  C   UNL     1       0.730  -6.322  -1.328  0.00  0.00    +0.122 C 
ATOM     41  H   UNL     1      -2.424  -8.013  -0.576  0.00  0.00    +0.166 HD
ENDBRANCH  27  38
ENDBRANCH  26  27
ENDBRANCH   1  26
TORSDOF 6
