REMARK  Name = ZINC34762644
REMARK  11 active torsions:
REMARK  status: ('A' for Active; 'I' for Inactive)
REMARK    1  A    between atoms: C_1  and  C_2
REMARK    2  A    between atoms: C_2  and  C_3
REMARK    3  A    between atoms: C_4  and  C_33
REMARK    4  A    between atoms: C_8  and  N_23
REMARK    5  A    between atoms: C_10  and  S_12
REMARK    6  A    between atoms: S_12  and  C_13
REMARK    7  A    between atoms: C_13  and  C_14
REMARK    8  A    between atoms: N_16  and  C_17
REMARK    9  A    between atoms: N_26  and  C_29
REMARK   10  A    between atoms: C_29  and  C_30
REMARK   11  A    between atoms: C_30  and  C_32
REMARK                            x       y       z     vdW  Elec       q    Type
REMARK                         _______ _______ _______ _____ _____    ______ ____
ROOT
ATOM      1  C   UNL     1      -1.552  -1.091  -0.112  0.00  0.00    -0.025 A 
ATOM      2  C   UNL     1      -2.138  -1.363   1.062  0.00  0.00    -0.007 A 
ATOM      3  S   UNL     1      -3.725  -2.026   0.593  0.00  0.00    -0.073 S 
ATOM      4  C   UNL     1      -3.559  -1.919  -1.169  0.00  0.00    +0.115 A 
ATOM      5  C   UNL     1      -2.272  -1.364  -1.345  0.00  0.00    +0.051 A 
ATOM      6  C   UNL     1      -1.872  -1.160  -2.695  0.00  0.00    +0.134 A 
ATOM      7  N   UNL     1      -2.701  -1.486  -3.672  0.00  0.00    -0.206 NA
ATOM      8  C   UNL     1      -3.902  -2.001  -3.437  0.00  0.00    +0.191 A 
ATOM      9  N   UNL     1      -4.325  -2.222  -2.199  0.00  0.00    -0.214 NA
ATOM     10  C   UNL     1      -1.586  -1.158   2.450  0.00  0.00    +0.052 C 
ENDROOT
BRANCH   6  11
ATOM     11  N   UNL     1      -0.629  -0.626  -2.982  0.00  0.00    -0.318 N 
ATOM     12  C   UNL     1       0.535  -1.497  -3.208  0.00  0.00    +0.088 C 
ATOM     13  C   UNL     1       1.212  -1.073  -4.515  0.00  0.00    -0.059 C 
ATOM     14  N   UNL     1       1.529   0.359  -4.459  0.00  0.00    +0.384 N 
ATOM     15  C   UNL     1       0.290   1.143  -4.384  0.00  0.00    -0.059 C 
ATOM     16  C   UNL     1      -0.434   0.829  -3.075  0.00  0.00    +0.088 C 
ATOM     17  H   UNL     1       2.094   0.546  -3.644  0.00  0.00    -0.081 HD
BRANCH  14  18
ATOM     18  C   UNL     1       2.276   0.742  -5.665  0.00  0.00    -0.048 C 
BRANCH  18  19
ATOM     19  C   UNL     1       3.619   0.060  -5.661  0.00  0.00    -0.096 C 
ATOM     20  C   UNL     1       3.784  -1.068  -6.307  0.00  0.00    +0.005 C 
ATOM     21  C   UNL     1       4.774   0.675  -4.914  0.00  0.00    +0.036 C 
ENDBRANCH  18  19
ENDBRANCH  14  18
ENDBRANCH   6  11
BRANCH   1  23
ATOM     22  C   UNL     1      -0.251   1.016   0.020  0.00  0.00    +0.009 C 
ATOM     23  C   UNL     1      -0.166  -0.502  -0.154  0.00  0.00    +0.033 C 
ENDBRANCH   1  23
BRANCH   8  24
ATOM     24  S   UNL     1      -4.948  -2.410  -4.794  0.00  0.00    -0.077 S 
BRANCH  24  25
ATOM     25  C   UNL     1      -6.448  -3.065  -4.010  0.00  0.00    +0.173 C 
BRANCH  25  26
ATOM     26  C   UNL     1      -7.440  -3.458  -5.074  0.00  0.00    +0.224 C 
ATOM     27  O   UNL     1      -7.163  -3.311  -6.246  0.00  0.00    -0.275 OA
ATOM     28  N   UNL     1      -8.635  -3.973  -4.724  0.00  0.00    -0.312 N 
ATOM     29  H   UNL     1      -8.857  -4.090  -3.787  0.00  0.00    +0.149 HD
BRANCH  28  30
ATOM     30  C   UNL     1      -9.600  -4.355  -5.758  0.00  0.00    +0.073 C 
ATOM     31  C   UNL     1     -10.415  -3.129  -6.173  0.00  0.00    +0.022 C 
ATOM     32  C   UNL     1     -11.422  -3.528  -7.254  0.00  0.00    +0.002 C 
ATOM     33  C   UNL     1     -12.362  -4.602  -6.702  0.00  0.00    +0.000 C 
ATOM     34  C   UNL     1     -11.547  -5.829  -6.287  0.00  0.00    +0.002 C 
ATOM     35  C   UNL     1     -10.539  -5.429  -5.207  0.00  0.00    +0.022 C 
ENDBRANCH  28  30
ENDBRANCH  25  26
ENDBRANCH  24  25
ENDBRANCH   8  24
TORSDOF 8
