REMARK  Name = ZINC61385799
REMARK  2 active torsions:
REMARK  status: ('A' for Active; 'I' for Inactive)
REMARK    1  A    between atoms: C_3  and  N_25
REMARK    2  A    between atoms: C_5  and  C_6
REMARK                            x       y       z     vdW  Elec       q    Type
REMARK                         _______ _______ _______ _____ _____    ______ ____
ROOT
ATOM      1  C   UNL     1      -1.208  -0.902   0.009  0.00  0.00    +0.245 C 
ATOM      2  N   UNL     1      -0.969  -2.071  -0.859  0.00  0.00    -0.292 N 
ATOM      3  C   UNL     1      -0.228  -3.122  -0.338  0.00  0.00    +0.159 C 
ATOM      4  N   UNL     1      -0.643  -3.626   0.895  0.00  0.00    -0.259 N 
ATOM      5  C   UNL     1      -1.173  -2.681   1.771  0.00  0.00    +0.205 A 
ATOM      6  N   UNL     1      -1.452  -1.398   1.367  0.00  0.00    -0.285 N 
ATOM      7  C   UNL     1      -1.973  -0.727   2.453  0.00  0.00    +0.076 A 
ATOM      8  C   UNL     1      -2.437   0.565   2.660  0.00  0.00    +0.077 A 
ATOM      9  C   UNL     1      -2.912   0.932   3.904  0.00  0.00    +0.164 A 
ATOM     10  C   UNL     1      -2.928   0.016   4.953  0.00  0.00    +0.164 A 
ATOM     11  C   UNL     1      -2.467  -1.270   4.764  0.00  0.00    +0.079 A 
ATOM     12  C   UNL     1      -1.985  -1.655   3.510  0.00  0.00    +0.095 A 
ATOM     13  N   UNL     1      -1.480  -2.825   3.027  0.00  0.00    -0.214 NA
ATOM     14  O   UNL     1      -3.405   0.398   6.174  0.00  0.00    -0.488 OA
ATOM     15  C   UNL     1      -2.614   1.353   6.884  0.00  0.00    +0.232 C 
ATOM     16  C   UNL     1      -2.947   2.768   6.436  0.00  0.00    +0.082 C 
ATOM     17  C   UNL     1      -2.582   3.017   4.982  0.00  0.00    +0.232 C 
ATOM     18  O   UNL     1      -3.371   2.202   4.113  0.00  0.00    -0.488 OA
ATOM     19  N   UNL     1       0.802  -3.613  -0.968  0.00  0.00    -0.375 N 
ATOM     20  H   UNL     1      -1.318  -2.103  -1.763  0.00  0.00    +0.151 HD
ATOM     21  H   UNL     1       1.068  -3.243  -1.825  0.00  0.00    +0.158 HD
ATOM     22  H   UNL     1      -0.568  -4.566   1.125  0.00  0.00    +0.158 HD
ATOM     23  H   UNL     1       1.302  -4.348  -0.581  0.00  0.00    +0.158 HD
ENDROOT
BRANCH   1  28
ATOM     24  C   UNL     1      -0.016   1.341   0.009  0.00  0.00    +0.051 A 
ATOM     25  C   UNL     1       1.331   1.769  -0.001  0.00  0.00    +0.076 A 
ATOM     26  C   UNL     1       2.092   0.660  -0.014  0.00  0.00    +0.280 A 
ATOM     27  O   UNL     1       1.282  -0.411  -0.012  0.00  0.00    -0.435 OA
ATOM     28  C   UNL     1       0.002  -0.004   0.002  0.00  0.00    +0.149 A 
BRANCH  26  29
ATOM     29  N   UNL     1       3.572   0.625  -0.029  0.00  0.00    +0.093 N 
ATOM     30  O   UNL     1       4.201   1.658  -0.029  0.00  0.00    -0.123 OA
ATOM     31  O   UNL     1       4.152  -0.435  -0.040  0.00  0.00    -0.123 OA
ENDBRANCH  26  29
ENDBRANCH   1  28
TORSDOF 2
