REMARK  Name = ZINC62039519
REMARK  12 active torsions:
REMARK  status: ('A' for Active; 'I' for Inactive)
REMARK    1  A    between atoms: C_1  and  C_2
REMARK    2  A    between atoms: C_2  and  C_3
REMARK    3  A    between atoms: C_2  and  C_4
REMARK    4  A    between atoms: C_2  and  C_5
REMARK    5  A    between atoms: C_8  and  N_12
REMARK    6  A    between atoms: C_9  and  C_10
REMARK    7  A    between atoms: C_13  and  C_15
REMARK    8  A    between atoms: C_15  and  C_16
REMARK    9  A    between atoms: C_19  and  C_21
REMARK   10  A    between atoms: C_25  and  C_27
REMARK   11  A    between atoms: C_27  and  N_28
REMARK   12  A    between atoms: N_31  and  C_34
REMARK                            x       y       z     vdW  Elec       q    Type
REMARK                         _______ _______ _______ _____ _____    ______ ____
ROOT
ATOM      1  C   UNL     1       3.550  -4.840  -6.212  0.00  0.00    +0.058 A 
ATOM      2  C   UNL     1       4.753  -5.451  -6.379  0.00  0.00    +0.071 A 
ATOM      3  S   UNL     1       5.142  -4.960  -8.054  0.00  0.00    -0.075 S 
ATOM      4  C   UNL     1       3.664  -3.997  -8.348  0.00  0.00    +0.109 A 
ATOM      5  N   UNL     1       3.032  -4.136  -7.191  0.00  0.00    -0.243 NA
ENDROOT
BRANCH   4   6
ATOM      6  C   UNL     1       3.255  -3.251  -9.557  0.00  0.00    +0.007 A 
ATOM      7  C   UNL     1       2.048  -2.551  -9.573  0.00  0.00    +0.010 A 
ATOM      8  C   UNL     1       1.672  -1.856 -10.705  0.00  0.00    +0.001 A 
ATOM      9  C   UNL     1       2.489  -1.853 -11.821  0.00  0.00    +0.005 A 
ATOM     10  C   UNL     1       3.687  -2.545 -11.812  0.00  0.00    -0.033 A 
ATOM     11  C   UNL     1       4.077  -3.238 -10.684  0.00  0.00    +0.015 A 
BRANCH  10  12
ATOM     12  C   UNL     1       4.570  -2.537 -13.033  0.00  0.00    +0.119 C 
BRANCH  12  13
ATOM     13  N   UNL     1       5.505  -1.406 -12.953  0.00  0.00    -0.302 NA
ATOM     14  C   UNL     1       4.790  -0.125 -13.036  0.00  0.00    +0.066 C 
ATOM     15  C   UNL     1       5.790   1.024 -12.890  0.00  0.00    -0.064 C 
ATOM     16  N   UNL     1       6.797   0.936 -13.955  0.00  0.00    +0.379 N 
ATOM     17  C   UNL     1       7.519  -0.338 -13.844  0.00  0.00    -0.064 C 
ATOM     18  C   UNL     1       6.534  -1.499 -13.998  0.00  0.00    +0.066 C 
ATOM     19  C   UNL     1       7.747   2.049 -13.825  0.00  0.00    -0.096 C 
ATOM     20  H   UNL     1       6.341   0.986 -14.854  0.00  0.00    -0.082 HD
ENDBRANCH  12  13
ENDBRANCH  10  12
ENDBRANCH   4   6
BRANCH   1  21
ATOM     21  C   UNL     1       2.810  -4.974  -4.906  0.00  0.00    +0.152 C 
BRANCH  21  23
ATOM     22  N   UNL     1       1.833  -3.478  -3.196  0.00  0.00    -0.279 N 
ATOM     23  C   UNL     1       2.496  -3.604  -4.363  0.00  0.00    +0.223 C 
ATOM     24  O   UNL     1       2.839  -2.616  -4.976  0.00  0.00    -0.275 OA
ATOM     25  H   UNL     1       1.559  -4.268  -2.705  0.00  0.00    +0.155 HD
BRANCH  22  29
ATOM     26  C   UNL     1       0.707  -0.490  -1.238  0.00  0.00    -0.016 A 
ATOM     27  C   UNL     1       1.220   0.359  -2.149  0.00  0.00    +0.052 A 
ATOM     28  S   UNL     1       1.919  -0.727  -3.372  0.00  0.00    -0.080 S 
ATOM     29  C   UNL     1       1.544  -2.216  -2.696  0.00  0.00    +0.090 A 
ATOM     30  C   UNL     1       0.882  -1.896  -1.520  0.00  0.00    +0.084 A 
BRANCH  26  32
ATOM     31  C   UNL     1      -0.019   1.526   0.010  0.00  0.00    +0.015 C 
ATOM     32  C   UNL     1       0.002  -0.004   0.002  0.00  0.00    -0.011 C 
ATOM     33  C   UNL     1       0.742  -0.511   1.242  0.00  0.00    +0.015 C 
ATOM     34  C   UNL     1      -1.433  -0.534   0.013  0.00  0.00    +0.015 C 
ENDBRANCH  26  32
BRANCH  30  35
ATOM     35  C   UNL     1       0.391  -2.908  -0.634  0.00  0.00    +0.102 C 
ATOM     36  N   UNL     1       0.002  -3.711   0.069  0.00  0.00    -0.191 NA
ENDBRANCH  30  35
ENDBRANCH  22  29
ENDBRANCH  21  23
ENDBRANCH   1  21
TORSDOF 8
