REMARK  Name = ZINC07920205
REMARK  11 active torsions:
REMARK  status: ('A' for Active; 'I' for Inactive)
REMARK    1  A    between atoms: C_1  and  C_2
REMARK    2  A    between atoms: C_6  and  C_31
REMARK    3  A    between atoms: C_7  and  N_8
REMARK    4  A    between atoms: C_9  and  C_11
REMARK    5  A    between atoms: C_11  and  N_12
REMARK    6  A    between atoms: C_13  and  C_15
REMARK    7  A    between atoms: C_15  and  C_17
REMARK    8  A    between atoms: C_15  and  N_58
REMARK    9  A    between atoms: C_18  and  C_20
REMARK   10  A    between atoms: C_18  and  C_21
REMARK   11  A    between atoms: C_18  and  N_58
REMARK                            x       y       z     vdW  Elec       q    Type
REMARK                         _______ _______ _______ _____ _____    ______ ____
ROOT
ATOM      1  N   UNL     1      -0.414   1.395   1.520  0.00  0.00    -0.308 N 
ATOM      2  C   UNL     1       0.736   2.088   1.641  0.00  0.00    +0.199 C 
ATOM      3  O   UNL     1       0.905   3.101   0.995  0.00  0.00    -0.278 OA
ATOM      4  H   UNL     1      -0.549   0.585   2.036  0.00  0.00    +0.149 HD
ENDROOT
BRANCH   2   5
ATOM      5  C   UNL     1       1.812   1.604   2.578  0.00  0.00    +0.014 C 
ATOM      6  C   UNL     1       1.260   1.551   4.004  0.00  0.00    -0.004 C 
BRANCH   5   7
ATOM      7  N   UNL     1       2.954   2.535   2.527  0.00  0.00    +0.391 N 
ATOM      8  H   UNL     1       2.784   3.317   3.171  0.00  0.00    -0.084 HD
ATOM      9  H   UNL     1       3.054   2.896   1.571  0.00  0.00    -0.084 HD
BRANCH   7  10
ATOM     10  C   UNL     1       4.197   1.844   2.918  0.00  0.00    -0.042 C 
ATOM     11  C   UNL     1       4.796   1.141   1.698  0.00  0.00    -0.009 C 
BRANCH  10  12
ATOM     12  C   UNL     1       5.181   2.856   3.447  0.00  0.00    -0.054 A 
ATOM     13  C   UNL     1       5.036   4.175   3.143  0.00  0.00    +0.002 A 
ATOM     14  C   UNL     1       5.934   5.125   3.624  0.00  0.00    +0.001 A 
ATOM     15  C   UNL     1       6.984   4.762   4.412  0.00  0.00    +0.008 A 
ATOM     16  C   UNL     1       7.166   3.410   4.746  0.00  0.00    -0.018 A 
ATOM     17  C   UNL     1       6.249   2.444   4.262  0.00  0.00    -0.016 A 
ATOM     18  C   UNL     1       6.434   1.091   4.593  0.00  0.00    +0.009 A 
ATOM     19  C   UNL     1       7.484   0.727   5.379  0.00  0.00    +0.001 A 
ATOM     20  C   UNL     1       8.383   1.678   5.860  0.00  0.00    +0.001 A 
ATOM     21  C   UNL     1       8.238   2.996   5.556  0.00  0.00    +0.008 A 
ENDBRANCH  10  12
ENDBRANCH   7  10
ENDBRANCH   5   7
ENDBRANCH   2   5
BRANCH   1  22
ATOM     22  C   UNL     1      -1.457   1.862   0.604  0.00  0.00    +0.200 C 
BRANCH  22  24
ATOM     23  N   UNL     1      -3.712   1.145  -0.116  0.00  0.00    -0.284 N 
ATOM     24  C   UNL     1      -2.628   0.914   0.650  0.00  0.00    +0.234 C 
ATOM     25  O   UNL     1      -2.593  -0.056   1.376  0.00  0.00    -0.274 OA
ATOM     26  H   UNL     1      -3.770   1.957  -0.644  0.00  0.00    +0.155 HD
BRANCH  23  33
ATOM     27  C   UNL     1      -6.358   2.070   0.378  0.00  0.00    +0.045 C 
ATOM     28  C   UNL     1      -6.062   0.621   0.085  0.00  0.00    -0.029 A 
ATOM     29  C   UNL     1      -7.090  -0.300   0.045  0.00  0.00    +0.005 A 
ATOM     30  C   UNL     1      -6.818  -1.630  -0.219  0.00  0.00    +0.001 A 
ATOM     31  C   UNL     1      -5.518  -2.041  -0.448  0.00  0.00    +0.005 A 
ATOM     32  C   UNL     1      -4.486  -1.124  -0.414  0.00  0.00    -0.029 A 
ATOM     33  C   UNL     1      -4.755   0.213  -0.151  0.00  0.00    +0.039 A 
ATOM     34  C   UNL     1      -3.069  -1.573  -0.665  0.00  0.00    +0.045 C 
ENDBRANCH  23  33
ENDBRANCH  22  24
ENDBRANCH   1  22
TORSDOF 7
