REMARK  Name = ZINC36006699
REMARK  16 active torsions:
REMARK  status: ('A' for Active; 'I' for Inactive)
REMARK    1  A    between atoms: C_1  and  C_2
REMARK    2  A    between atoms: C_2  and  O_3
REMARK    3  A    between atoms: O_3  and  C_4
REMARK    4  A    between atoms: C_4  and  C_6
REMARK    5  A    between atoms: C_7  and  C_25
REMARK    6  A    between atoms: N_8  and  C_24
REMARK    7  A    between atoms: C_12  and  C_14
REMARK    8  A    between atoms: C_16  and  O_22
REMARK    9  A    between atoms: C_18  and  O_20
REMARK   10  A    between atoms: O_20  and  C_21
REMARK   11  A    between atoms: O_22  and  C_23
REMARK   12  A    between atoms: C_25  and  N_26
REMARK   13  A    between atoms: N_35  and  C_36
REMARK   14  A    between atoms: C_36  and  C_37
REMARK   15  A    between atoms: C_36  and  C_38
REMARK   16  A    between atoms: C_36  and  C_39
REMARK                            x       y       z     vdW  Elec       q    Type
REMARK                         _______ _______ _______ _____ _____    ______ ____
ROOT
ATOM      1  C   UNL     1       0.849  -2.534  -2.647  0.00  0.00    +0.076 C 
ATOM      2  C   UNL     1       1.533  -3.684  -2.834  0.00  0.00    +0.010 C 
ATOM      3  N   UNL     1       2.484  -3.787  -3.808  0.00  0.00    -0.264 N 
ATOM      4  C   UNL     1       2.811  -2.786  -4.636  0.00  0.00    +0.307 C 
ATOM      5  O   UNL     1       3.672  -2.973  -5.473  0.00  0.00    -0.252 OA
ATOM      6  N   UNL     1       2.216  -1.579  -4.572  0.00  0.00    -0.288 N 
ATOM      7  C   UNL     1       1.169  -1.366  -3.557  0.00  0.00    +0.144 C 
ATOM      8  C   UNL     1       3.188  -5.063  -3.956  0.00  0.00    +0.139 C 
ATOM      9  H   UNL     1       2.468  -0.867  -5.181  0.00  0.00    +0.151 HD
ENDROOT
BRANCH   7  10
ATOM     10  C   UNL     1       1.594  -0.207  -2.693  0.00  0.00    -0.016 A 
ATOM     11  C   UNL     1       2.884  -0.151  -2.201  0.00  0.00    +0.051 A 
ATOM     12  C   UNL     1       3.278   0.916  -1.405  0.00  0.00    +0.124 A 
ATOM     13  C   UNL     1       2.376   1.925  -1.105  0.00  0.00    +0.091 A 
ATOM     14  C   UNL     1       1.083   1.866  -1.600  0.00  0.00    +0.124 A 
ATOM     15  C   UNL     1       0.696   0.800  -2.400  0.00  0.00    +0.051 A 
BRANCH  14  16
ATOM     16  O   UNL     1       0.197   2.854  -1.307  0.00  0.00    -0.495 OA
ATOM     17  C   UNL     1       0.666   3.923  -0.483  0.00  0.00    +0.277 C 
ENDBRANCH  14  16
BRANCH  12  18
ATOM     18  O   UNL     1       4.546   0.971  -0.920  0.00  0.00    -0.495 OA
ATOM     19  C   UNL     1       4.882   2.097  -0.108  0.00  0.00    +0.277 C 
ENDBRANCH  12  18
ENDBRANCH   7  10
BRANCH   1  20
ATOM     20  C   UNL     1      -0.138  -2.427  -1.639  0.00  0.00    +0.339 C 
ATOM     21  O   UNL     1      -0.466  -3.410  -1.001  0.00  0.00    -0.245 OA
BRANCH  20  22
ATOM     22  O   UNL     1      -0.715  -1.234  -1.384  0.00  0.00    -0.462 OA
BRANCH  22  24
ATOM     23  C   UNL     1      -2.240   0.227  -0.210  0.00  0.00    +0.048 C 
ATOM     24  C   UNL     1      -1.703  -1.198  -0.353  0.00  0.00    +0.229 C 
ENDBRANCH  22  24
ENDBRANCH  20  22
ENDBRANCH   1  20
BRANCH   2  25
ATOM     25  C   UNL     1       1.242  -4.872  -1.954  0.00  0.00    -0.026 C 
BRANCH  25  26
ATOM     26  N   UNL     1       0.068  -5.588  -2.471  0.00  0.00    +0.384 N 
ATOM     27  C   UNL     1      -0.357  -6.562  -1.468  0.00  0.00    -0.077 C 
ATOM     28  C   UNL     1      -1.849  -6.779  -1.583  0.00  0.00    +0.000 C 
ATOM     29  C   UNL     1      -2.122  -7.984  -2.501  0.00  0.00    +0.107 C 
ATOM     30  N   UNL     1      -1.200  -7.993  -3.654  0.00  0.00    -0.287 N 
ATOM     31  C   UNL     1      -0.848  -6.787  -4.374  0.00  0.00    +0.091 C 
ATOM     32  C   UNL     1       0.398  -6.136  -3.730  0.00  0.00    -0.059 C 
ATOM     33  C   UNL     1      -0.666  -9.165  -4.051  0.00  0.00    +0.303 C 
ATOM     34  O   UNL     1      -1.023 -10.203  -3.528  0.00  0.00    -0.253 OA
ATOM     35  N   UNL     1       0.263  -9.187  -5.027  0.00  0.00    -0.294 N 
ATOM     36  H   UNL     1       0.601  -8.355  -5.393  0.00  0.00    +0.151 HD
ATOM     37  H   UNL     1      -0.679  -4.921  -2.600  0.00  0.00    -0.081 HD
BRANCH  35  38
ATOM     38  C   UNL     1       0.761 -10.468  -5.535  0.00  0.00    +0.028 C 
ATOM     39  C   UNL     1      -0.402 -11.275  -6.114  0.00  0.00    +0.031 C 
ATOM     40  C   UNL     1       1.799 -10.213  -6.630  0.00  0.00    +0.031 C 
ATOM     41  C   UNL     1       1.408 -11.253  -4.392  0.00  0.00    +0.031 C 
ENDBRANCH  35  38
ENDBRANCH  25  26
ENDBRANCH   2  25
TORSDOF 9
