REMARK  Name = ZINC19113739
REMARK  10 active torsions:
REMARK  status: ('A' for Active; 'I' for Inactive)
REMARK    1  A    between atoms: C_1  and  N_2
REMARK    2  A    between atoms: N_2  and  C_3
REMARK    3  A    between atoms: C_9  and  C_11
REMARK    4  A    between atoms: C_14  and  C_31
REMARK    5  A    between atoms: C_16  and  N_17
REMARK    6  A    between atoms: C_20  and  N_82
REMARK    7  A    between atoms: C_26  and  C_29
REMARK    8  A    between atoms: C_29  and  O_30
REMARK    9  A    between atoms: C_34  and  S_37
REMARK   10  A    between atoms: S_37  and  C_38
REMARK                            x       y       z     vdW  Elec       q    Type
REMARK                         _______ _______ _______ _____ _____    ______ ____
ROOT
ATOM      1  C   UNL     1       2.396   0.225   0.035  0.00  0.00    +0.077 A 
ATOM      2  C   UNL     1       1.286  -0.568   0.359  0.00  0.00    +0.018 A 
ATOM      3  C   UNL     1       0.029  -0.008   0.266  0.00  0.00    +0.029 A 
ATOM      4  C   UNL     1      -0.102   1.320  -0.145  0.00  0.00    +0.073 A 
ATOM      5  N   UNL     1       0.964   2.050  -0.447  0.00  0.00    -0.231 NA
ATOM      6  C   UNL     1       2.188   1.555  -0.371  0.00  0.00    +0.134 A 
ENDROOT
BRANCH   6   7
ATOM      7  N   UNL     1       3.272   2.351  -0.694  0.00  0.00    -0.315 N 
ATOM      8  C   UNL     1       3.512   2.350  -2.143  0.00  0.00    +0.105 C 
ATOM      9  C   UNL     1       4.799   3.120  -2.449  0.00  0.00    +0.004 C 
ATOM     10  C   UNL     1       4.663   4.556  -1.936  0.00  0.00    -0.066 C 
ATOM     11  C   UNL     1       4.366   4.528  -0.434  0.00  0.00    +0.004 C 
ATOM     12  C   UNL     1       3.091   3.717  -0.187  0.00  0.00    +0.105 C 
BRANCH  10  18
ATOM     13  C   UNL     1       5.859   6.634  -1.599  0.00  0.00    -0.078 C 
ATOM     14  C   UNL     1       7.226   7.308  -1.737  0.00  0.00    -0.018 C 
ATOM     15  C   UNL     1       7.606   7.381  -3.219  0.00  0.00    +0.002 C 
ATOM     16  C   UNL     1       7.612   5.966  -3.806  0.00  0.00    -0.002 C 
ATOM     17  C   UNL     1       6.234   5.331  -3.607  0.00  0.00    -0.073 C 
ATOM     18  N   UNL     1       5.938   5.269  -2.160  0.00  0.00    +0.382 N 
ATOM     19  H   UNL     1       6.693   4.758  -1.688  0.00  0.00    -0.081 HD
BRANCH  16  20
ATOM     20  C   UNL     1       7.933   6.034  -5.300  0.00  0.00    +0.157 C 
BRANCH  20  21
ATOM     21  O   UNL     1       9.265   6.519  -5.480  0.00  0.00    -0.395 OA
ATOM     22  H   UNL     1       9.537   6.588  -6.405  0.00  0.00    +0.209 HD
ENDBRANCH  20  21
ENDBRANCH  16  20
ENDBRANCH  10  18
ENDBRANCH   6   7
BRANCH   4  23
ATOM     23  C   UNL     1      -1.452   1.920  -0.252  0.00  0.00    +0.000 A 
ATOM     24  C   UNL     1      -2.582   1.159   0.051  0.00  0.00    +0.011 A 
ATOM     25  C   UNL     1      -3.835   1.721  -0.045  0.00  0.00    +0.015 A 
ATOM     26  C   UNL     1      -3.976   3.044  -0.453  0.00  0.00    +0.008 A 
ATOM     27  C   UNL     1      -2.851   3.803  -0.761  0.00  0.00    +0.015 A 
ATOM     28  C   UNL     1      -1.595   3.247  -0.662  0.00  0.00    +0.011 A 
BRANCH  26  29
ATOM     29  S   UNL     1      -5.582   3.758  -0.582  0.00  0.00    -0.129 S 
ATOM     30  C   UNL     1      -6.700   2.417  -0.090  0.00  0.00    +0.090 C 
ENDBRANCH  26  29
ENDBRANCH   4  23
BRANCH   1  33
ATOM     31  C   UNL     1       3.192  -1.242   2.305  0.00  0.00    +0.132 C 
ATOM     32  N   UNL     1       4.151  -0.988   1.227  0.00  0.00    -0.297 N 
ATOM     33  C   UNL     1       3.759  -0.327   0.120  0.00  0.00    +0.250 C 
ATOM     34  O   UNL     1       4.530  -0.185  -0.810  0.00  0.00    -0.270 OA
BRANCH  32  35
ATOM     35  C   UNL     1       5.535  -1.451   1.352  0.00  0.00    +0.076 C 
ATOM     36  C   UNL     1       5.551  -2.973   1.508  0.00  0.00    +0.022 C 
ATOM     37  C   UNL     1       6.996  -3.457   1.639  0.00  0.00    +0.002 C 
ATOM     38  C   UNL     1       7.641  -2.812   2.866  0.00  0.00    +0.000 C 
ATOM     39  C   UNL     1       7.625  -1.290   2.710  0.00  0.00    +0.002 C 
ATOM     40  C   UNL     1       6.180  -0.805   2.580  0.00  0.00    +0.022 C 
ENDBRANCH  32  35
ENDBRANCH   1  33
TORSDOF 8
