REMARK  Name = ZINC09411949
REMARK  8 active torsions:
REMARK  status: ('A' for Active; 'I' for Inactive)
REMARK    1  A    between atoms: C_1  and  N_63
REMARK    2  A    between atoms: N_4  and  C_7
REMARK    3  A    between atoms: C_8  and  C_18
REMARK    4  A    between atoms: N_22  and  C_26
REMARK    5  A    between atoms: C_26  and  C_27
REMARK    6  A    between atoms: C_27  and  C_28
REMARK    7  A    between atoms: C_31  and  O_34
REMARK    8  A    between atoms: O_34  and  C_35
REMARK                            x       y       z     vdW  Elec       q    Type
REMARK                         _______ _______ _______ _____ _____    ______ ____
ROOT
ATOM      1  C   UNL     1      -1.012  -0.590   0.479  0.00  0.00    +0.136 A 
ATOM      2  C   UNL     1      -1.371  -1.820  -0.121  0.00  0.00    +0.081 A 
ATOM      3  C   UNL     1      -2.743  -2.076  -0.358  0.00  0.00    +0.267 A 
ATOM      4  O   UNL     1      -3.098  -3.124  -0.870  0.00  0.00    -0.267 OA
ATOM      5  N   UNL     1      -3.651  -1.138  -0.013  0.00  0.00    -0.268 N 
ATOM      6  C   UNL     1      -4.974  -1.375  -0.241  0.00  0.00    +0.096 A 
ATOM      7  C   UNL     1      -5.909  -0.457   0.092  0.00  0.00    +0.018 A 
ATOM      8  C   UNL     1      -5.525   0.755   0.681  0.00  0.00    +0.005 A 
ATOM      9  C   UNL     1      -4.205   1.001   0.914  0.00  0.00    +0.047 A 
ATOM     10  C   UNL     1      -3.246   0.035   0.560  0.00  0.00    +0.142 A 
ATOM     11  N   UNL     1      -1.957   0.285   0.792  0.00  0.00    -0.214 NA
ENDROOT
BRANCH   1  15
ATOM     12  C   UNL     1       3.931   0.786   2.618  0.00  0.00    -0.096 C 
ATOM     13  C   UNL     1       1.962   1.398   1.347  0.00  0.00    -0.060 C 
ATOM     14  C   UNL     1       0.474   1.096   1.155  0.00  0.00    +0.088 C 
ATOM     15  N   UNL     1       0.311  -0.301   0.731  0.00  0.00    -0.318 N 
ATOM     16  C   UNL     1       0.869  -1.221   1.732  0.00  0.00    +0.088 C 
ATOM     17  C   UNL     1       2.357  -0.919   1.925  0.00  0.00    -0.060 C 
ATOM     18  N   UNL     1       2.505   0.482   2.372  0.00  0.00    +0.380 N 
ATOM     19  H   UNL     1       1.982   0.610   3.246  0.00  0.00    -0.082 HD
ENDBRANCH   1  15
BRANCH   2  20
ATOM     20  C   UNL     1      -0.385  -2.771  -0.472  0.00  0.00    +0.037 C 
ATOM     21  C   UNL     1       0.655  -2.410  -1.280  0.00  0.00    +0.077 C 
ATOM     22  C   UNL     1       1.802  -3.159  -1.669  0.00  0.00    +0.258 C 
ATOM     23  O   UNL     1       1.969  -4.299  -1.274  0.00  0.00    -0.269 OA
ATOM     24  N   UNL     1       2.678  -2.583  -2.474  0.00  0.00    -0.255 N 
ATOM     25  C   UNL     1       2.496  -1.315  -2.906  0.00  0.00    +0.121 C 
ATOM     26  S   UNL     1       3.492  -0.378  -3.936  0.00  0.00    -0.027 S 
ATOM     27  S   UNL     1       0.951  -0.866  -2.130  0.00  0.00    -0.061 S 
BRANCH  24  28
ATOM     28  C   UNL     1       3.866  -3.327  -2.900  0.00  0.00    +0.119 C 
BRANCH  28  29
ATOM     29  C   UNL     1       5.000  -3.092  -1.900  0.00  0.00    +0.054 C 
BRANCH  29  30
ATOM     30  C   UNL     1       6.222  -3.857  -2.337  0.00  0.00    -0.046 A 
ATOM     31  C   UNL     1       6.420  -5.152  -1.896  0.00  0.00    +0.007 A 
ATOM     32  C   UNL     1       7.536  -5.858  -2.300  0.00  0.00    +0.046 A 
ATOM     33  C   UNL     1       8.466  -5.262  -3.139  0.00  0.00    +0.120 A 
ATOM     34  C   UNL     1       8.268  -3.961  -3.576  0.00  0.00    +0.046 A 
ATOM     35  C   UNL     1       7.147  -3.261  -3.175  0.00  0.00    +0.007 A 
BRANCH  33  36
ATOM     36  O   UNL     1       9.568  -5.952  -3.533  0.00  0.00    -0.495 OA
ATOM     37  C   UNL     1       9.707  -7.288  -3.044  0.00  0.00    +0.277 C 
ENDBRANCH  33  36
ENDBRANCH  29  30
ENDBRANCH  28  29
ENDBRANCH  24  28
ENDBRANCH   2  20
TORSDOF 6
