REMARK  Name = ZINC63376069
REMARK  5 active torsions:
REMARK  status: ('A' for Active; 'I' for Inactive)
REMARK    1  A    between atoms: C_2  and  C_3
REMARK    2  A    between atoms: C_3  and  N_4
REMARK    3  A    between atoms: C_5  and  C_7
REMARK    4  A    between atoms: C_12  and  N_13
REMARK    5  A    between atoms: C_29  and  C_34
REMARK                            x       y       z     vdW  Elec       q    Type
REMARK                         _______ _______ _______ _____ _____    ______ ____
ROOT
ATOM      1  N   UNL     1      -4.963  -3.654  -1.741  0.00  0.00    -0.192 N 
ATOM      2  C   UNL     1      -6.043  -2.852  -1.643  0.00  0.00    +0.248 C 
ATOM      3  O   UNL     1      -6.314  -1.899  -2.342  0.00  0.00    -0.273 OA
ATOM      4  C   UNL     1      -6.846  -3.388  -0.478  0.00  0.00    +0.169 C 
ATOM      5  C   UNL     1      -7.017  -2.295   0.591  0.00  0.00    +0.065 C 
ATOM      6  C   UNL     1      -7.266  -3.013   1.897  0.00  0.00    -0.034 C 
ATOM      7  C   UNL     1      -8.253  -2.889   2.779  0.00  0.00    -0.001 A 
ATOM      8  C   UNL     1      -9.387  -1.954   2.851  0.00  0.00    +0.010 A 
ATOM      9  C   UNL     1     -10.236  -2.123   3.900  0.00  0.00    +0.001 A 
ATOM     10  C   UNL     1     -10.071  -3.115   4.872  0.00  0.00    +0.002 A 
ATOM     11  C   UNL     1      -9.052  -4.010   4.888  0.00  0.00    +0.026 A 
ATOM     12  C   UNL     1      -8.090  -3.929   3.839  0.00  0.00    +0.043 A 
ATOM     13  N   UNL     1      -7.021  -4.636   3.621  0.00  0.00    -0.375 N 
ATOM     14  C   UNL     1      -6.347  -4.101   2.437  0.00  0.00    +0.131 C 
ATOM     15  C   UNL     1      -6.215  -5.162   1.335  0.00  0.00    +0.135 C 
ATOM     16  N   UNL     1      -5.985  -4.458   0.062  0.00  0.00    -0.264 N 
ATOM     17  C   UNL     1      -4.955  -4.591  -0.783  0.00  0.00    +0.317 C 
ATOM     18  O   UNL     1      -4.109  -5.459  -0.692  0.00  0.00    -0.252 OA
ATOM     19  H   UNL     1      -6.721  -5.389   4.153  0.00  0.00    +0.160 HD
ENDROOT
BRANCH  15  20
ATOM     20  C   UNL     1      -7.488  -5.963   1.238  0.00  0.00    -0.025 A 
ATOM     21  C   UNL     1      -8.652  -5.360   0.800  0.00  0.00    +0.008 A 
ATOM     22  C   UNL     1      -9.820  -6.093   0.710  0.00  0.00    +0.038 A 
ATOM     23  C   UNL     1      -9.823  -7.434   1.058  0.00  0.00    +0.123 A 
ATOM     24  C   UNL     1      -8.657  -8.037   1.496  0.00  0.00    +0.038 A 
ATOM     25  C   UNL     1      -7.489  -7.303   1.580  0.00  0.00    +0.008 A 
ATOM     26  F   UNL     1     -10.964  -8.152   0.970  0.00  0.00    -0.205 F 
ENDBRANCH  15  20
BRANCH   1  32
ATOM     27  C   UNL     1      -2.857  -2.717  -2.495  0.00  0.00    +0.059 A 
ATOM     28  C   UNL     1      -1.876  -2.602  -3.483  0.00  0.00    +0.015 A 
ATOM     29  C   UNL     1      -2.019  -3.279  -4.675  0.00  0.00    +0.001 A 
ATOM     30  C   UNL     1      -3.132  -4.073  -4.899  0.00  0.00    +0.002 A 
ATOM     31  C   UNL     1      -4.109  -4.196  -3.932  0.00  0.00    +0.025 A 
ATOM     32  C   UNL     1      -3.979  -3.526  -2.723  0.00  0.00    +0.058 A 
BRANCH  27  34
ATOM     33  N   UNL     1      -1.630  -1.219  -1.001  0.00  0.00    -0.308 N 
ATOM     34  C   UNL     1      -2.710  -1.996  -1.216  0.00  0.00    +0.246 C 
ATOM     35  O   UNL     1      -3.563  -2.102  -0.356  0.00  0.00    -0.270 OA
ATOM     36  H   UNL     1      -0.949  -1.134  -1.687  0.00  0.00    +0.149 HD
BRANCH  33  37
ATOM     37  C   UNL     1      -1.484  -0.503   0.269  0.00  0.00    +0.131 C 
BRANCH  37  39
ATOM     38  C   UNL     1      -0.223   1.576   0.491  0.00  0.00    +0.005 C 
ATOM     39  C   UNL     1      -0.201   0.288   0.255  0.00  0.00    -0.016 C 
ENDBRANCH  37  39
ENDBRANCH  33  37
ENDBRANCH  27  34
ENDBRANCH   1  32
TORSDOF 5
