REMARK  Name = ZINC49570425
REMARK  4 active torsions:
REMARK  status: ('A' for Active; 'I' for Inactive)
REMARK    1  A    between atoms: C_3  and  N_11
REMARK    2  A    between atoms: C_6  and  C_7
REMARK    3  A    between atoms: C_7  and  N_9
REMARK    4  A    between atoms: N_11  and  C_12
REMARK                            x       y       z     vdW  Elec       q    Type
REMARK                         _______ _______ _______ _____ _____    ______ ____
ROOT
ATOM      1  C   UNL     1      -0.017   1.394   0.010  0.00  0.00    +0.012 A 
ATOM      2  C   UNL     1       1.167   2.098   0.002  0.00  0.00    +0.026 A 
ATOM      3  C   UNL     1       2.381   1.420  -0.013  0.00  0.00    +0.063 A 
ATOM      4  C   UNL     1       2.405   0.026  -0.021  0.00  0.00    +0.145 A 
ATOM      5  C   UNL     1       1.225  -0.684  -0.014  0.00  0.00    +0.050 A 
ATOM      6  C   UNL     1       0.002  -0.004   0.002  0.00  0.00    +0.006 A 
ATOM      7  F   UNL     1       3.587  -0.629  -0.036  0.00  0.00    -0.204 F 
ENDROOT
BRANCH   6   8
ATOM      8  C   UNL     1      -1.263  -0.760   0.011  0.00  0.00    +0.077 C 
ATOM      9  S   UNL     1      -2.629  -0.151  -0.823  0.00  0.00    -0.035 S 
BRANCH   8  10
ATOM     10  N   UNL     1      -1.345  -1.930   0.675  0.00  0.00    -0.352 N 
ATOM     11  H   UNL     1      -0.571  -2.274   1.147  0.00  0.00    +0.143 HD
ATOM     12  H   UNL     1      -2.177  -2.427   0.680  0.00  0.00    +0.143 HD
ENDBRANCH   8  10
ENDBRANCH   6   8
BRANCH   3  13
ATOM     13  N   UNL     1       3.576   2.135  -0.022  0.00  0.00    -0.340 N 
ATOM     14  H   UNL     1       4.424   1.664  -0.033  0.00  0.00    +0.146 HD
BRANCH  13  15
ATOM     15  C   UNL     1       3.553   3.600  -0.014  0.00  0.00    +0.055 C 
ATOM     16  C   UNL     1       3.486   4.147  -1.455  0.00  0.00    +0.002 C 
ATOM     17  C   UNL     1       4.314   5.442  -1.415  0.00  0.00    -0.077 C 
ATOM     18  N   UNL     1       5.162   5.396  -0.218  0.00  0.00    +0.383 N 
ATOM     19  C   UNL     1       4.876   4.158   0.541  0.00  0.00    -0.048 C 
ATOM     20  C   UNL     1       6.016   3.180   0.163  0.00  0.00    -0.015 C 
ATOM     21  C   UNL     1       7.226   4.138   0.008  0.00  0.00    -0.020 C 
ATOM     22  C   UNL     1       6.585   5.410  -0.596  0.00  0.00    -0.078 C 
ATOM     23  H   UNL     1       4.961   6.190   0.370  0.00  0.00    -0.081 HD
ENDBRANCH  13  15
ENDBRANCH   3  13
TORSDOF 4
