REMARK  Name = ZINC37053185
REMARK  6 active torsions:
REMARK  status: ('A' for Active; 'I' for Inactive)
REMARK    1  A    between atoms: C_1  and  N_2
REMARK    2  A    between atoms: C_5  and  N_8
REMARK    3  A    between atoms: N_8  and  C_9
REMARK    4  A    between atoms: N_8  and  S_10
REMARK    5  A    between atoms: S_10  and  C_13
REMARK    6  A    between atoms: C_14  and  N_21
REMARK                            x       y       z     vdW  Elec       q    Type
REMARK                         _______ _______ _______ _____ _____    ______ ____
ROOT
ATOM      1  S   UNL     1       2.999  -5.265  -0.182  0.00  0.00    +0.064 S 
ATOM      2  O   UNL     1       2.620  -6.554  -0.643  0.00  0.00    -0.153 OA
ATOM      3  O   UNL     1       4.134  -4.577  -0.691  0.00  0.00    -0.153 OA
ENDROOT
BRANCH   1   4
ATOM      4  C   UNL     1       3.232  -5.401   1.559  0.00  0.00    +0.144 A 
ATOM      5  C   UNL     1       3.987  -4.452   2.236  0.00  0.00    +0.054 A 
ATOM      6  C   UNL     1       4.168  -4.562   3.609  0.00  0.00    +0.044 A 
ATOM      7  C   UNL     1       3.597  -5.616   4.298  0.00  0.00    +0.044 A 
ATOM      8  C   UNL     1       2.845  -6.560   3.621  0.00  0.00    +0.042 A 
ATOM      9  C   UNL     1       2.658  -6.449   2.254  0.00  0.00    +0.070 A 
ATOM     10 CL   UNL     1       1.708  -7.632   1.410  0.00  0.00    -0.081 Cl
ATOM     11 CL   UNL     1       3.823  -5.755   6.013  0.00  0.00    -0.083 Cl
BRANCH   5  12
ATOM     12  N   UNL     1       4.564  -3.389   1.538  0.00  0.00    -0.356 N 
ATOM     13  H   UNL     1       4.261  -3.176   0.641  0.00  0.00    +0.142 HD
ATOM     14  H   UNL     1       5.267  -2.863   1.949  0.00  0.00    +0.142 HD
ENDBRANCH   5  12
ENDBRANCH   1   4
BRANCH   1  15
ATOM     15  N   UNL     1       1.696  -4.273  -0.425  0.00  0.00    -0.177 NA
ATOM     16  C   UNL     1       0.348  -4.841  -0.509  0.00  0.00    +0.132 C 
BRANCH  15  21
ATOM     17  C   UNL     1       0.788   1.252  -1.111  0.00  0.00    -0.096 C 
ATOM     18  N   UNL     1       0.720  -0.208  -0.964  0.00  0.00    +0.378 N 
ATOM     19  C   UNL     1       1.512  -0.843  -2.024  0.00  0.00    -0.078 C 
ATOM     20  C   UNL     1       1.379  -2.364  -1.925  0.00  0.00    +0.002 C 
ATOM     21  C   UNL     1       1.890  -2.827  -0.557  0.00  0.00    +0.076 C 
ATOM     22  C   UNL     1       1.107  -2.102   0.542  0.00  0.00    +0.002 C 
ATOM     23  C   UNL     1       1.250  -0.591   0.350  0.00  0.00    -0.078 C 
ATOM     24  H   UNL     1      -0.240  -0.508  -1.038  0.00  0.00    -0.082 HD
ENDBRANCH  15  21
ENDBRANCH   1  15
TORSDOF 4
