REMARK  Name = ZINC17040504
REMARK  10 active torsions:
REMARK  status: ('A' for Active; 'I' for Inactive)
REMARK    1  A    between atoms: C_1  and  C_2
REMARK    2  A    between atoms: C_5  and  S_8
REMARK    3  A    between atoms: S_8  and  N_11
REMARK    4  A    between atoms: N_11  and  C_12
REMARK    5  A    between atoms: N_11  and  C_31
REMARK    6  A    between atoms: C_12  and  C_13
REMARK    7  A    between atoms: C_13  and  C_14
REMARK    8  A    between atoms: C_14  and  C_15
REMARK    9  A    between atoms: C_16  and  C_24
REMARK   10  A    between atoms: C_24  and  C_25
REMARK                            x       y       z     vdW  Elec       q    Type
REMARK                         _______ _______ _______ _____ _____    ______ ____
ROOT
ATOM      1  C   UNL     1      -2.049   0.454   1.643  0.00  0.00    +0.026 C 
ENDROOT
BRANCH   1   2
ATOM      2  C   UNL     1      -0.638   0.812   2.113  0.00  0.00    +0.132 C 
BRANCH   2   3
ATOM      3  N   UNL     1      -0.694   1.317   3.487  0.00  0.00    -0.203 N 
BRANCH   3   4
ATOM      4  C   UNL     1      -0.968   2.665   3.725  0.00  0.00    +0.051 A 
ATOM      5  C   UNL     1      -0.059   3.640   3.335  0.00  0.00    +0.025 A 
ATOM      6  C   UNL     1      -0.336   4.973   3.567  0.00  0.00    +0.002 A 
ATOM      7  C   UNL     1      -1.511   5.337   4.198  0.00  0.00    +0.000 A 
ATOM      8  C   UNL     1      -2.416   4.369   4.593  0.00  0.00    +0.002 A 
ATOM      9  C   UNL     1      -2.148   3.034   4.359  0.00  0.00    +0.025 A 
ENDBRANCH   3   4
BRANCH   3  10
ATOM     10  S   UNL     1      -0.432   0.288   4.758  0.00  0.00    +0.075 S 
ATOM     11  O   UNL     1       0.293  -0.820   4.241  0.00  0.00    -0.150 OA
ATOM     12  O   UNL     1       0.054   1.083   5.831  0.00  0.00    -0.150 OA
BRANCH  10  17
ATOM     13  C   UNL     1      -5.814  -1.826   6.481  0.00  0.00    +0.044 C 
ATOM     14  C   UNL     1      -4.470  -1.298   6.051  0.00  0.00    -0.050 A 
ATOM     15  C   UNL     1      -3.755  -1.950   5.063  0.00  0.00    +0.005 A 
ATOM     16  C   UNL     1      -2.522  -1.465   4.668  0.00  0.00    +0.029 A 
ATOM     17  C   UNL     1      -2.004  -0.329   5.261  0.00  0.00    +0.109 A 
ATOM     18  C   UNL     1      -2.716   0.319   6.252  0.00  0.00    +0.029 A 
ATOM     19  C   UNL     1      -3.951  -0.162   6.644  0.00  0.00    +0.005 A 
ENDBRANCH  10  17
ENDBRANCH   3  10
ENDBRANCH   2   3
ENDBRANCH   1   2
BRANCH   1  20
ATOM     20  C   UNL     1      -1.979  -0.172   0.249  0.00  0.00    +0.044 C 
BRANCH  20  21
ATOM     21  C   UNL     1      -3.375  -0.419  -0.262  0.00  0.00    +0.038 A 
ATOM     22  C   UNL     1      -3.964  -1.622  -0.096  0.00  0.00    +0.031 A 
ATOM     23  N   UNL     1      -5.231  -1.816  -0.565  0.00  0.00    -0.331 N 
ATOM     24  H   UNL     1      -5.726  -2.789  -0.428  0.00  0.00    +0.168 HD
ATOM     25  C   UNL     1      -5.890  -0.812  -1.202  0.00  0.00    +0.194 A 
ATOM     26  N   UNL     1      -5.330   0.367  -1.378  0.00  0.00    -0.177 NA
ATOM     27  C   UNL     1      -4.089   0.608  -0.931  0.00  0.00    +0.278 A 
ATOM     28  O   UNL     1      -3.577   1.704  -1.099  0.00  0.00    -0.265 OA
ATOM     29  N   UNL     1      -7.159  -1.031  -1.669  0.00  0.00    -0.329 N 
ATOM     30  H   UNL     1      -7.700  -0.225  -2.186  0.00  0.00    +0.145 HD
ATOM     31  H   UNL     1      -7.636  -2.011  -1.527  0.00  0.00    +0.145 HD
BRANCH  22  32
ATOM     32  C   UNL     1      -3.232  -2.738   0.605  0.00  0.00    +0.088 C 
BRANCH  32  33
ATOM     33  C   UNL     1      -4.061  -3.996   0.548  0.00  0.00    -0.042 A 
ATOM     34  C   UNL     1      -4.900  -4.319   1.597  0.00  0.00    +0.004 A 
ATOM     35  C   UNL     1      -5.663  -5.470   1.542  0.00  0.00    +0.000 A 
ATOM     36  C   UNL     1      -5.580  -6.303   0.443  0.00  0.00    +0.000 A 
ATOM     37  C   UNL     1      -4.736  -5.983  -0.605  0.00  0.00    +0.000 A 
ATOM     38  C   UNL     1      -3.977  -4.829  -0.552  0.00  0.00    +0.004 A 
ENDBRANCH  32  33
ENDBRANCH  22  32
ENDBRANCH  20  21
ENDBRANCH   1  20
TORSDOF 9
