REMARK  Name = ZINC21265709
REMARK  10 active torsions:
REMARK  status: ('A' for Active; 'I' for Inactive)
REMARK    1  A    between atoms: C_3  and  S_26
REMARK    2  A    between atoms: C_6  and  C_7
REMARK    3  A    between atoms: C_7  and  C_8
REMARK    4  A    between atoms: C_8  and  N_9
REMARK    5  A    between atoms: N_9  and  C_10
REMARK    6  A    between atoms: C_10  and  C_11
REMARK    7  A    between atoms: N_13  and  C_14
REMARK    8  A    between atoms: C_17  and  N_23
REMARK    9  A    between atoms: C_19  and  N_20
REMARK   10  A    between atoms: S_26  and  N_29
REMARK                            x       y       z     vdW  Elec       q    Type
REMARK                         _______ _______ _______ _____ _____    ______ ____
ROOT
ATOM      1  N   UNL     1      -0.017   1.464   0.007  0.00  0.00    +0.385 N 
ATOM      2  H   UNL     1      -0.557   1.837  -0.876  0.00  0.00    -0.085 HD
ATOM      3  H   UNL     1      -0.523   1.811   0.919  0.00  0.00    -0.085 HD
ENDROOT
BRANCH   1   4
ATOM      4  C   UNL     1       0.003  -0.004  -0.014  0.00  0.00    -0.077 C 
BRANCH   4   5
ATOM      5  C   UNL     1      -1.432  -0.534   0.005  0.00  0.00    +0.016 C 
BRANCH   5  11
ATOM      6  C   UNL     1      -1.430  -2.715  -1.223  0.00  0.00    +0.005 A 
ATOM      7  C   UNL     1      -1.407  -4.097  -1.242  0.00  0.00    +0.029 A 
ATOM      8  C   UNL     1      -1.375  -4.805  -0.056  0.00  0.00    +0.105 A 
ATOM      9  C   UNL     1      -1.361  -4.130   1.151  0.00  0.00    +0.029 A 
ATOM     10  C   UNL     1      -1.380  -2.748   1.171  0.00  0.00    +0.005 A 
ATOM     11  C   UNL     1      -1.412  -2.041  -0.016  0.00  0.00    -0.049 A 
BRANCH   8  12
ATOM     12  S   UNL     1      -1.350  -6.566  -0.081  0.00  0.00    +0.056 S 
ATOM     13  O   UNL     1      -0.817  -6.947  -1.342  0.00  0.00    -0.153 OA
ATOM     14  O   UNL     1      -0.769  -6.982   1.148  0.00  0.00    -0.153 OA
BRANCH  12  15
ATOM     15  N   UNL     1      -2.924  -7.079  -0.057  0.00  0.00    -0.204 NA
ATOM     16  H   UNL     1      -2.952  -8.178  -0.072  0.00  0.00    +0.144 HD
ATOM     17  H   UNL     1      -3.451  -6.687  -0.940  0.00  0.00    +0.144 HD
ENDBRANCH  12  15
ENDBRANCH   8  12
ENDBRANCH   5  11
ENDBRANCH   4   5
ENDBRANCH   1   4
BRANCH   1  18
ATOM     18  C   UNL     1       1.347   2.010  -0.011  0.00  0.00    +0.015 C 
BRANCH  18  19
ATOM     19  C   UNL     1       1.287   3.515   0.011  0.00  0.00    +0.200 C 
ATOM     20  O   UNL     1       0.213   4.079   0.039  0.00  0.00    -0.278 OA
ATOM     21  N   UNL     1       2.426   4.236  -0.000  0.00  0.00    -0.285 N 
ATOM     22  H   UNL     1       3.399   3.727   0.066  0.00  0.00    +0.155 HD
BRANCH  21  23
ATOM     23  C   UNL     1       2.370   5.631  -0.097  0.00  0.00    +0.064 A 
ATOM     24  C   UNL     1       1.274   6.244  -0.689  0.00  0.00    +0.028 A 
ATOM     25  C   UNL     1       1.222   7.621  -0.783  0.00  0.00    +0.034 A 
ATOM     26  C   UNL     1       2.260   8.389  -0.287  0.00  0.00    +0.128 A 
ATOM     27  C   UNL     1       3.353   7.781   0.304  0.00  0.00    +0.067 A 
ATOM     28  C   UNL     1       3.409   6.404   0.404  0.00  0.00    +0.149 A 
BRANCH  28  29
ATOM     29  N   UNL     1       4.576   5.755   1.042  0.00  0.00    +0.058 N 
ATOM     30  O   UNL     1       5.443   6.435   1.561  0.00  0.00    -0.126 OA
ATOM     31  O   UNL     1       4.670   4.540   1.047  0.00  0.00    -0.126 OA
ENDBRANCH  28  29
BRANCH  26  32
ATOM     32  N   UNL     1       2.201   9.864  -0.388  0.00  0.00    +0.056 N 
ATOM     33  O   UNL     1       1.239  10.401  -0.908  0.00  0.00    -0.126 OA
ATOM     34  O   UNL     1       3.115  10.542   0.048  0.00  0.00    -0.126 OA
ENDBRANCH  26  32
ENDBRANCH  21  23
ENDBRANCH  18  19
ENDBRANCH   1  18
TORSDOF 10
