REMARK  Name = ZINC09777339
REMARK  13 active torsions:
REMARK  status: ('A' for Active; 'I' for Inactive)
REMARK    1  A    between atoms: C_1  and  C_2
REMARK    2  A    between atoms: C_8  and  N_10
REMARK    3  A    between atoms: C_11  and  C_13
REMARK    4  A    between atoms: C_21  and  C_33
REMARK    5  A    between atoms: N_27  and  C_28
REMARK    6  A    between atoms: C_28  and  C_29
REMARK    7  A    between atoms: C_29  and  C_30
REMARK    8  A    between atoms: C_30  and  C_31
REMARK    9  A    between atoms: C_30  and  C_32
REMARK   10  A    between atoms: N_35  and  C_36
REMARK   11  A    between atoms: C_39  and  C_42
REMARK   12  A    between atoms: C_42  and  C_43
REMARK   13  A    between atoms: C_42  and  C_44
REMARK                            x       y       z     vdW  Elec       q    Type
REMARK                         _______ _______ _______ _____ _____    ______ ____
ROOT
ATOM      1  C   UNL     1       1.157   2.291   0.135  0.00  0.00    +0.198 C 
ATOM      2  C   UNL     1      -0.285   1.892   0.074  0.00  0.00    +0.127 C 
ATOM      3  C   UNL     1      -1.068   2.320   1.302  0.00  0.00    +0.009 C 
ATOM      4  C   UNL     1      -2.311   1.909   1.097  0.00  0.00    +0.004 C 
ATOM      5  C   UNL     1      -2.268   1.168  -0.245  0.00  0.00    +0.155 C 
ATOM      6  O   UNL     1      -1.226   1.943  -0.973  0.00  0.00    -0.358 OA
ATOM      7  C   UNL     1      -1.494  -0.155   0.130  0.00  0.00    +0.123 C 
ATOM      8  C   UNL     1      -0.066   0.327   0.135  0.00  0.00    +0.128 C 
ATOM      9  C   UNL     1       0.898   0.240   1.246  0.00  0.00    +0.223 C 
ATOM     10  O   UNL     1       0.977  -0.651   2.066  0.00  0.00    -0.275 OA
ATOM     11  N   UNL     1       1.691   1.360   1.178  0.00  0.00    -0.287 N 
ENDROOT
BRANCH   1  13
ATOM     12  N   UNL     1       1.116   4.722  -0.320  0.00  0.00    -0.311 N 
ATOM     13  C   UNL     1       1.300   3.727   0.570  0.00  0.00    +0.237 C 
ATOM     14  O   UNL     1       1.581   3.987   1.720  0.00  0.00    -0.274 OA
ATOM     15  H   UNL     1       0.891   4.514  -1.241  0.00  0.00    +0.149 HD
BRANCH  12  22
ATOM     16  C   UNL     1      -1.040   6.607  -0.755  0.00  0.00    +0.009 C 
ATOM     17  C   UNL     1       0.432   7.016  -0.824  0.00  0.00    +0.006 C 
ATOM     18  C   UNL     1       0.937   6.865  -2.260  0.00  0.00    +0.005 C 
ATOM     19  C   UNL     1       2.410   7.274  -2.329  0.00  0.00    +0.000 C 
ATOM     20  C   UNL     1       3.232   6.376  -1.403  0.00  0.00    +0.002 C 
ATOM     21  C   UNL     1       2.728   6.527   0.034  0.00  0.00    +0.022 C 
ATOM     22  C   UNL     1       1.255   6.118   0.102  0.00  0.00    +0.076 C 
ENDBRANCH  12  22
ENDBRANCH   1  13
BRANCH   7  23
ATOM     23  C   UNL     1      -1.902  -0.652   1.493  0.00  0.00    +0.224 C 
ATOM     24  O   UNL     1      -1.109  -0.625   2.410  0.00  0.00    -0.275 OA
ATOM     25  N   UNL     1      -3.147  -1.126   1.693  0.00  0.00    -0.285 N 
ATOM     26  H   UNL     1      -3.805  -1.077   0.982  0.00  0.00    +0.155 HD
BRANCH  25  27
ATOM     27  C   UNL     1      -3.492  -1.689   2.927  0.00  0.00    +0.033 A 
ATOM     28  C   UNL     1      -2.545  -2.390   3.661  0.00  0.00    +0.023 A 
ATOM     29  C   UNL     1      -2.887  -2.940   4.881  0.00  0.00    +0.006 A 
ATOM     30  C   UNL     1      -4.175  -2.802   5.366  0.00  0.00    -0.045 A 
ATOM     31  C   UNL     1      -5.122  -2.110   4.635  0.00  0.00    +0.006 A 
ATOM     32  C   UNL     1      -4.784  -1.552   3.417  0.00  0.00    +0.023 A 
BRANCH  30  33
ATOM     33  C   UNL     1      -4.546  -3.408   6.695  0.00  0.00    +0.013 C 
ATOM     34  C   UNL     1      -4.330  -4.922   6.644  0.00  0.00    +0.012 C 
ATOM     35  C   UNL     1      -3.669  -2.804   7.794  0.00  0.00    +0.012 C 
ENDBRANCH  30  33
ENDBRANCH  25  27
ENDBRANCH   7  23
BRANCH  11  36
ATOM     36  C   UNL     1       2.878   1.606   2.000  0.00  0.00    +0.109 C 
BRANCH  36  37
ATOM     37  C   UNL     1       4.114   1.049   1.290  0.00  0.00    +0.022 C 
BRANCH  37  38
ATOM     38  C   UNL     1       5.354   1.306   2.149  0.00  0.00    -0.016 C 
ATOM     39  C   UNL     1       5.245   0.513   3.453  0.00  0.00    +0.007 C 
ATOM     40  C   UNL     1       6.604   0.862   1.386  0.00  0.00    +0.007 C 
ENDBRANCH  37  38
ENDBRANCH  36  37
ENDBRANCH  11  36
TORSDOF 8
