REMARK  Name = ZINC43408351
REMARK  3 active torsions:
REMARK  status: ('A' for Active; 'I' for Inactive)
REMARK    1  A    between atoms: C_6  and  C_7
REMARK    2  A    between atoms: C_7  and  N_9
REMARK    3  A    between atoms: N_10  and  C_11
REMARK                            x       y       z     vdW  Elec       q    Type
REMARK                         _______ _______ _______ _____ _____    ______ ____
ROOT
ATOM      1  C   UNL     1      -0.011   1.405   0.002  0.00  0.00    +0.019 A 
ATOM      2  C   UNL     1       1.202   2.074  -0.002  0.00  0.00    -0.025 A 
ATOM      3  C   UNL     1       2.382   1.352  -0.009  0.00  0.00    +0.047 A 
ATOM      4  N   UNL     1       2.363   0.028  -0.012  0.00  0.00    -0.236 NA
ATOM      5  C   UNL     1       1.234  -0.660  -0.009  0.00  0.00    +0.129 A 
ATOM      6  C   UNL     1      -0.004   0.006  -0.002  0.00  0.00    +0.043 A 
ATOM      7  N   UNL     1       1.272  -2.043  -0.013  0.00  0.00    -0.327 N 
ATOM      8  C   UNL     1       3.559   2.306  -0.011  0.00  0.00    +0.056 C 
ATOM      9  C   UNL     1       2.977   3.667  -0.447  0.00  0.00    +0.011 C 
ATOM     10  C   UNL     1       1.504   3.556  -0.001  0.00  0.00    +0.037 C 
ATOM     11  H   UNL     1       0.449  -2.551   0.065  0.00  0.00    +0.148 HD
ENDROOT
BRANCH   7  12
ATOM     12  C   UNL     1       2.554  -2.741  -0.136  0.00  0.00    +0.058 C 
ATOM     13  C   UNL     1       2.923  -2.880  -1.615  0.00  0.00    -0.056 C 
ATOM     14  N   UNL     1       3.046  -4.295  -1.970  0.00  0.00    +0.381 N 
ATOM     15  C   UNL     1       4.111  -4.931  -1.190  0.00  0.00    -0.078 C 
ATOM     16  C   UNL     1       3.782  -4.861   0.302  0.00  0.00    -0.014 C 
ATOM     17  C   UNL     1       2.439  -4.140   0.482  0.00  0.00    +0.004 C 
ATOM     18  C   UNL     1       1.367  -4.923  -0.288  0.00  0.00    -0.014 C 
ATOM     19  C   UNL     1       1.773  -4.991  -1.767  0.00  0.00    -0.078 C 
ATOM     20  H   UNL     1       3.294  -4.359  -2.946  0.00  0.00    -0.082 HD
ENDBRANCH   7  12
BRANCH   6  21
ATOM     21  C   UNL     1      -1.266  -0.753   0.002  0.00  0.00    +0.080 C 
ATOM     22  S   UNL     1      -1.942  -1.297  -1.474  0.00  0.00    -0.035 S 
BRANCH  21  23
ATOM     23  N   UNL     1      -1.889  -1.019   1.167  0.00  0.00    -0.352 N 
ATOM     24  H   UNL     1      -1.506  -0.711   2.003  0.00  0.00    +0.143 HD
ATOM     25  H   UNL     1      -2.720  -1.519   1.170  0.00  0.00    +0.143 HD
ENDBRANCH  21  23
ENDBRANCH   6  21
TORSDOF 3
