REMARK  Name = ZINC63817853
REMARK  10 active torsions:
REMARK  status: ('A' for Active; 'I' for Inactive)
REMARK    1  A    between atoms: C_1  and  C_2
REMARK    2  A    between atoms: C_7  and  C_8
REMARK    3  A    between atoms: C_8  and  C_9
REMARK    4  A    between atoms: C_8  and  N_23
REMARK    5  A    between atoms: C_9  and  C_10
REMARK    6  A    between atoms: N_12  and  C_13
REMARK    7  A    between atoms: C_16  and  C_19
REMARK    8  A    between atoms: C_19  and  C_20
REMARK    9  A    between atoms: C_19  and  C_21
REMARK   10  A    between atoms: C_19  and  C_22
REMARK                            x       y       z     vdW  Elec       q    Type
REMARK                         _______ _______ _______ _____ _____    ______ ____
ROOT
ATOM      1  C   UNL     1      -0.403   0.131   1.971  0.00  0.00    +0.114 C 
ENDROOT
BRANCH   1   8
ATOM      2  C   UNL     1      -2.569  -0.011   0.066  0.00  0.00    +0.044 C 
ATOM      3  C   UNL     1      -1.159  -0.307  -0.374  0.00  0.00    -0.045 A 
ATOM      4  C   UNL     1      -0.901  -0.641  -1.690  0.00  0.00    +0.004 A 
ATOM      5  C   UNL     1       0.393  -0.912  -2.094  0.00  0.00    +0.000 A 
ATOM      6  C   UNL     1       1.429  -0.850  -1.180  0.00  0.00    +0.000 A 
ATOM      7  C   UNL     1       1.172  -0.515   0.136  0.00  0.00    +0.006 A 
ATOM      8  C   UNL     1      -0.122  -0.239   0.538  0.00  0.00    -0.024 A 
ENDBRANCH   1   8
BRANCH   1   9
ATOM      9  N   UNL     1      -1.032  -1.002   2.654  0.00  0.00    -0.292 N 
ATOM     10  C   UNL     1      -0.424  -2.205   2.664  0.00  0.00    +0.298 C 
ATOM     11  O   UNL     1       0.686  -2.329   2.184  0.00  0.00    -0.253 OA
ATOM     12  N   UNL     1      -1.047  -3.270   3.204  0.00  0.00    -0.313 N 
ATOM     13  H   UNL     1      -1.886  -0.886   3.100  0.00  0.00    +0.151 HD
ATOM     14  H   UNL     1      -1.933  -3.172   3.587  0.00  0.00    +0.146 HD
ATOM     15  H   UNL     1      -0.610  -4.136   3.211  0.00  0.00    +0.146 HD
ENDBRANCH   1   9
BRANCH   1  16
ATOM     16  C   UNL     1       0.910   0.485   2.673  0.00  0.00    +0.123 C 
BRANCH  16  17
ATOM     17  C   UNL     1       0.618   0.972   4.069  0.00  0.00    +0.219 C 
ATOM     18  O   UNL     1      -0.527   1.032   4.463  0.00  0.00    -0.275 OA
ATOM     19  N   UNL     1       1.630   1.343   4.879  0.00  0.00    -0.283 N 
ATOM     20  H   UNL     1       2.539   1.365   4.540  0.00  0.00    +0.155 HD
BRANCH  19  21
ATOM     21  C   UNL     1       1.369   1.695   6.208  0.00  0.00    +0.070 A 
ATOM     22  C   UNL     1       0.335   1.091   6.917  0.00  0.00    +0.137 A 
ATOM     23  N   UNL     1       0.121   1.452   8.172  0.00  0.00    -0.238 NA
ATOM     24  C   UNL     1       0.872   2.368   8.750  0.00  0.00    +0.134 A 
ATOM     25  N   UNL     1       1.860   2.963   8.113  0.00  0.00    -0.238 NA
ATOM     26  C   UNL     1       2.142   2.654   6.858  0.00  0.00    +0.137 A 
BRANCH  24  27
ATOM     27  C   UNL     1       0.592   2.747  10.181  0.00  0.00    +0.022 C 
ATOM     28  C   UNL     1       0.738   1.513  11.074  0.00  0.00    +0.019 C 
ATOM     29  C   UNL     1       1.585   3.820  10.629  0.00  0.00    +0.019 C 
ATOM     30  C   UNL     1      -0.834   3.292  10.295  0.00  0.00    +0.019 C 
ENDBRANCH  24  27
ENDBRANCH  19  21
ENDBRANCH  16  17
ENDBRANCH   1  16
TORSDOF 6
