REMARK  Name = ZINC06443573
REMARK  14 active torsions:
REMARK  status: ('A' for Active; 'I' for Inactive)
REMARK    1  A    between atoms: C_1  and  C_2
REMARK    2  A    between atoms: C_12  and  C_14
REMARK    3  A    between atoms: C_14  and  C_16
REMARK    4  A    between atoms: C_14  and  N_72
REMARK    5  A    between atoms: N_20  and  C_21
REMARK    6  A    between atoms: C_21  and  C_22
REMARK    7  A    between atoms: C_21  and  C_23
REMARK    8  A    between atoms: C_21  and  C_24
REMARK    9  A    between atoms: C_25  and  C_26
REMARK   10  A    between atoms: C_25  and  N_72
REMARK   11  A    between atoms: C_29  and  O_32
REMARK   12  A    between atoms: O_32  and  C_33
REMARK   13  A    between atoms: C_34  and  C_35
REMARK   14  A    between atoms: C_34  and  N_72
REMARK                            x       y       z     vdW  Elec       q    Type
REMARK                         _______ _______ _______ _____ _____    ______ ____
ROOT
ATOM      1  C   UNL     1       0.325  -2.234   4.172  0.00  0.00    +0.040 C 
ENDROOT
BRANCH   1  13
ATOM      2  C   UNL     1       0.381   1.748  -1.057  0.00  0.00    +0.046 C 
ATOM      3  C   UNL     1       0.366   0.245  -0.951  0.00  0.00    -0.026 A 
ATOM      4  C   UNL     1       0.356  -0.529  -2.092  0.00  0.00    +0.005 A 
ATOM      5  C   UNL     1       0.349  -1.915  -2.007  0.00  0.00    +0.001 A 
ATOM      6  C   UNL     1       0.338  -2.537  -0.791  0.00  0.00    +0.010 A 
ATOM      7  C   UNL     1       0.342  -1.772   0.379  0.00  0.00    -0.001 A 
ATOM      8  C   UNL     1       0.356  -0.366   0.298  0.00  0.00    +0.052 A 
ATOM      9  N   UNL     1       0.360   0.383   1.455  0.00  0.00    -0.322 N 
ATOM     10  H   UNL     1       0.370   1.351   1.397  0.00  0.00    +0.169 HD
ATOM     11  C   UNL     1       0.349  -0.208   2.662  0.00  0.00    +0.251 A 
ATOM     12  O   UNL     1       0.353   0.486   3.664  0.00  0.00    -0.268 OA
ATOM     13  C   UNL     1       0.335  -1.613   2.799  0.00  0.00    +0.011 A 
ATOM     14  C   UNL     1       0.331  -2.406   1.699  0.00  0.00    +0.017 A 
ENDBRANCH   1  13
BRANCH   1  15
ATOM     15  C   UNL     1       1.613  -1.906   4.881  0.00  0.00    +0.143 A 
ATOM     16  N   UNL     1       1.941  -0.756   5.417  0.00  0.00    -0.115 NA
ATOM     17  N   UNL     1       3.118  -0.875   5.926  0.00  0.00    -0.023 NA
ATOM     18  N   UNL     1       3.550  -2.072   5.730  0.00  0.00    -0.043 NA
ATOM     19  N   UNL     1       2.648  -2.740   5.094  0.00  0.00    -0.225 N 
BRANCH  19  20
ATOM     20  C   UNL     1       2.736  -4.142   4.677  0.00  0.00    +0.059 C 
ATOM     21  C   UNL     1       2.537  -4.237   3.163  0.00  0.00    +0.036 C 
ATOM     22  C   UNL     1       4.112  -4.699   5.047  0.00  0.00    +0.036 C 
ATOM     23  C   UNL     1       1.650  -4.954   5.386  0.00  0.00    +0.036 C 
ENDBRANCH  19  20
ENDBRANCH   1  15
BRANCH   1  24
ATOM     24  N   UNL     1      -0.802  -1.673   4.947  0.00  0.00    +0.395 N 
ATOM     25  H   UNL     1      -0.616  -0.681   5.137  0.00  0.00    -0.079 HD
BRANCH  24  26
ATOM     26  C   UNL     1      -0.938  -2.391   6.232  0.00  0.00    -0.041 C 
BRANCH  26  27
ATOM     27  C   UNL     1       0.008  -1.774   7.229  0.00  0.00    -0.064 A 
ATOM     28  C   UNL     1       1.246  -2.349   7.452  0.00  0.00    +0.005 A 
ATOM     29  C   UNL     1       2.118  -1.782   8.362  0.00  0.00    +0.046 A 
ATOM     30  C   UNL     1       1.746  -0.643   9.060  0.00  0.00    +0.120 A 
ATOM     31  C   UNL     1       0.501  -0.071   8.839  0.00  0.00    +0.046 A 
ATOM     32  C   UNL     1      -0.364  -0.638   7.924  0.00  0.00    +0.005 A 
BRANCH  30  33
ATOM     33  O   UNL     1       2.600  -0.086   9.959  0.00  0.00    -0.495 OA
ATOM     34  C   UNL     1       3.865  -0.728  10.136  0.00  0.00    +0.277 C 
ENDBRANCH  30  33
ENDBRANCH  26  27
ENDBRANCH  24  26
BRANCH  24  35
ATOM     35  C   UNL     1      -2.055  -1.786   4.170  0.00  0.00    -0.040 C 
BRANCH  35  36
ATOM     36  C   UNL     1      -3.089  -0.878   4.786  0.00  0.00    -0.046 A 
ATOM     37  C   UNL     1      -3.973  -1.364   5.737  0.00  0.00    +0.005 A 
ATOM     38  C   UNL     1      -4.904  -0.492   6.279  0.00  0.00    +0.020 A 
ATOM     39  C   UNL     1      -4.926   0.822   5.849  0.00  0.00    +0.111 A 
ATOM     40  N   UNL     1      -4.073   1.248   4.939  0.00  0.00    -0.263 NA
ATOM     41  C   UNL     1      -3.171   0.448   4.405  0.00  0.00    +0.112 A 
ENDBRANCH  35  36
ENDBRANCH  24  35
ENDBRANCH   1  24
TORSDOF 9
