REMARK  Name = ZINC13474008
REMARK  10 active torsions:
REMARK  status: ('A' for Active; 'I' for Inactive)
REMARK    1  A    between atoms: C_1  and  C_2
REMARK    2  A    between atoms: C_4  and  O_21
REMARK    3  A    between atoms: C_6  and  O_9
REMARK    4  A    between atoms: O_9  and  C_10
REMARK    5  A    between atoms: C_14  and  S_16
REMARK    6  A    between atoms: S_16  and  N_18
REMARK    7  A    between atoms: N_18  and  C_19
REMARK    8  A    between atoms: N_18  and  C_20
REMARK    9  A    between atoms: O_21  and  C_22
REMARK   10  A    between atoms: C_26  and  C_28
REMARK                            x       y       z     vdW  Elec       q    Type
REMARK                         _______ _______ _______ _____ _____    ______ ____
ROOT
ATOM      1  C   UNL     1       5.257   2.529   5.364  0.00  0.00    +0.050 C 
ATOM      2  C   UNL     1       4.083   2.012   4.572  0.00  0.00    +0.030 A 
ATOM      3  C   UNL     1       2.800   2.050   5.099  0.00  0.00    +0.191 A 
ATOM      4  C   UNL     1       1.741   1.566   4.341  0.00  0.00    +0.260 A 
ATOM      5  N   UNL     1       1.946   1.073   3.130  0.00  0.00    -0.172 NA
ATOM      6  C   UNL     1       3.156   1.022   2.598  0.00  0.00    +0.260 A 
ATOM      7  C   UNL     1       4.261   1.489   3.300  0.00  0.00    +0.191 A 
ATOM      8  F   UNL     1       5.494   1.434   2.749  0.00  0.00    -0.200 F 
ATOM      9  F   UNL     1       2.583   2.552   6.334  0.00  0.00    -0.200 F 
ENDROOT
BRANCH   6  10
ATOM     10  O   UNL     1       3.321   0.508   1.352  0.00  0.00    -0.436 OA
BRANCH  10  11
ATOM     11  C   UNL     1       2.244  -0.062   0.750  0.00  0.00    +0.132 A 
ATOM     12  C   UNL     1       0.961   0.332   1.103  0.00  0.00    +0.046 A 
ATOM     13  C   UNL     1      -0.132  -0.244   0.485  0.00  0.00    +0.005 A 
ATOM     14  C   UNL     1       0.052  -1.220  -0.477  0.00  0.00    +0.019 A 
ATOM     15  C   UNL     1       1.329  -1.618  -0.827  0.00  0.00    +0.058 A 
ATOM     16  C   UNL     1       2.425  -1.041  -0.216  0.00  0.00    +0.064 A 
BRANCH  15  17
ATOM     17  S   UNL     1       1.558  -2.863  -2.053  0.00  0.00    +0.128 S 
ATOM     18  O   UNL     1       2.301  -3.872  -1.384  0.00  0.00    -0.235 OA
BRANCH  17  19
ATOM     19  N   UNL     1       2.648  -2.193  -3.104  0.00  0.00    -0.226 NA
ATOM     20  C   UNL     1       3.079  -0.804  -2.926  0.00  0.00    +0.120 C 
ATOM     21  C   UNL     1       3.180  -2.989  -4.213  0.00  0.00    +0.120 C 
ENDBRANCH  17  19
ENDBRANCH  15  17
ENDBRANCH  10  11
ENDBRANCH   6  10
BRANCH   4  22
ATOM     22  O   UNL     1       0.482   1.605   4.846  0.00  0.00    -0.436 OA
BRANCH  22  23
ATOM     23  C   UNL     1      -0.529   1.123   4.076  0.00  0.00    +0.131 A 
ATOM     24  C   UNL     1      -0.383  -0.090   3.417  0.00  0.00    +0.046 A 
ATOM     25  C   UNL     1      -1.408  -0.584   2.632  0.00  0.00    +0.004 A 
ATOM     26  C   UNL     1      -2.584   0.127   2.499  0.00  0.00    +0.011 A 
ATOM     27  C   UNL     1      -2.740   1.347   3.157  0.00  0.00    +0.016 A 
ATOM     28  C   UNL     1      -1.708   1.841   3.953  0.00  0.00    +0.057 A 
BRANCH  27  29
ATOM     29  C   UNL     1      -4.001   2.111   3.016  0.00  0.00    +0.094 C 
ATOM     30  N   UNL     1      -5.022   1.617   2.234  0.00  0.00    -0.345 N 
ATOM     31  H   UNL     1      -4.932   3.824   3.602  0.00  0.00    +0.157 HD
ATOM     32  H   UNL     1      -4.915   0.769   1.775  0.00  0.00    +0.144 HD
ATOM     33  H   UNL     1      -5.848   2.118   2.142  0.00  0.00    +0.144 HD
ATOM     34  N   UNL     1      -4.084   3.261   3.667  0.00  0.00    -0.387 N 
ATOM     35  H   UNL     1      -3.294   3.586   4.238  0.00  0.00    +0.157 HD
ENDBRANCH  27  29
ENDBRANCH  22  23
ENDBRANCH   4  22
TORSDOF 7
