REMARK  Name = ZINC49554799
REMARK  10 active torsions:
REMARK  status: ('A' for Active; 'I' for Inactive)
REMARK    1  A    between atoms: C_1  and  C_2
REMARK    2  A    between atoms: C_2  and  C_4
REMARK    3  A    between atoms: C_2  and  N_9
REMARK    4  A    between atoms: C_4  and  C_5
REMARK    5  A    between atoms: C_5  and  N_6
REMARK    6  A    between atoms: N_6  and  C_7
REMARK    7  A    between atoms: N_6  and  C_8
REMARK    8  A    between atoms: N_9  and  S_10
REMARK    9  A    between atoms: S_10  and  C_13
REMARK   10  A    between atoms: C_16  and  N_20
REMARK                            x       y       z     vdW  Elec       q    Type
REMARK                         _______ _______ _______ _____ _____    ______ ____
ROOT
ATOM      1  S   UNL     1       2.300  -0.849  -1.146  0.00  0.00    +0.061 S 
ATOM      2  O   UNL     1       2.660  -1.296  -2.446  0.00  0.00    -0.153 OA
ATOM      3  O   UNL     1       2.947   0.245  -0.511  0.00  0.00    -0.153 OA
ENDROOT
BRANCH   1   4
ATOM      4  C   UNL     1       2.478  -2.233  -0.071  0.00  0.00    +0.142 A 
ATOM      5  C   UNL     1       2.680  -2.034   1.284  0.00  0.00    +0.070 A 
ATOM      6  C   UNL     1       2.819  -3.118   2.130  0.00  0.00    +0.044 A 
ATOM      7  C   UNL     1       2.756  -4.408   1.620  0.00  0.00    +0.027 A 
ATOM      8  C   UNL     1       2.553  -4.605   0.260  0.00  0.00    +0.044 A 
ATOM      9  C   UNL     1       2.409  -3.518  -0.581  0.00  0.00    +0.070 A 
ATOM     10 CL   UNL     1       2.148  -3.763  -2.280  0.00  0.00    -0.081 Cl
ATOM     11 CL   UNL     1       2.759  -0.421   1.921  0.00  0.00    -0.081 Cl
BRANCH   7  12
ATOM     12  N   UNL     1       2.897  -5.505   2.472  0.00  0.00    -0.358 N 
ATOM     13  H   UNL     1       3.039  -5.367   3.422  0.00  0.00    +0.142 HD
ATOM     14  H   UNL     1       2.853  -6.406   2.115  0.00  0.00    +0.142 HD
ENDBRANCH   7  12
ENDBRANCH   1   4
BRANCH   1  15
ATOM     15  N   UNL     1       0.688  -0.476  -1.203  0.00  0.00    -0.187 NA
ATOM     16  H   UNL     1       0.197  -0.571  -2.035  0.00  0.00    +0.148 HD
BRANCH  15  18
ATOM     17  C   UNL     1      -0.019   1.526   0.010  0.00  0.00    +0.025 C 
ATOM     18  C   UNL     1       0.002  -0.004   0.002  0.00  0.00    +0.072 C 
BRANCH  18  19
ATOM     19  C   UNL     1      -1.433  -0.534   0.013  0.00  0.00    +0.001 C 
BRANCH  19  20
ATOM     20  C   UNL     1      -1.413  -2.059   0.130  0.00  0.00    -0.078 C 
BRANCH  20  21
ATOM     21  N   UNL     1      -2.791  -2.567   0.141  0.00  0.00    +0.376 N 
ATOM     22  C   UNL     1      -3.427  -2.286  -1.153  0.00  0.00    -0.097 C 
ATOM     23  C   UNL     1      -2.776  -4.018   0.373  0.00  0.00    -0.097 C 
ATOM     24  H   UNL     1      -3.312  -2.114   0.877  0.00  0.00    -0.083 HD
ENDBRANCH  20  21
ENDBRANCH  19  20
ENDBRANCH  18  19
ENDBRANCH  15  18
ENDBRANCH   1  15
TORSDOF 7
