REMARK  Name = ZINC04161157
REMARK  13 active torsions:
REMARK  status: ('A' for Active; 'I' for Inactive)
REMARK    1  A    between atoms: C_1  and  C_2
REMARK    2  A    between atoms: C_2  and  C_3
REMARK    3  A    between atoms: C_3  and  C_5
REMARK    4  A    between atoms: C_3  and  N_12
REMARK    5  A    between atoms: N_7  and  C_8
REMARK    6  A    between atoms: C_8  and  C_9
REMARK    7  A    between atoms: C_8  and  C_10
REMARK    8  A    between atoms: C_8  and  C_11
REMARK    9  A    between atoms: N_12  and  C_13
REMARK   10  A    between atoms: C_13  and  C_14
REMARK   11  A    between atoms: C_19  and  C_21
REMARK   12  A    between atoms: C_22  and  N_29
REMARK   13  A    between atoms: C_23  and  C_26
REMARK                            x       y       z     vdW  Elec       q    Type
REMARK                         _______ _______ _______ _____ _____    ______ ____
ROOT
ATOM      1  N   UNL     1      -2.482   1.196  -0.040  0.00  0.00    -0.278 N 
ATOM      2  C   UNL     1      -3.486   1.475   0.815  0.00  0.00    +0.258 C 
ATOM      3  O   UNL     1      -3.377   2.398   1.602  0.00  0.00    -0.269 OA
ENDROOT
BRANCH   2   4
ATOM      4  C   UNL     1      -4.708   0.668   0.798  0.00  0.00    +0.115 A 
ATOM      5  C   UNL     1      -5.891   0.840   1.518  0.00  0.00    +0.076 A 
ATOM      6  C   UNL     1      -6.839  -0.142   1.229  0.00  0.00    +0.155 A 
ATOM      7  N   UNL     1      -6.547  -1.082   0.358  0.00  0.00    -0.203 NA
ATOM      8  S   UNL     1      -5.084  -0.790  -0.152  0.00  0.00    +0.019 S 
BRANCH   6   9
ATOM      9  C   UNL     1      -8.155  -0.126   1.895  0.00  0.00    +0.262 C 
ATOM     10  O   UNL     1      -8.418   0.746   2.700  0.00  0.00    -0.269 OA
ATOM     11  N   UNL     1      -9.065  -1.078   1.611  0.00  0.00    -0.324 N 
ATOM     12  H   UNL     1      -8.855  -1.774   0.968  0.00  0.00    +0.145 HD
ATOM     13  H   UNL     1      -9.931  -1.068   2.049  0.00  0.00    +0.145 HD
ENDBRANCH   6   9
BRANCH   5  14
ATOM     14  N   UNL     1      -6.102   1.873   2.422  0.00  0.00    -0.355 N 
ATOM     15  H   UNL     1      -5.404   2.527   2.581  0.00  0.00    +0.142 HD
ATOM     16  H   UNL     1      -6.947   1.940   2.893  0.00  0.00    +0.142 HD
ENDBRANCH   5  14
ENDBRANCH   2   4
BRANCH   1  17
ATOM     17  C   UNL     1      -1.226   1.946   0.036  0.00  0.00    +0.162 C 
BRANCH  17  18
ATOM     18  C   UNL     1      -0.110   1.015   0.436  0.00  0.00    +0.234 C 
ATOM     19  O   UNL     1      -0.267  -0.185   0.367  0.00  0.00    -0.274 OA
ATOM     20  N   UNL     1       1.065   1.518   0.864  0.00  0.00    -0.309 N 
ATOM     21  H   UNL     1       1.191   2.478   0.919  0.00  0.00    +0.149 HD
BRANCH  20  22
ATOM     22  C   UNL     1       2.152   0.613   1.247  0.00  0.00    +0.026 C 
ATOM     23  C   UNL     1       2.538  -0.257   0.050  0.00  0.00    +0.031 C 
ATOM     24  C   UNL     1       3.365   1.433   1.693  0.00  0.00    +0.031 C 
ATOM     25  C   UNL     1       1.690  -0.281   2.400  0.00  0.00    +0.031 C 
ENDBRANCH  20  22
ENDBRANCH  17  18
BRANCH  17  27
ATOM     26  C   UNL     1      -1.977   3.603  -1.676  0.00  0.00    +0.006 C 
ATOM     27  C   UNL     1      -0.914   2.558  -1.331  0.00  0.00    +0.028 C 
ENDBRANCH  17  27
ENDBRANCH   1  17
BRANCH   1  28
ATOM     28  C   UNL     1      -2.648   0.144  -1.046  0.00  0.00    +0.183 C 
BRANCH  28  29
ATOM     29  C   UNL     1      -3.393   0.697  -2.233  0.00  0.00    +0.122 A 
ATOM     30  C   UNL     1      -2.835   1.166  -3.364  0.00  0.00    +0.046 A 
ATOM     31  C   UNL     1      -3.895   1.581  -4.203  0.00  0.00    +0.041 A 
ATOM     32  C   UNL     1      -5.038   1.341  -3.534  0.00  0.00    +0.195 A 
ATOM     33  O   UNL     1      -4.728   0.800  -2.345  0.00  0.00    -0.466 OA
ENDBRANCH  28  29
ENDBRANCH   1  28
TORSDOF 9
