REMARK  Name = ZINC40782583
REMARK  9 active torsions:
REMARK  status: ('A' for Active; 'I' for Inactive)
REMARK    1  A    between atoms: C_1  and  C_2
REMARK    2  A    between atoms: C_5  and  S_8
REMARK    3  A    between atoms: S_8  and  N_11
REMARK    4  A    between atoms: N_11  and  N_12
REMARK    5  A    between atoms: C_14  and  N_28
REMARK    6  A    between atoms: C_15  and  N_19
REMARK    7  A    between atoms: N_19  and  C_20
REMARK    8  A    between atoms: C_23  and  O_26
REMARK    9  A    between atoms: O_26  and  C_27
REMARK                            x       y       z     vdW  Elec       q    Type
REMARK                         _______ _______ _______ _____ _____    ______ ____
ROOT
ATOM      1  N   UNL     1       2.822  -4.626   0.752  0.00  0.00    -0.244 N 
ATOM      2  C   UNL     1       3.357  -5.591   1.596  0.00  0.00    +0.159 A 
ATOM      3  C   UNL     1       4.218  -5.227   2.634  0.00  0.00    +0.107 A 
ATOM      4  C   UNL     1       4.727  -6.237   3.452  0.00  0.00    +0.149 A 
ATOM      5  N   UNL     1       4.376  -7.499   3.214  0.00  0.00    -0.219 NA
ATOM      6  C   UNL     1       3.561  -7.799   2.224  0.00  0.00    +0.225 A 
ATOM      7  N   UNL     1       3.054  -6.876   1.431  0.00  0.00    -0.218 NA
ATOM      8  H   UNL     1       3.048  -3.691   0.879  0.00  0.00    +0.169 HD
ENDROOT
BRANCH   3   9
ATOM      9  N   UNL     1       4.562  -3.883   2.848  0.00  0.00    -0.353 N 
ATOM     10  H   UNL     1       4.201  -3.192   2.271  0.00  0.00    +0.143 HD
ATOM     11  H   UNL     1       5.161  -3.645   3.572  0.00  0.00    +0.143 HD
ENDBRANCH   3   9
BRANCH   1  12
ATOM     12  N   UNL     1       1.955  -5.002  -0.282  0.00  0.00    -0.109 NA
ATOM     13  H   UNL     1       2.234  -5.666  -0.931  0.00  0.00    +0.172 HD
BRANCH  12  14
ATOM     14  S   UNL     1       0.453  -4.313  -0.395  0.00  0.00    +0.074 S 
ATOM     15  O   UNL     1      -0.175  -4.498   0.866  0.00  0.00    -0.152 OA
ATOM     16  O   UNL     1      -0.119  -4.784  -1.607  0.00  0.00    -0.152 OA
BRANCH  14  21
ATOM     17  C   UNL     1       1.259   1.629  -1.064  0.00  0.00    +0.044 C 
ATOM     18  C   UNL     1       1.058   0.145  -0.897  0.00  0.00    -0.050 A 
ATOM     19  C   UNL     1       0.993  -0.673  -2.009  0.00  0.00    +0.005 A 
ATOM     20  C   UNL     1       0.809  -2.035  -1.856  0.00  0.00    +0.029 A 
ATOM     21  C   UNL     1       0.689  -2.578  -0.591  0.00  0.00    +0.107 A 
ATOM     22  C   UNL     1       0.755  -1.760   0.522  0.00  0.00    +0.029 A 
ATOM     23  C   UNL     1       0.944  -0.399   0.369  0.00  0.00    +0.005 A 
ENDBRANCH  14  21
ENDBRANCH  12  14
ENDBRANCH   1  12
BRANCH   4  24
ATOM     24  N   UNL     1       5.589  -5.929   4.499  0.00  0.00    -0.298 N 
ATOM     25  H   UNL     1       5.774  -5.003   4.718  0.00  0.00    +0.154 HD
BRANCH  24  26
ATOM     26  C   UNL     1       6.188  -6.957   5.237  0.00  0.00    +0.033 A 
ATOM     27  C   UNL     1       6.400  -6.801   6.601  0.00  0.00    +0.027 A 
ATOM     28  C   UNL     1       6.991  -7.815   7.328  0.00  0.00    +0.047 A 
ATOM     29  C   UNL     1       7.373  -8.989   6.697  0.00  0.00    +0.120 A 
ATOM     30  C   UNL     1       7.162  -9.146   5.335  0.00  0.00    +0.047 A 
ATOM     31  C   UNL     1       6.566  -8.136   4.607  0.00  0.00    +0.027 A 
BRANCH  29  32
ATOM     32  O   UNL     1       7.956  -9.988   7.414  0.00  0.00    -0.495 OA
ATOM     33  C   UNL     1       8.324 -11.170   6.700  0.00  0.00    +0.277 C 
ENDBRANCH  29  32
ENDBRANCH  24  26
ENDBRANCH   4  24
TORSDOF 7
