REMARK  Name = ZINC59502829
REMARK  6 active torsions:
REMARK  status: ('A' for Active; 'I' for Inactive)
REMARK    1  A    between atoms: C_3  and  S_17
REMARK    2  A    between atoms: C_6  and  C_7
REMARK    3  A    between atoms: C_11  and  N_16
REMARK    4  A    between atoms: S_17  and  C_20
REMARK    5  A    between atoms: C_23  and  C_26
REMARK    6  A    between atoms: C_30  and  N_35
REMARK                            x       y       z     vdW  Elec       q    Type
REMARK                         _______ _______ _______ _____ _____    ______ ____
ROOT
ATOM      1  S   UNL     1       3.889   2.325  -0.024  0.00  0.00    +0.025 S 
ATOM      2  O   UNL     1       4.872   1.468  -0.589  0.00  0.00    -0.164 OA
ATOM      3  O   UNL     1       3.592   3.604  -0.565  0.00  0.00    -0.164 OA
ENDROOT
BRANCH   1   6
ATOM      4  C   UNL     1      -0.017   1.391   0.010  0.00  0.00    +0.015 A 
ATOM      5  C   UNL     1       1.170   2.095   0.002  0.00  0.00    +0.028 A 
ATOM      6  C   UNL     1       2.378   1.419  -0.013  0.00  0.00    +0.094 A 
ATOM      7  C   UNL     1       2.403   0.036  -0.022  0.00  0.00    +0.028 A 
ATOM      8  C   UNL     1       1.224  -0.679  -0.014  0.00  0.00    +0.015 A 
ATOM      9  C   UNL     1       0.002  -0.004   0.002  0.00  0.00    +0.037 A 
BRANCH   9  10
ATOM     10  C   UNL     1      -1.266  -0.764   0.011  0.00  0.00    +0.228 A 
ATOM     11  N   UNL     1      -1.358  -2.069   0.010  0.00  0.00    -0.209 NA
ATOM     12  C   UNL     1      -2.672  -2.414   0.019  0.00  0.00    +0.112 A 
ATOM     13  C   UNL     1      -3.346  -3.638   0.023  0.00  0.00    +0.054 A 
ATOM     14  C   UNL     1      -4.729  -3.657   0.033  0.00  0.00    +0.027 A 
ATOM     15  C   UNL     1      -5.448  -2.463   0.039  0.00  0.00    +0.026 A 
ATOM     16  C   UNL     1      -4.790  -1.252   0.036  0.00  0.00    +0.050 A 
ATOM     17  C   UNL     1      -3.404  -1.216   0.027  0.00  0.00    +0.156 A 
ATOM     18  O   UNL     1      -2.495  -0.214   0.026  0.00  0.00    -0.435 OA
BRANCH  14  19
ATOM     19  N   UNL     1      -5.409  -4.879   0.036  0.00  0.00    -0.358 N 
ATOM     20  H   UNL     1      -4.910  -5.712   0.031  0.00  0.00    +0.142 HD
ATOM     21  H   UNL     1      -6.378  -4.895   0.043  0.00  0.00    +0.142 HD
ENDBRANCH  14  19
ENDBRANCH   9  10
ENDBRANCH   1   6
BRANCH   1  22
ATOM     22  C   UNL     1       4.353   2.583   1.657  0.00  0.00    +0.094 A 
ATOM     23  C   UNL     1       3.913   3.711   2.327  0.00  0.00    +0.028 A 
ATOM     24  C   UNL     1       4.272   3.919   3.642  0.00  0.00    +0.015 A 
ATOM     25  C   UNL     1       5.081   2.990   4.297  0.00  0.00    +0.037 A 
ATOM     26  C   UNL     1       5.521   1.854   3.615  0.00  0.00    +0.015 A 
ATOM     27  C   UNL     1       5.151   1.655   2.301  0.00  0.00    +0.028 A 
BRANCH  25  28
ATOM     28  C   UNL     1       5.470   3.207   5.707  0.00  0.00    +0.228 A 
ATOM     29  N   UNL     1       6.227   2.402   6.409  0.00  0.00    -0.209 NA
ATOM     30  C   UNL     1       6.373   2.917   7.656  0.00  0.00    +0.112 A 
ATOM     31  C   UNL     1       7.057   2.495   8.799  0.00  0.00    +0.054 A 
ATOM     32  C   UNL     1       7.010   3.263   9.948  0.00  0.00    +0.027 A 
ATOM     33  C   UNL     1       6.285   4.452   9.968  0.00  0.00    +0.026 A 
ATOM     34  C   UNL     1       5.607   4.876   8.845  0.00  0.00    +0.050 A 
ATOM     35  C   UNL     1       5.645   4.117   7.685  0.00  0.00    +0.156 A 
ATOM     36  O   UNL     1       5.103   4.264   6.454  0.00  0.00    -0.435 OA
BRANCH  32  37
ATOM     37  N   UNL     1       7.694   2.844  11.094  0.00  0.00    -0.358 N 
ATOM     38  H   UNL     1       8.199   2.016  11.082  0.00  0.00    +0.142 HD
ATOM     39  H   UNL     1       7.662   3.381  11.901  0.00  0.00    +0.142 HD
ENDBRANCH  32  37
ENDBRANCH  25  28
ENDBRANCH   1  22
TORSDOF 6
