REMARK  Name = ZINC34925087
REMARK  9 active torsions:
REMARK  status: ('A' for Active; 'I' for Inactive)
REMARK    1  A    between atoms: C_1  and  C_2
REMARK    2  A    between atoms: C_7  and  N_8
REMARK    3  A    between atoms: N_8  and  C_9
REMARK    4  A    between atoms: C_9  and  C_10
REMARK    5  A    between atoms: C_13  and  S_21
REMARK    6  A    between atoms: N_14  and  C_15
REMARK    7  A    between atoms: S_21  and  C_22
REMARK    8  A    between atoms: C_22  and  C_23
REMARK    9  A    between atoms: N_25  and  N_26
REMARK                            x       y       z     vdW  Elec       q    Type
REMARK                         _______ _______ _______ _____ _____    ______ ____
ROOT
ATOM      1  C   UNL     1       0.045   0.214   4.831  0.00  0.00    +0.156 A 
ATOM      2  N   UNL     1       1.093   0.730   5.408  0.00  0.00    -0.132 NA
ATOM      3  N   UNL     1       0.733   1.519   6.356  0.00  0.00    -0.122 NA
ATOM      4  C   UNL     1      -0.578   1.551   6.438  0.00  0.00    +0.197 A 
ATOM      5  N   UNL     1      -1.059   0.722   5.463  0.00  0.00    -0.273 N 
ENDROOT
BRANCH   5   6
ATOM      6  C   UNL     1      -2.404   0.447   5.171  0.00  0.00    +0.050 A 
ATOM      7  C   UNL     1      -2.942   0.826   3.950  0.00  0.00    +0.026 A 
ATOM      8  C   UNL     1      -4.266   0.554   3.666  0.00  0.00    +0.002 A 
ATOM      9  C   UNL     1      -5.055  -0.095   4.598  0.00  0.00    +0.000 A 
ATOM     10  C   UNL     1      -4.522  -0.473   5.816  0.00  0.00    +0.002 A 
ATOM     11  C   UNL     1      -3.196  -0.210   6.103  0.00  0.00    +0.026 A 
ENDBRANCH   5   6
BRANCH   1  12
ATOM     12  C   UNL     1       0.047  -0.757   3.679  0.00  0.00    +0.178 C 
BRANCH  12  13
ATOM     13  N   UNL     1       0.025  -0.016   2.415  0.00  0.00    -0.336 N 
ATOM     14  H   UNL     1       0.012   0.954   2.422  0.00  0.00    +0.147 HD
BRANCH  13  21
ATOM     15  C   UNL     1      -0.018   1.503   0.010  0.00  0.00    +0.045 C 
ATOM     16  C   UNL     1       0.002  -0.004   0.002  0.00  0.00    -0.029 A 
ATOM     17  C   UNL     1       0.006  -0.689  -1.198  0.00  0.00    +0.019 A 
ATOM     18  C   UNL     1       0.024  -2.072  -1.206  0.00  0.00    +0.014 A 
ATOM     19  C   UNL     1       0.039  -2.774  -0.014  0.00  0.00    +0.016 A 
ATOM     20  C   UNL     1       0.035  -2.095   1.189  0.00  0.00    +0.024 A 
ATOM     21  C   UNL     1       0.023  -0.706   1.200  0.00  0.00    +0.030 A 
ATOM     22  I   UNL     1       0.030  -3.106  -3.028  0.00  0.00    -0.044 I 
ENDBRANCH  13  21
ENDBRANCH  12  13
ENDBRANCH   1  12
BRANCH   4  23
ATOM     23  S   UNL     1      -1.534   2.489   7.583  0.00  0.00    -0.076 S 
BRANCH  23  24
ATOM     24  C   UNL     1      -0.294   3.363   8.577  0.00  0.00    +0.174 C 
BRANCH  24  25
ATOM     25  C   UNL     1      -0.987   4.214   9.610  0.00  0.00    +0.237 C 
ATOM     26  O   UNL     1      -2.199   4.229   9.669  0.00  0.00    -0.274 OA
ATOM     27  N   UNL     1      -0.262   4.959  10.467  0.00  0.00    -0.253 N 
ATOM     28  H   UNL     1       0.707   4.947  10.420  0.00  0.00    +0.169 HD
BRANCH  27  29
ATOM     29  N   UNL     1      -0.890   5.730  11.403  0.00  0.00    -0.254 NA
ATOM     30  H   UNL     1      -1.506   5.173  11.976  0.00  0.00    +0.140 HD
ATOM     31  H   UNL     1      -0.220   6.228  11.971  0.00  0.00    +0.140 HD
ENDBRANCH  27  29
ENDBRANCH  24  25
ENDBRANCH  23  24
ENDBRANCH   4  23
TORSDOF 8
