REMARK  Name = ZINC15442297
REMARK  12 active torsions:
REMARK  status: ('A' for Active; 'I' for Inactive)
REMARK    1  A    between atoms: C_1  and  C_2
REMARK    2  A    between atoms: C_2  and  N_3
REMARK    3  A    between atoms: N_3  and  C_4
REMARK    4  A    between atoms: N_3  and  C_12
REMARK    5  A    between atoms: C_4  and  C_5
REMARK    6  A    between atoms: N_7  and  C_8
REMARK    7  A    between atoms: C_8  and  C_9
REMARK    8  A    between atoms: C_8  and  C_10
REMARK    9  A    between atoms: C_8  and  C_11
REMARK   10  A    between atoms: C_12  and  C_13
REMARK   11  A    between atoms: N_15  and  N_16
REMARK   12  A    between atoms: C_22  and  C_25
REMARK                            x       y       z     vdW  Elec       q    Type
REMARK                         _______ _______ _______ _____ _____    ______ ____
ROOT
ATOM      1  C   UNL     1       1.941   1.538  -1.082  0.00  0.00    +0.213 C 
ATOM      2  O   UNL     1       0.886   2.136  -1.077  0.00  0.00    -0.276 OA
ATOM      3  N   UNL     1       3.101   2.218  -0.985  0.00  0.00    -0.225 N 
ATOM      4  H   UNL     1       3.945   1.739  -0.989  0.00  0.00    +0.173 HD
ENDROOT
BRANCH   3   5
ATOM      5  N   UNL     1       3.088   3.615  -0.880  0.00  0.00    -0.137 N 
ATOM      6  C   UNL     1       3.406   4.454  -1.887  0.00  0.00    +0.263 C 
ATOM      7  O   UNL     1       3.744   4.155  -3.013  0.00  0.00    -0.271 OA
ATOM      8  C   UNL     1       3.251   5.845  -1.317  0.00  0.00    +0.114 C 
ATOM      9  C   UNL     1       2.183   6.618  -2.084  0.00  0.00    +0.035 C 
ATOM     10  C   UNL     1       2.021   8.012  -1.472  0.00  0.00    +0.006 C 
ATOM     11  C   UNL     1       3.357   8.755  -1.537  0.00  0.00    -0.014 C 
ATOM     12  C   UNL     1       4.412   7.980  -0.744  0.00  0.00    +0.006 C 
ATOM     13  C   UNL     1       4.583   6.586  -1.353  0.00  0.00    +0.035 C 
ATOM     14  C   UNL     1       3.193  10.152  -0.936  0.00  0.00    +0.007 C 
ATOM     15  N   UNL     1       2.826   5.617   0.069  0.00  0.00    -0.284 N 
ATOM     16  C   UNL     1       2.753   4.282   0.231  0.00  0.00    +0.326 C 
ATOM     17  O   UNL     1       2.424   3.744   1.270  0.00  0.00    -0.251 OA
ATOM     18  H   UNL     1       2.632   6.295   0.736  0.00  0.00    +0.151 HD
ENDBRANCH   3   5
BRANCH   1  19
ATOM     19  C   UNL     1       1.955   0.036  -1.195  0.00  0.00    +0.021 C 
BRANCH  19  20
ATOM     20  N   UNL     1       0.590  -0.450  -1.439  0.00  0.00    +0.391 N 
ATOM     21  H   UNL     1      -0.029  -0.081  -0.733  0.00  0.00    -0.080 HD
BRANCH  20  23
ATOM     22  C   UNL     1       0.909  -2.378   0.036  0.00  0.00    -0.017 C 
ATOM     23  C   UNL     1       0.575  -1.918  -1.384  0.00  0.00    -0.081 C 
ENDBRANCH  20  23
BRANCH  20  24
ATOM     24  C   UNL     1       0.141  -0.005  -2.765  0.00  0.00    +0.019 C 
BRANCH  24  25
ATOM     25  C   UNL     1      -1.300  -0.397  -2.965  0.00  0.00    +0.197 C 
ATOM     26  O   UNL     1      -1.895  -0.989  -2.090  0.00  0.00    -0.278 OA
ATOM     27  N   UNL     1      -1.928  -0.090  -4.118  0.00  0.00    -0.312 N 
ATOM     28  H   UNL     1      -1.452   0.384  -4.818  0.00  0.00    +0.149 HD
BRANCH  27  29
ATOM     29  C   UNL     1      -3.329  -0.471  -4.312  0.00  0.00    +0.026 C 
ATOM     30  C   UNL     1      -4.191   0.189  -3.235  0.00  0.00    +0.031 C 
ATOM     31  C   UNL     1      -3.796  -0.007  -5.694  0.00  0.00    +0.031 C 
ATOM     32  C   UNL     1      -3.462  -1.992  -4.213  0.00  0.00    +0.031 C 
ENDBRANCH  27  29
ENDBRANCH  24  25
ENDBRANCH  20  24
ENDBRANCH  19  20
ENDBRANCH   1  19
TORSDOF 7
