REMARK  Name = ZINC63314168
REMARK  7 active torsions:
REMARK  status: ('A' for Active; 'I' for Inactive)
REMARK    1  A    between atoms: C_1  and  O_2
REMARK    2  A    between atoms: O_2  and  C_3
REMARK    3  A    between atoms: C_9  and  C_12
REMARK    4  A    between atoms: C_12  and  C_13
REMARK    5  A    between atoms: C_13  and  N_14
REMARK    6  A    between atoms: C_15  and  C_17
REMARK    7  A    between atoms: C_20  and  N_23
REMARK                            x       y       z     vdW  Elec       q    Type
REMARK                         _______ _______ _______ _____ _____    ______ ____
ROOT
ATOM      1  C   UNL     1       2.196  -8.494  -1.704  0.00  0.00    +0.037 A 
ATOM      2  C   UNL     1       0.896  -8.987  -1.561  0.00  0.00    +0.015 A 
ATOM      3  C   UNL     1       0.488 -10.074  -2.301  0.00  0.00    +0.025 A 
ATOM      4  C   UNL     1       1.369 -10.681  -3.190  0.00  0.00    +0.045 A 
ATOM      5  C   UNL     1       2.663 -10.194  -3.335  0.00  0.00    +0.025 A 
ATOM      6  C   UNL     1       3.076  -9.104  -2.602  0.00  0.00    +0.015 A 
ENDROOT
BRANCH   4   7
ATOM      7  N   UNL     1       0.952 -11.785  -3.940  0.00  0.00    -0.193 N 
ATOM      8  C   UNL     1       1.692 -12.369  -4.904  0.00  0.00    +0.248 C 
ATOM      9  O   UNL     1       2.809 -12.058  -5.257  0.00  0.00    -0.273 OA
ATOM     10  C   UNL     1       0.841 -13.495  -5.455  0.00  0.00    +0.169 C 
ATOM     11  C   UNL     1       1.518 -14.839  -5.190  0.00  0.00    +0.067 C 
ATOM     12  C   UNL     1       0.514 -15.962  -5.191  0.00  0.00    -0.040 A 
ATOM     13  C   UNL     1       0.998 -17.241  -5.447  0.00  0.00    +0.004 A 
ATOM     14  C   UNL     1       0.150 -18.328  -5.453  0.00  0.00    +0.000 A 
ATOM     15  C   UNL     1      -1.198 -18.150  -5.201  0.00  0.00    +0.000 A 
ATOM     16  C   UNL     1      -1.683 -16.883  -4.951  0.00  0.00    +0.005 A 
ATOM     17  C   UNL     1      -0.830 -15.788  -4.953  0.00  0.00    -0.027 A 
ATOM     18  C   UNL     1      -1.443 -14.428  -4.707  0.00  0.00    +0.145 C 
ATOM     19  N   UNL     1      -0.372 -13.437  -4.608  0.00  0.00    -0.269 N 
ATOM     20  C   UNL     1      -0.232 -12.396  -3.785  0.00  0.00    +0.317 C 
ATOM     21  O   UNL     1      -1.080 -12.041  -2.991  0.00  0.00    -0.252 OA
ENDBRANCH   4   7
BRANCH   1  23
ATOM     22  N   UNL     1       1.786  -6.742  -0.047  0.00  0.00    -0.311 N 
ATOM     23  C   UNL     1       2.636  -7.328  -0.912  0.00  0.00    +0.244 C 
ATOM     24  O   UNL     1       3.766  -6.897  -1.042  0.00  0.00    -0.270 OA
ATOM     25  H   UNL     1       0.885  -7.085   0.057  0.00  0.00    +0.149 HD
BRANCH  22  26
ATOM     26  C   UNL     1       2.223  -5.585   0.739  0.00  0.00    +0.109 C 
BRANCH  26  27
ATOM     27  C   UNL     1       1.076  -5.114   1.636  0.00  0.00    +0.052 C 
BRANCH  27  34
ATOM     28  C   UNL     1       0.665  -0.588   0.975  0.00  0.00    +0.121 A 
ATOM     29  C   UNL     1       1.234   0.203   1.989  0.00  0.00    +0.047 A 
ATOM     30  C   UNL     1       1.850  -0.328   3.066  0.00  0.00    +0.029 A 
ATOM     31  C   UNL     1       1.941  -1.785   3.207  0.00  0.00    +0.043 A 
ATOM     32  N   UNL     1       2.474  -2.544   4.133  0.00  0.00    -0.380 N 
ATOM     33  C   UNL     1       2.273  -3.948   3.758  0.00  0.00    +0.144 C 
ATOM     34  C   UNL     1       1.526  -3.925   2.444  0.00  0.00    -0.040 C 
ATOM     35  C   UNL     1       1.342  -2.620   2.140  0.00  0.00    +0.002 A 
ATOM     36  C   UNL     1       0.692  -1.942   1.014  0.00  0.00    +0.055 A 
ATOM     37  H   UNL     1       2.925  -2.229   4.931  0.00  0.00    +0.160 HD
BRANCH  28  39
ATOM     38  C   UNL     1       0.057   1.456  -0.077  0.00  0.00    +0.277 C 
ATOM     39  O   UNL     1       0.062   0.027  -0.077  0.00  0.00    -0.495 OA
ENDBRANCH  28  39
ENDBRANCH  27  34
ENDBRANCH  26  27
ENDBRANCH  22  26
ENDBRANCH   1  23
TORSDOF 6
