REMARK  Name = ZINC42289193
REMARK  8 active torsions:
REMARK  status: ('A' for Active; 'I' for Inactive)
REMARK    1  A    between atoms: C_1  and  C_2
REMARK    2  A    between atoms: C_2  and  C_4
REMARK    3  A    between atoms: C_2  and  N_14
REMARK    4  A    between atoms: C_7  and  S_10
REMARK    5  A    between atoms: S_10  and  N_13
REMARK    6  A    between atoms: C_15  and  C_17
REMARK    7  A    between atoms: C_17  and  C_19
REMARK    8  A    between atoms: C_17  and  N_20
REMARK                            x       y       z     vdW  Elec       q    Type
REMARK                         _______ _______ _______ _____ _____    ______ ____
ROOT
ATOM      1  N   UNL     1      -1.372  -0.511   0.012  0.00  0.00    -0.310 N 
ATOM      2  C   UNL     1      -2.029  -0.655   1.181  0.00  0.00    +0.200 C 
ATOM      3  O   UNL     1      -1.481  -0.365   2.224  0.00  0.00    -0.278 OA
ATOM      4  H   UNL     1      -1.810  -0.743  -0.822  0.00  0.00    +0.149 HD
ENDROOT
BRANCH   1   6
ATOM      5  C   UNL     1      -0.019   1.526   0.010  0.00  0.00    +0.033 C 
ATOM      6  C   UNL     1       0.002  -0.004   0.002  0.00  0.00    +0.100 C 
BRANCH   6   7
ATOM      7  C   UNL     1       0.707  -0.490  -1.238  0.00  0.00    -0.027 A 
ATOM      8  C   UNL     1       0.038  -0.522  -2.447  0.00  0.00    +0.007 A 
ATOM      9  C   UNL     1       0.685  -0.967  -3.584  0.00  0.00    +0.029 A 
ATOM     10  C   UNL     1       2.002  -1.381  -3.513  0.00  0.00    +0.105 A 
ATOM     11  C   UNL     1       2.672  -1.349  -2.304  0.00  0.00    +0.029 A 
ATOM     12  C   UNL     1       2.026  -0.899  -1.167  0.00  0.00    +0.007 A 
BRANCH  10  13
ATOM     13  S   UNL     1       2.826  -1.951  -4.962  0.00  0.00    +0.056 S 
ATOM     14  O   UNL     1       3.882  -2.794  -4.524  0.00  0.00    -0.153 OA
ATOM     15  O   UNL     1       1.815  -2.397  -5.855  0.00  0.00    -0.153 OA
BRANCH  13  16
ATOM     16  N   UNL     1       3.535  -0.633  -5.671  0.00  0.00    -0.204 NA
ATOM     17  H   UNL     1       3.443   0.244  -5.267  0.00  0.00    +0.144 HD
ATOM     18  H   UNL     1       4.043  -0.738  -6.491  0.00  0.00    +0.144 HD
ENDBRANCH  13  16
ENDBRANCH  10  13
ENDBRANCH   6   7
ENDBRANCH   1   6
BRANCH   2  19
ATOM     19  C   UNL     1      -3.442  -1.177   1.191  0.00  0.00    +0.016 C 
ATOM     20  C   UNL     1      -3.474  -2.577   0.575  0.00  0.00    -0.004 C 
BRANCH  19  21
ATOM     21  N   UNL     1      -3.930  -1.240   2.575  0.00  0.00    +0.387 N 
ATOM     22  C   UNL     1      -3.889   0.103   3.170  0.00  0.00    -0.078 C 
ATOM     23  C   UNL     1      -4.726   0.144   4.447  0.00  0.00    -0.019 C 
ATOM     24  C   UNL     1      -3.951  -0.525   5.588  0.00  0.00    -0.002 C 
ATOM     25  C   UNL     1      -3.987  -2.040   5.380  0.00  0.00    -0.000 C 
ATOM     26  C   UNL     1      -5.403  -2.456   4.978  0.00  0.00    -0.002 C 
ATOM     27  C   UNL     1      -5.401  -2.950   3.533  0.00  0.00    -0.019 C 
ATOM     28  C   UNL     1      -5.309  -1.749   2.584  0.00  0.00    -0.078 C 
ATOM     29  H   UNL     1      -3.341  -1.861   3.110  0.00  0.00    -0.081 HD
ENDBRANCH  19  21
ENDBRANCH   2  19
TORSDOF 6
