REMARK  Name = ZINC51145733
REMARK  6 active torsions:
REMARK  status: ('A' for Active; 'I' for Inactive)
REMARK    1  A    between atoms: C_1  and  C_2
REMARK    2  A    between atoms: C_8  and  N_10
REMARK    3  A    between atoms: N_10  and  C_11
REMARK    4  A    between atoms: N_10  and  C_12
REMARK    5  A    between atoms: C_12  and  C_13
REMARK    6  A    between atoms: N_22  and  N_23
REMARK                            x       y       z     vdW  Elec       q    Type
REMARK                         _______ _______ _______ _____ _____    ______ ____
ROOT
ATOM      1  C   UNL     1       4.179   0.144  -0.051  0.00  0.00    +0.116 A 
ATOM      2  N   UNL     1       4.334   1.300  -0.672  0.00  0.00    -0.218 NA
ATOM      3  C   UNL     1       5.511   1.895  -0.770  0.00  0.00    +0.144 A 
ATOM      4  C   UNL     1       6.652   1.275  -0.190  0.00  0.00    +0.049 A 
ATOM      5  C   UNL     1       8.035   1.717  -0.161  0.00  0.00    +0.021 A 
ATOM      6  C   UNL     1       8.953   0.957   0.454  0.00  0.00    +0.048 A 
ATOM      7  S   UNL     1       8.010  -0.435   1.048  0.00  0.00    -0.077 S 
ATOM      8  C   UNL     1       6.409   0.043   0.455  0.00  0.00    +0.113 A 
ATOM      9  N   UNL     1       5.199  -0.477   0.511  0.00  0.00    -0.227 NA
ATOM     10  N   UNL     1       5.631   3.105  -1.429  0.00  0.00    -0.267 N 
ATOM     11  H   UNL     1       6.497   3.536  -1.498  0.00  0.00    +0.167 HD
ENDROOT
BRANCH  10  12
ATOM     12  N   UNL     1       4.529   3.693  -1.983  0.00  0.00    -0.255 NA
ATOM     13  H   UNL     1       4.771   4.566  -2.428  0.00  0.00    +0.140 HD
ATOM     14  H   UNL     1       4.075   3.070  -2.634  0.00  0.00    +0.140 HD
ENDBRANCH  10  12
BRANCH   1  15
ATOM     15  C   UNL     1       2.808  -0.476   0.022  0.00  0.00    -0.001 C 
BRANCH  15  16
ATOM     16  N   UNL     1       2.120  -0.002   1.231  0.00  0.00    +0.385 N 
ATOM     17  C   UNL     1       2.831  -0.489   2.421  0.00  0.00    -0.095 C 
ATOM     18  H   UNL     1       2.107   1.006   1.237  0.00  0.00    -0.081 HD
BRANCH  16  25
ATOM     19  C   UNL     1      -0.019   1.526   0.010  0.00  0.00    +0.006 C 
ATOM     20  C   UNL     1       0.002  -0.004   0.002  0.00  0.00    -0.028 C 
ATOM     21  C   UNL     1      -1.433  -0.534   0.013  0.00  0.00    +0.002 C 
ATOM     22  C   UNL     1      -2.149  -0.040   1.272  0.00  0.00    +0.000 C 
ATOM     23  C   UNL     1      -1.409  -0.547   2.511  0.00  0.00    -0.002 C 
ATOM     24  C   UNL     1       0.026  -0.018   2.500  0.00  0.00    -0.015 C 
ATOM     25  C   UNL     1       0.742  -0.511   1.242  0.00  0.00    -0.065 C 
ENDBRANCH  16  25
ENDBRANCH  15  16
ENDBRANCH   1  15
TORSDOF 4
