REMARK  Name = ZINC43742902
REMARK  17 active torsions:
REMARK  status: ('A' for Active; 'I' for Inactive)
REMARK    1  A    between atoms: C_1  and  C_2
REMARK    2  A    between atoms: C_11  and  O_22
REMARK    3  A    between atoms: C_12  and  C_21
REMARK    4  A    between atoms: C_14  and  O_20
REMARK    5  A    between atoms: C_16  and  O_19
REMARK    6  A    between atoms: C_23  and  O_40
REMARK    7  A    between atoms: C_26  and  C_28
REMARK    8  A    between atoms: C_28  and  C_29
REMARK    9  A    between atoms: C_28  and  C_30
REMARK   10  A    between atoms: C_28  and  O_39
REMARK   11  A    between atoms: C_30  and  C_32
REMARK   12  A    between atoms: C_30  and  O_38
REMARK   13  A    between atoms: C_32  and  C_33
REMARK   14  A    between atoms: C_33  and  C_34
REMARK   15  A    between atoms: C_34  and  C_35
REMARK   16  A    between atoms: C_34  and  C_36
REMARK   17  A    between atoms: C_34  and  O_37
REMARK                            x       y       z     vdW  Elec       q    Type
REMARK                         _______ _______ _______ _____ _____    ______ ____
ROOT
ATOM      1  C   UNL     1       0.057   2.889   0.997  0.00  0.00    +0.015 C 
ATOM      2  C   UNL     1       0.586   1.460   1.131  0.00  0.00    +0.006 C 
ATOM      3  C   UNL     1       1.367   1.092  -0.110  0.00  0.00    +0.011 C 
ATOM      4  C   UNL     1       2.361   2.234  -0.378  0.00  0.00    +0.009 C 
ATOM      5  C   UNL     1       3.301   2.469   0.803  0.00  0.00    +0.027 C 
ATOM      6  C   UNL     1       2.562   2.499   2.114  0.00  0.00    -0.031 C 
ATOM      7  C   UNL     1       2.765   3.410   3.059  0.00  0.00    +0.051 C 
ATOM      8  C   UNL     1       3.766   4.464   2.858  0.00  0.00    +0.188 C 
ATOM      9  O   UNL     1       3.740   5.497   3.495  0.00  0.00    -0.290 OA
ATOM     10  C   UNL     1       4.833   4.200   1.816  0.00  0.00    +0.136 C 
ATOM     11  C   UNL     1       4.129   3.717   0.553  0.00  0.00    +0.013 C 
ATOM     12  C   UNL     1       5.182   3.436  -0.522  0.00  0.00    +0.044 C 
ATOM     13  C   UNL     1       6.143   2.356  -0.020  0.00  0.00    +0.144 C 
ATOM     14  C   UNL     1       6.833   2.837   1.257  0.00  0.00    +0.146 C 
ATOM     15  C   UNL     1       5.783   3.116   2.330  0.00  0.00    +0.077 C 
ATOM     16  C   UNL     1       3.208   4.824   0.038  0.00  0.00    +0.015 C 
ATOM     17  C   UNL     1       1.569   1.382   2.333  0.00  0.00    +0.093 C 
ATOM     18  C   UNL     1       0.607   1.526   3.514  0.00  0.00    +0.040 C 
ATOM     19  C   UNL     1      -0.588   0.624   3.096  0.00  0.00    +0.010 C 
ATOM     20  C   UNL     1      -0.547   0.536   1.548  0.00  0.00    +0.032 C 
ENDROOT
BRANCH  14  21
ATOM     21  O   UNL     1       7.568   4.031   0.980  0.00  0.00    -0.389 OA
ATOM     22  H   UNL     1       8.255   3.923   0.307  0.00  0.00    +0.210 HD
ENDBRANCH  14  21
BRANCH  13  23
ATOM     23  O   UNL     1       7.127   2.091  -1.022  0.00  0.00    -0.389 OA
ATOM     24  H   UNL     1       7.771   1.415  -0.772  0.00  0.00    +0.210 HD
ENDBRANCH  13  23
BRANCH  10  25
ATOM     25  O   UNL     1       5.564   5.400   1.558  0.00  0.00    -0.380 OA
ATOM     26  H   UNL     1       6.011   5.763   2.335  0.00  0.00    +0.211 HD
ENDBRANCH  10  25
BRANCH  20  27
ATOM     27  C   UNL     1      -1.872   1.018   0.954  0.00  0.00    +0.092 C 
ATOM     28  C   UNL     1      -1.766   1.045  -0.572  0.00  0.00    +0.044 C 
BRANCH  27  29
ATOM     29  O   UNL     1      -2.920   0.128   1.343  0.00  0.00    -0.386 OA
ATOM     30  H   UNL     1      -3.045   0.060   2.299  0.00  0.00    +0.210 HD
ENDBRANCH  27  29
BRANCH  27  31
ATOM     31  C   UNL     1      -2.181   2.425   1.469  0.00  0.00    +0.146 C 
BRANCH  31  32
ATOM     32  O   UNL     1      -1.876   2.499   2.863  0.00  0.00    -0.389 OA
ATOM     33  H   UNL     1      -2.553   2.112   3.435  0.00  0.00    +0.210 HD
ENDBRANCH  31  32
BRANCH  31  34
ATOM     34  C   UNL     1      -3.664   2.733   1.254  0.00  0.00    +0.037 C 
BRANCH  34  35
ATOM     35  C   UNL     1      -3.947   4.182   1.653  0.00  0.00    +0.037 C 
BRANCH  35  36
ATOM     36  C   UNL     1      -5.430   4.490   1.438  0.00  0.00    +0.061 C 
ATOM     37  C   UNL     1      -5.689   5.972   1.718  0.00  0.00    +0.041 C 
ATOM     38  C   UNL     1      -5.813   4.170  -0.009  0.00  0.00    +0.041 C 
BRANCH  36  39
ATOM     39  O   UNL     1      -6.216   3.693   2.326  0.00  0.00    -0.389 OA
ATOM     40  H   UNL     1      -6.026   3.844   3.262  0.00  0.00    +0.210 HD
ENDBRANCH  36  39
ENDBRANCH  35  36
ENDBRANCH  34  35
ENDBRANCH  31  34
ENDBRANCH  27  31
ENDBRANCH  20  27
BRANCH  17  41
ATOM     41  O   UNL     1       2.240   0.120   2.364  0.00  0.00    -0.384 OA
ATOM     42  H   UNL     1       2.864   0.024   3.096  0.00  0.00    +0.211 HD
ENDBRANCH  17  41
TORSDOF 12
