REMARK  Name = ZINC20713357
REMARK  6 active torsions:
REMARK  status: ('A' for Active; 'I' for Inactive)
REMARK    1  A    between atoms: C_4  and  N_7
REMARK    2  A    between atoms: N_7  and  C_8
REMARK    3  A    between atoms: C_11  and  N_14
REMARK    4  A    between atoms: C_15  and  C_17
REMARK    5  A    between atoms: C_24  and  C_33
REMARK    6  A    between atoms: C_38  and  N_39
REMARK                            x       y       z     vdW  Elec       q    Type
REMARK                         _______ _______ _______ _____ _____    ______ ____
ROOT
ATOM      1  C   UNL     1       2.161  -2.950   0.692  0.00  0.00    +0.058 A 
ATOM      2  C   UNL     1       1.388  -3.828  -0.067  0.00  0.00    +0.015 A 
ATOM      3  C   UNL     1       0.380  -3.332  -0.865  0.00  0.00    +0.001 A 
ATOM      4  C   UNL     1       0.135  -1.972  -0.913  0.00  0.00    +0.006 A 
ATOM      5  C   UNL     1       0.892  -1.083  -0.165  0.00  0.00    -0.019 A 
ATOM      6  C   UNL     1       1.910  -1.565   0.640  0.00  0.00    +0.044 A 
ATOM      7  N   UNL     1       2.705  -0.730   1.410  0.00  0.00    -0.336 N 
ATOM      8  C   UNL     1       2.022   0.516   1.762  0.00  0.00    +0.107 C 
ATOM      9  C   UNL     1       1.601   1.243   0.483  0.00  0.00    +0.029 C 
ATOM     10  C   UNL     1       0.564   0.378  -0.266  0.00  0.00    +0.049 C 
ATOM     11  C   UNL     1      -0.742   0.679   0.434  0.00  0.00    -0.023 C 
ATOM     12  C   UNL     1      -0.666   1.817   1.077  0.00  0.00    -0.030 C 
ATOM     13  C   UNL     1       0.702   2.444   0.891  0.00  0.00    +0.033 C 
ATOM     14  H   UNL     1       3.734  -0.910   1.755  0.00  0.00    +0.147 HD
ENDROOT
BRANCH   8  15
ATOM     15  C   UNL     1       0.801   0.204   2.588  0.00  0.00    +0.003 A 
ATOM     16  C   UNL     1       0.061  -0.934   2.326  0.00  0.00    +0.008 A 
ATOM     17  C   UNL     1      -1.055  -1.223   3.087  0.00  0.00    +0.000 A 
ATOM     18  C   UNL     1      -1.439  -0.368   4.103  0.00  0.00    +0.002 A 
ATOM     19  C   UNL     1      -0.702   0.773   4.362  0.00  0.00    +0.033 A 
ATOM     20  C   UNL     1       0.418   1.059   3.604  0.00  0.00    +0.131 A 
BRANCH  20  21
ATOM     21  N   UNL     1       1.207   2.280   3.881  0.00  0.00    +0.057 N 
ATOM     22  O   UNL     1       0.785   3.113   4.664  0.00  0.00    -0.126 OA
ATOM     23  O   UNL     1       2.277   2.453   3.326  0.00  0.00    -0.126 OA
ENDBRANCH  20  21
ENDBRANCH   8  15
BRANCH   1  25
ATOM     24  N   UNL     1       3.483  -4.796   1.598  0.00  0.00    -0.281 N 
ATOM     25  C   UNL     1       3.242  -3.471   1.548  0.00  0.00    +0.250 C 
ATOM     26  O   UNL     1       3.917  -2.706   2.210  0.00  0.00    -0.270 OA
ATOM     27  H   UNL     1       2.932  -5.481   0.935  0.00  0.00    +0.155 HD
BRANCH  24  31
ATOM     28  C   UNL     1       6.316  -6.303   4.261  0.00  0.00    +0.031 A 
ATOM     29  C   UNL     1       5.554  -5.195   4.610  0.00  0.00    +0.025 A 
ATOM     30  C   UNL     1       4.616  -4.696   3.729  0.00  0.00    +0.025 A 
ATOM     31  C   UNL     1       4.434  -5.303   2.492  0.00  0.00    +0.034 A 
ATOM     32  C   UNL     1       5.191  -6.414   2.145  0.00  0.00    +0.025 A 
ATOM     33  C   UNL     1       6.133  -6.909   3.025  0.00  0.00    +0.025 A 
BRANCH  28  34
ATOM     34  N   UNL     1       7.266  -6.809   5.155  0.00  0.00    -0.314 N 
ATOM     35  H   UNL     1       7.435  -6.308   6.120  0.00  0.00    +0.152 HD
BRANCH  34  39
ATOM     36  C   UNL     1       9.455 -10.209   4.163  0.00  0.00    +0.000 A 
ATOM     37  C   UNL     1      10.098  -9.104   4.690  0.00  0.00    +0.002 A 
ATOM     38  C   UNL     1       9.375  -7.975   5.020  0.00  0.00    +0.023 A 
ATOM     39  C   UNL     1       8.000  -7.950   4.822  0.00  0.00    +0.031 A 
ATOM     40  C   UNL     1       7.356  -9.064   4.298  0.00  0.00    +0.023 A 
ATOM     41  C   UNL     1       8.086 -10.188   3.965  0.00  0.00    +0.002 A 
ENDBRANCH  34  39
ENDBRANCH  28  34
ENDBRANCH  24  31
ENDBRANCH   1  25
TORSDOF 6
