REMARK  Name = ZINC64185860
REMARK  6 active torsions:
REMARK  status: ('A' for Active; 'I' for Inactive)
REMARK    1  A    between atoms: C_7  and  C_10
REMARK    2  A    between atoms: C_10  and  C_12
REMARK    3  A    between atoms: C_10  and  C_29
REMARK    4  A    between atoms: C_12  and  N_13
REMARK    5  A    between atoms: N_19  and  C_22
REMARK    6  A    between atoms: C_27  and  O_28
REMARK                            x       y       z     vdW  Elec       q    Type
REMARK                         _______ _______ _______ _____ _____    ______ ____
ROOT
ATOM      1  N   UNL     1      -0.066  -5.104  -1.337  0.00  0.00    -0.298 N 
ATOM      2  C   UNL     1      -0.058  -5.974  -2.367  0.00  0.00    +0.302 C 
ATOM      3  O   UNL     1       0.714  -5.813  -3.293  0.00  0.00    -0.253 OA
ATOM      4  N   UNL     1      -0.905  -7.022  -2.371  0.00  0.00    -0.283 N 
ATOM      5  C   UNL     1      -1.925  -7.164  -1.322  0.00  0.00    +0.128 C 
ATOM      6  C   UNL     1      -3.301  -7.287  -1.988  0.00  0.00    +0.124 C 
ATOM      7  N   UNL     1      -3.222  -8.308  -3.042  0.00  0.00    -0.324 N 
ATOM      8  C   UNL     1      -2.203  -8.167  -4.091  0.00  0.00    +0.124 C 
ATOM      9  C   UNL     1      -0.831  -8.041  -3.428  0.00  0.00    +0.128 C 
ATOM     10  H   UNL     1      -0.730  -5.191  -0.635  0.00  0.00    +0.150 HD
ENDROOT
BRANCH   7  11
ATOM     11  C   UNL     1      -4.102  -9.397  -3.046  0.00  0.00    +0.072 A 
ATOM     12  C   UNL     1      -5.312  -9.311  -3.720  0.00  0.00    +0.027 A 
ATOM     13  C   UNL     1      -6.179 -10.387  -3.723  0.00  0.00    +0.002 A 
ATOM     14  C   UNL     1      -5.844 -11.550  -3.055  0.00  0.00    +0.004 A 
ATOM     15  C   UNL     1      -4.640 -11.643  -2.381  0.00  0.00    +0.047 A 
ATOM     16  C   UNL     1      -3.763 -10.571  -2.378  0.00  0.00    +0.138 A 
BRANCH  16  17
ATOM     17  O   UNL     1      -2.576 -10.663  -1.720  0.00  0.00    -0.505 OA
ATOM     18  H   UNL     1      -2.617 -10.383  -0.795  0.00  0.00    +0.292 HD
ENDBRANCH  16  17
ENDBRANCH   7  11
BRANCH   1  19
ATOM     19  C   UNL     1       0.927  -4.029  -1.279  0.00  0.00    +0.118 C 
BRANCH  19  20
ATOM     20  C   UNL     1       0.698  -3.191  -0.019  0.00  0.00    +0.071 C 
BRANCH  20  27
ATOM     21  C   UNL     1      -0.010   1.342   0.027  0.00  0.00    +0.001 A 
ATOM     22  C   UNL     1       1.172   2.096   0.018  0.00  0.00    +0.002 A 
ATOM     23  C   UNL     1       2.397   1.530  -0.002  0.00  0.00    +0.026 A 
ATOM     24  C   UNL     1       2.535   0.114  -0.015  0.00  0.00    +0.043 A 
ATOM     25  N   UNL     1       3.593  -0.659  -0.035  0.00  0.00    -0.380 N 
ATOM     26  C   UNL     1       3.150  -2.058  -0.041  0.00  0.00    +0.145 C 
ATOM     27  C   UNL     1       1.638  -2.014  -0.021  0.00  0.00    -0.032 C 
ATOM     28  C   UNL     1       1.302  -0.704  -0.006  0.00  0.00    -0.000 A 
ATOM     29  C   UNL     1       0.009  -0.010   0.017  0.00  0.00    +0.010 A 
ATOM     30  H   UNL     1       4.515  -0.358  -0.045  0.00  0.00    +0.160 HD
ENDBRANCH  20  27
BRANCH  20  31
ATOM     31  C   UNL     1       0.955  -4.038   1.200  0.00  0.00    -0.002 A 
ATOM     32  C   UNL     1       0.107  -4.365   2.207  0.00  0.00    +0.012 A 
ATOM     33  C   UNL     1       0.566  -5.165   3.236  0.00  0.00    +0.008 A 
ATOM     34  C   UNL     1       1.850  -5.599   3.209  0.00  0.00    +0.045 A 
ATOM     35  S   UNL     1       2.452  -4.877   1.691  0.00  0.00    -0.101 S 
ENDBRANCH  20  31
ENDBRANCH  19  20
ENDBRANCH   1  19
TORSDOF 6
