REMARK  Name = ZINC39654019
REMARK  10 active torsions:
REMARK  status: ('A' for Active; 'I' for Inactive)
REMARK    1  A    between atoms: C_1  and  C_2
REMARK    2  A    between atoms: C_2  and  O_3
REMARK    3  A    between atoms: O_3  and  C_4
REMARK    4  A    between atoms: C_7  and  C_10
REMARK    5  A    between atoms: C_10  and  C_11
REMARK    6  A    between atoms: C_11  and  N_12
REMARK    7  A    between atoms: C_13  and  C_15
REMARK    8  A    between atoms: C_26  and  C_28
REMARK    9  A    between atoms: C_31  and  O_34
REMARK   10  A    between atoms: O_34  and  C_35
REMARK                            x       y       z     vdW  Elec       q    Type
REMARK                         _______ _______ _______ _____ _____    ______ ____
ROOT
ATOM      1  C   UNL     1      -0.324  -9.636  -4.429  0.00  0.00    +0.100 C 
ATOM      2  C   UNL     1       0.844 -10.291  -5.201  0.00  0.00    +0.121 C 
ATOM      3  N   UNL     1       0.242 -11.474  -5.859  0.00  0.00    -0.296 N 
ATOM      4  C   UNL     1      -1.093 -11.008  -6.306  0.00  0.00    +0.115 C 
ATOM      5  C   UNL     1      -1.593 -10.109  -5.158  0.00  0.00    -0.004 C 
ATOM      6  C   UNL     1      -2.480 -10.910  -4.210  0.00  0.00    -0.010 C 
ATOM      7  C   UNL     1      -3.761 -11.321  -4.941  0.00  0.00    -0.082 C 
ATOM      8  N   UNL     1      -4.467 -10.121  -5.407  0.00  0.00    +0.379 N 
ATOM      9  C   UNL     1      -3.643  -9.406  -6.390  0.00  0.00    -0.082 C 
ATOM     10  C   UNL     1      -2.357  -8.914  -5.720  0.00  0.00    -0.010 C 
ATOM     11  C   UNL     1       0.785 -12.698  -6.014  0.00  0.00    +0.248 C 
ATOM     12  O   UNL     1       1.841 -12.967  -5.477  0.00  0.00    -0.270 OA
ATOM     13  H   UNL     1      -5.340 -10.391  -5.835  0.00  0.00    -0.086 HD
ATOM     14  H   UNL     1      -4.653  -9.515  -4.622  0.00  0.00    -0.086 HD
ENDROOT
BRANCH  11  15
ATOM     15  C   UNL     1       0.096 -13.711  -6.838  0.00  0.00    +0.055 A 
ATOM     16  C   UNL     1      -0.871 -13.327  -7.779  0.00  0.00    +0.020 A 
ATOM     17  C   UNL     1      -1.486 -14.310  -8.525  0.00  0.00    +0.068 A 
ATOM     18  C   UNL     1      -1.132 -15.641  -8.322  0.00  0.00    +0.220 A 
ATOM     19  N   UNL     1      -0.215 -15.972  -7.425  0.00  0.00    -0.220 NA
ATOM     20  C   UNL     1       0.402 -15.065  -6.696  0.00  0.00    +0.127 A 
BRANCH  18  21
ATOM     21  O   UNL     1      -1.733 -16.611  -9.052  0.00  0.00    -0.438 OA
BRANCH  21  22
ATOM     22  C   UNL     1      -1.296 -17.889  -8.898  0.00  0.00    +0.130 A 
ATOM     23  C   UNL     1      -1.706 -18.636  -7.802  0.00  0.00    +0.046 A 
ATOM     24  C   UNL     1      -1.261 -19.934  -7.648  0.00  0.00    +0.004 A 
ATOM     25  C   UNL     1      -0.407 -20.489  -8.583  0.00  0.00    +0.000 A 
ATOM     26  C   UNL     1       0.002 -19.747  -9.676  0.00  0.00    +0.004 A 
ATOM     27  C   UNL     1      -0.445 -18.450  -9.838  0.00  0.00    +0.046 A 
ENDBRANCH  21  22
ENDBRANCH  18  21
ENDBRANCH  11  15
BRANCH   1  29
ATOM     28  N   UNL     1      -0.711  -7.384  -3.484  0.00  0.00    -0.315 N 
ATOM     29  C   UNL     1      -0.215  -8.134  -4.487  0.00  0.00    +0.218 C 
ATOM     30  O   UNL     1       0.320  -7.601  -5.436  0.00  0.00    -0.275 OA
ATOM     31  H   UNL     1      -1.139  -7.810  -2.724  0.00  0.00    +0.149 HD
BRANCH  28  32
ATOM     32  C   UNL     1      -0.605  -5.924  -3.539  0.00  0.00    +0.109 C 
BRANCH  32  33
ATOM     33  C   UNL     1      -1.242  -5.318  -2.287  0.00  0.00    +0.054 C 
BRANCH  33  37
ATOM     34  C   UNL     1      -0.933  -1.059  -2.450  0.00  0.00    +0.121 A 
ATOM     35  C   UNL     1      -2.041  -1.696  -2.988  0.00  0.00    +0.046 A 
ATOM     36  C   UNL     1      -2.139  -3.073  -2.935  0.00  0.00    +0.007 A 
ATOM     37  C   UNL     1      -1.133  -3.816  -2.345  0.00  0.00    -0.046 A 
ATOM     38  C   UNL     1      -0.027  -3.183  -1.807  0.00  0.00    +0.007 A 
ATOM     39  C   UNL     1       0.078  -1.807  -1.864  0.00  0.00    +0.046 A 
BRANCH  34  40
ATOM     40  O   UNL     1      -0.834   0.296  -2.502  0.00  0.00    -0.492 OA
BRANCH  40  42
ATOM     41  C   UNL     1      -1.625   2.504  -3.085  0.00  0.00    +0.048 C 
ATOM     42  C   UNL     1      -1.912   1.001  -3.120  0.00  0.00    +0.225 C 
ENDBRANCH  40  42
ENDBRANCH  34  40
ENDBRANCH  33  37
ENDBRANCH  32  33
ENDBRANCH  28  32
ENDBRANCH   1  29
TORSDOF 9
