REMARK  Name = ZINC51046455
REMARK  7 active torsions:
REMARK  status: ('A' for Active; 'I' for Inactive)
REMARK    1  A    between atoms: C_1  and  C_2
REMARK    2  A    between atoms: C_2  and  C_4
REMARK    3  A    between atoms: C_2  and  N_15
REMARK    4  A    between atoms: N_6  and  C_7
REMARK    5  A    between atoms: C_8  and  C_12
REMARK    6  A    between atoms: C_19  and  C_22
REMARK    7  A    between atoms: N_24  and  C_25
REMARK                            x       y       z     vdW  Elec       q    Type
REMARK                         _______ _______ _______ _____ _____    ______ ____
ROOT
ATOM      1  C   UNL     1       0.360   1.425   0.416  0.00  0.00    -0.004 C 
ATOM      2  C   UNL     1       0.002  -0.004   0.002  0.00  0.00    +0.016 C 
ENDROOT
BRANCH   2   3
ATOM      3  N   UNL     1       0.323  -0.926   1.099  0.00  0.00    +0.388 N 
ATOM      4  C   UNL     1      -0.004  -2.299   0.694  0.00  0.00    -0.078 C 
ATOM      5  C   UNL     1       0.404  -3.272   1.802  0.00  0.00    -0.018 C 
ATOM      6  C   UNL     1      -0.355  -2.923   3.086  0.00  0.00    +0.009 C 
ATOM      7  C   UNL     1      -0.065  -1.466   3.458  0.00  0.00    +0.058 C 
ATOM      8  C   UNL     1      -0.455  -0.559   2.288  0.00  0.00    -0.065 C 
ATOM      9  H   UNL     1       1.308  -0.866   1.311  0.00  0.00    -0.081 HD
BRANCH   7  10
ATOM     10  C   UNL     1      -0.867  -1.089   4.677  0.00  0.00    +0.215 C 
ATOM     11  O   UNL     1      -1.669  -0.181   4.619  0.00  0.00    -0.276 OA
ATOM     12  N   UNL     1      -0.692  -1.761   5.833  0.00  0.00    -0.312 N 
ATOM     13  H   UNL     1      -0.050  -2.486   5.879  0.00  0.00    +0.149 HD
BRANCH  12  14
ATOM     14  C   UNL     1      -1.471  -1.394   7.018  0.00  0.00    +0.073 C 
ATOM     15  C   UNL     1      -0.730  -1.318   8.354  0.00  0.00    +0.024 C 
ATOM     16  C   UNL     1      -1.694  -2.474   8.079  0.00  0.00    +0.024 C 
ENDBRANCH  12  14
ENDBRANCH   7  10
ENDBRANCH   2   3
BRANCH   2  17
ATOM     17  C   UNL     1       0.793  -0.386  -1.223  0.00  0.00    +0.204 C 
ATOM     18  O   UNL     1       1.870  -0.931  -1.103  0.00  0.00    -0.277 OA
ATOM     19  N   UNL     1       0.304  -0.121  -2.450  0.00  0.00    -0.281 N 
ATOM     20  H   UNL     1      -0.557   0.315  -2.546  0.00  0.00    +0.155 HD
BRANCH  19  21
ATOM     21  C   UNL     1       1.032  -0.472  -3.577  0.00  0.00    +0.084 A 
ATOM     22  C   UNL     1       0.691  -0.276  -4.907  0.00  0.00    +0.065 A 
ATOM     23  C   UNL     1       1.640  -0.742  -5.893  0.00  0.00    +0.022 A 
ATOM     24  C   UNL     1       2.755  -1.319  -5.407  0.00  0.00    +0.048 A 
ATOM     25  S   UNL     1       2.529  -1.227  -3.644  0.00  0.00    -0.081 S 
BRANCH  22  26
ATOM     26  C   UNL     1      -0.566   0.372  -5.294  0.00  0.00    +0.244 C 
ATOM     27  O   UNL     1      -1.343   0.753  -4.438  0.00  0.00    -0.270 OA
ATOM     28  N   UNL     1      -0.862   0.546  -6.598  0.00  0.00    -0.325 N 
ATOM     29  H   UNL     1      -0.242   0.243  -7.280  0.00  0.00    +0.145 HD
ATOM     30  H   UNL     1      -1.693   0.974  -6.853  0.00  0.00    +0.145 HD
ENDBRANCH  22  26
ENDBRANCH  19  21
ENDBRANCH   2  17
TORSDOF 6
