REMARK  Name = ZINC67292447
REMARK  4 active torsions:
REMARK  status: ('A' for Active; 'I' for Inactive)
REMARK    1  A    between atoms: C_6  and  N_7
REMARK    2  A    between atoms: C_9  and  C_19
REMARK    3  A    between atoms: N_21  and  C_22
REMARK    4  A    between atoms: C_22  and  C_23
REMARK                            x       y       z     vdW  Elec       q    Type
REMARK                         _______ _______ _______ _____ _____    ______ ____
ROOT
ATOM      1  N   UNL     1      -1.178  -0.701   0.007  0.00  0.00    -0.325 N 
ATOM      2  C   UNL     1      -1.334  -1.726  -0.801  0.00  0.00    +0.212 A 
ATOM      3  C   UNL     1      -2.547  -2.566  -0.739  0.00  0.00    +0.097 A 
ATOM      4  C   UNL     1      -2.922  -3.223  -1.903  0.00  0.00    +0.030 A 
ATOM      5  C   UNL     1      -2.084  -3.023  -3.088  0.00  0.00    +0.019 A 
ATOM      6  C   UNL     1      -2.528  -3.422  -4.355  0.00  0.00    +0.026 A 
ATOM      7  C   UNL     1      -1.722  -3.220  -5.453  0.00  0.00    +0.019 A 
ATOM      8  C   UNL     1      -0.476  -2.624  -5.310  0.00  0.00    +0.019 A 
ATOM      9  C   UNL     1      -0.025  -2.227  -4.067  0.00  0.00    +0.048 A 
ATOM     10  C   UNL     1      -0.819  -2.422  -2.947  0.00  0.00    +0.137 A 
ATOM     11  O   UNL     1      -0.389  -2.040  -1.723  0.00  0.00    -0.439 OA
ATOM     12 BR   UNL     1      -2.315  -3.757  -7.166  0.00  0.00    -0.050 Br
ATOM     13  H   UNL     1      -1.899  -0.436   0.600  0.00  0.00    +0.169 HD
ENDROOT
BRANCH   1  19
ATOM     14  C   UNL     1      -0.005   1.389   0.017  0.00  0.00    +0.028 A 
ATOM     15  C   UNL     1       1.187   2.082   0.024  0.00  0.00    +0.042 A 
ATOM     16  C   UNL     1       2.390   1.397   0.026  0.00  0.00    +0.142 A 
ATOM     17  C   UNL     1       2.405   0.010   0.022  0.00  0.00    +0.078 A 
ATOM     18  C   UNL     1       1.218  -0.695   0.016  0.00  0.00    +0.048 A 
ATOM     19  C   UNL     1       0.002  -0.008   0.013  0.00  0.00    +0.043 A 
ATOM     20 CL   UNL     1       3.918  -0.841   0.024  0.00  0.00    -0.081 Cl
ATOM     21  F   UNL     1       3.555   2.082   0.031  0.00  0.00    -0.204 F 
ENDBRANCH   1  19
BRANCH   3  22
ATOM     22  C   UNL     1      -3.324  -2.702   0.505  0.00  0.00    +0.249 C 
ATOM     23  O   UNL     1      -3.023  -2.048   1.485  0.00  0.00    -0.270 OA
ATOM     24  N   UNL     1      -4.370  -3.551   0.556  0.00  0.00    -0.309 N 
ATOM     25  H   UNL     1      -4.565  -4.127  -0.200  0.00  0.00    +0.149 HD
BRANCH  24  26
ATOM     26  C   UNL     1      -5.211  -3.605   1.754  0.00  0.00    +0.136 C 
BRANCH  26  27
ATOM     27  C   UNL     1      -6.318  -4.643   1.554  0.00  0.00    +0.135 C 
ATOM     28  C   UNL     1      -7.241  -4.691   2.797  0.00  0.00    +0.035 C 
ATOM     29  C   UNL     1      -8.552  -5.240   2.170  0.00  0.00    +0.031 C 
ATOM     30  C   UNL     1      -8.529  -4.611   0.760  0.00  0.00    +0.160 C 
ATOM     31  O   UNL     1      -7.171  -4.258   0.465  0.00  0.00    -0.375 OA
ENDBRANCH  26  27
ENDBRANCH  24  26
ENDBRANCH   3  22
TORSDOF 4
