REMARK  Name = ZINC65933133
REMARK  14 active torsions:
REMARK  status: ('A' for Active; 'I' for Inactive)
REMARK    1  A    between atoms: C_1  and  C_2
REMARK    2  A    between atoms: C_2  and  C_3
REMARK    3  A    between atoms: C_2  and  N_15
REMARK    4  A    between atoms: C_6  and  O_11
REMARK    5  A    between atoms: C_7  and  O_9
REMARK    6  A    between atoms: O_9  and  C_10
REMARK    7  A    between atoms: O_11  and  C_12
REMARK    8  A    between atoms: C_12  and  C_13
REMARK    9  A    between atoms: C_13  and  O_14
REMARK   10  A    between atoms: N_15  and  C_16
REMARK   11  A    between atoms: C_16  and  C_17
REMARK   12  A    between atoms: C_20  and  C_22
REMARK   13  A    between atoms: C_22  and  S_23
REMARK   14  A    between atoms: S_23  and  C_24
REMARK                            x       y       z     vdW  Elec       q    Type
REMARK                         _______ _______ _______ _____ _____    ______ ____
ROOT
ATOM      1  C   UNL     1      -0.019   1.526   0.010  0.00  0.00    -0.009 C 
ATOM      2  C   UNL     1       0.002  -0.004   0.002  0.00  0.00    -0.043 C 
ENDROOT
BRANCH   2   3
ATOM      3  C   UNL     1       0.731  -0.503   1.223  0.00  0.00    -0.058 A 
ATOM      4  C   UNL     1       0.079  -0.558   2.441  0.00  0.00    +0.006 A 
ATOM      5  C   UNL     1       0.744  -1.015   3.564  0.00  0.00    +0.049 A 
ATOM      6  C   UNL     1       2.065  -1.420   3.470  0.00  0.00    +0.162 A 
ATOM      7  C   UNL     1       2.721  -1.366   2.244  0.00  0.00    +0.162 A 
ATOM      8  C   UNL     1       2.048  -0.911   1.121  0.00  0.00    +0.051 A 
BRANCH   7   9
ATOM      9  O   UNL     1       4.018  -1.762   2.147  0.00  0.00    -0.491 OA
ATOM     10  C   UNL     1       4.627  -1.679   0.857  0.00  0.00    +0.277 C 
ENDBRANCH   7   9
BRANCH   6  11
ATOM     11  O   UNL     1       2.720  -1.870   4.574  0.00  0.00    -0.486 OA
BRANCH  11  12
ATOM     12  C   UNL     1       1.984  -1.898   5.798  0.00  0.00    +0.257 C 
BRANCH  12  13
ATOM     13  C   UNL     1       2.880  -2.429   6.920  0.00  0.00    +0.196 C 
BRANCH  13  14
ATOM     14  O   UNL     1       3.954  -1.514   7.145  0.00  0.00    -0.392 OA
ATOM     15  H   UNL     1       4.564  -1.787   7.844  0.00  0.00    +0.210 HD
ENDBRANCH  13  14
ENDBRANCH  12  13
ENDBRANCH  11  12
ENDBRANCH   6  11
ENDBRANCH   2   3
BRANCH   2  16
ATOM     16  N   UNL     1      -1.376  -0.512   0.012  0.00  0.00    +0.388 N 
ATOM     17  H   UNL     1      -1.363  -1.518   0.090  0.00  0.00    -0.084 HD
ATOM     18  H   UNL     1      -1.873  -0.121   0.799  0.00  0.00    -0.084 HD
BRANCH  16  19
ATOM     19  C   UNL     1      -2.050  -0.126  -1.234  0.00  0.00    -0.006 C 
BRANCH  19  20
ATOM     20  C   UNL     1      -3.464  -0.648  -1.224  0.00  0.00    +0.089 A 
ATOM     21  C   UNL     1      -4.540   0.007  -0.754  0.00  0.00    +0.043 A 
ATOM     22  C   UNL     1      -5.652  -0.846  -0.940  0.00  0.00    +0.046 A 
ATOM     23  C   UNL     1      -5.189  -1.971  -1.512  0.00  0.00    +0.115 A 
ATOM     24  O   UNL     1      -3.863  -1.843  -1.687  0.00  0.00    -0.466 OA
BRANCH  23  25
ATOM     25  C   UNL     1      -6.017  -3.170  -1.897  0.00  0.00    +0.148 C 
BRANCH  25  26
ATOM     26  S   UNL     1      -6.613  -2.972  -3.599  0.00  0.00    -0.084 S 
BRANCH  26  27
ATOM     27  C   UNL     1      -7.579  -4.477  -3.904  0.00  0.00    +0.400 C 
ATOM     28  F   UNL     1      -6.753  -5.598  -3.761  0.00  0.00    -0.197 F 
ATOM     29  F   UNL     1      -8.629  -4.551  -2.983  0.00  0.00    -0.197 F 
ENDBRANCH  26  27
ENDBRANCH  25  26
ENDBRANCH  23  25
ENDBRANCH  19  20
ENDBRANCH  16  19
ENDBRANCH   2  16
TORSDOF 12
