REMARK  Name = ZINC22691662
REMARK  6 active torsions:
REMARK  status: ('A' for Active; 'I' for Inactive)
REMARK    1  A    between atoms: C_1  and  C_2
REMARK    2  A    between atoms: C_5  and  S_7
REMARK    3  A    between atoms: S_7  and  N_10
REMARK    4  A    between atoms: C_14  and  C_17
REMARK    5  A    between atoms: C_24  and  C_31
REMARK    6  A    between atoms: C_26  and  O_27
REMARK                            x       y       z     vdW  Elec       q    Type
REMARK                         _______ _______ _______ _____ _____    ______ ____
ROOT
ATOM      1  C   UNL     1       3.649   7.320  -0.098  0.00  0.00    +0.222 C 
ATOM      2  O   UNL     1       2.610   7.945  -0.086  0.00  0.00    -0.275 OA
ATOM      3  N   UNL     1       3.628   5.976  -0.002  0.00  0.00    -0.285 N 
ATOM      4  C   UNL     1       2.409   5.296  -0.000  0.00  0.00    +0.037 A 
ATOM      5  C   UNL     1       2.270   4.129   0.752  0.00  0.00    +0.024 A 
ATOM      6  C   UNL     1       1.085   3.453   0.763  0.00  0.00    +0.013 A 
ATOM      7  C   UNL     1       0.002   3.932   0.017  0.00  0.00    +0.021 A 
ATOM      8  C   UNL     1      -1.281   3.227   0.011  0.00  0.00    -0.033 A 
ATOM      9  C   UNL     1      -2.295   3.745  -0.729  0.00  0.00    +0.091 A 
ATOM     10  C   UNL     1      -2.089   4.926  -1.472  0.00  0.00    +0.285 A 
ATOM     11  O   UNL     1      -0.910   5.567  -1.463  0.00  0.00    -0.425 OA
ATOM     12  C   UNL     1       0.137   5.109  -0.744  0.00  0.00    +0.141 A 
ATOM     13  C   UNL     1       1.347   5.784  -0.746  0.00  0.00    +0.070 A 
ATOM     14  C   UNL     1      -1.473   1.964   0.810  0.00  0.00    +0.045 C 
ATOM     15  H   UNL     1       4.571   5.415   0.074  0.00  0.00    +0.155 HD
ENDROOT
BRANCH   1  20
ATOM     16  N   UNL     1       6.000  10.254  -0.295  0.00  0.00    -0.175 NA
ATOM     17  C   UNL     1       6.945   9.973   0.794  0.00  0.00    +0.109 C 
ATOM     18  C   UNL     1       7.175   8.461   0.870  0.00  0.00    +0.018 C 
ATOM     19  C   UNL     1       5.827   7.750   1.008  0.00  0.00    +0.015 C 
ATOM     20  C   UNL     1       4.963   8.046  -0.220  0.00  0.00    +0.091 C 
ATOM     21  C   UNL     1       4.708   9.554  -0.308  0.00  0.00    +0.122 C 
BRANCH  16  22
ATOM     22  S   UNL     1       6.384  11.338  -1.487  0.00  0.00    +0.067 S 
ATOM     23  O   UNL     1       5.154  11.804  -2.024  0.00  0.00    -0.152 OA
ATOM     24  O   UNL     1       7.358  12.216  -0.939  0.00  0.00    -0.152 OA
BRANCH  22  29
ATOM     25  C   UNL     1       9.910   8.519  -5.311  0.00  0.00    +0.051 C 
ATOM     26  C   UNL     1       8.809   9.157  -4.504  0.00  0.00    -0.011 A 
ATOM     27  C   UNL     1       7.474   9.171  -4.741  0.00  0.00    +0.013 A 
ATOM     28  C   UNL     1       6.642   9.822  -3.850  0.00  0.00    +0.036 A 
ATOM     29  C   UNL     1       7.186  10.438  -2.772  0.00  0.00    +0.143 A 
ATOM     30  S   UNL     1       8.924  10.092  -2.987  0.00  0.00    -0.074 S 
ENDBRANCH  22  29
ENDBRANCH  16  22
ENDBRANCH   1  20
BRANCH  10  31
ATOM     31  O   UNL     1      -3.005   5.377  -2.135  0.00  0.00    -0.480 OA
ATOM     32  H   UNL     1      -2.860   6.297  -2.720  0.00  0.00    +0.295 HD
ENDBRANCH  10  31
TORSDOF 4
