REMARK  Name = ZINC08833223
REMARK  7 active torsions:
REMARK  status: ('A' for Active; 'I' for Inactive)
REMARK    1  A    between atoms: C_1  and  O_2
REMARK    2  A    between atoms: O_2  and  C_3
REMARK    3  A    between atoms: C_4  and  C_14
REMARK    4  A    between atoms: N_16  and  C_17
REMARK    5  A    between atoms: C_17  and  N_19
REMARK    6  A    between atoms: N_19  and  C_20
REMARK    7  A    between atoms: C_25  and  N_26
REMARK                            x       y       z     vdW  Elec       q    Type
REMARK                         _______ _______ _______ _____ _____    ______ ____
ROOT
ATOM      1  C   UNL     1      -0.836   7.243   0.051  0.00  0.00    +0.253 C 
ATOM      2  O   UNL     1      -1.869   7.744   0.451  0.00  0.00    -0.270 OA
ATOM      3  N   UNL     1       0.232   8.022  -0.214  0.00  0.00    -0.263 N 
ATOM      4  H   UNL     1       1.056   7.623  -0.532  0.00  0.00    +0.157 HD
ENDROOT
BRANCH   1   6
ATOM      5  C   UNL     1      -1.871   4.972   0.135  0.00  0.00    +0.147 A 
ATOM      6  C   UNL     1      -0.750   5.784  -0.143  0.00  0.00    +0.080 A 
ATOM      7  C   UNL     1       0.430   5.218  -0.599  0.00  0.00    +0.025 A 
ATOM      8  C   UNL     1       0.505   3.830  -0.783  0.00  0.00    -0.016 A 
ATOM      9  C   UNL     1       1.687   3.222  -1.244  0.00  0.00    +0.008 A 
ATOM     10  C   UNL     1       1.729   1.872  -1.414  0.00  0.00    +0.001 A 
ATOM     11  C   UNL     1       0.616   1.080  -1.137  0.00  0.00    +0.001 A 
ATOM     12  C   UNL     1      -0.546   1.633  -0.693  0.00  0.00    +0.010 A 
ATOM     13  C   UNL     1      -0.627   3.022  -0.500  0.00  0.00    -0.000 A 
ATOM     14  C   UNL     1      -1.813   3.621  -0.040  0.00  0.00    +0.068 A 
ATOM     15 BR   UNL     1      -3.326   2.552   0.339  0.00  0.00    -0.046 Br
BRANCH   5  17
ATOM     16  C   UNL     1      -3.966   5.954  -0.408  0.00  0.00    +0.277 C 
ATOM     17  O   UNL     1      -3.019   5.543   0.581  0.00  0.00    -0.493 OA
ENDBRANCH   5  17
ENDBRANCH   1   6
BRANCH   3  18
ATOM     18  C   UNL     1       0.154   9.356  -0.036  0.00  0.00    +0.141 C 
ATOM     19  S   UNL     1      -1.302  10.060   0.527  0.00  0.00    -0.018 S 
BRANCH  18  20
ATOM     20  N   UNL     1       1.221  10.134  -0.301  0.00  0.00    -0.295 N 
ATOM     21  H   UNL     1       2.070   9.729  -0.538  0.00  0.00    +0.154 HD
BRANCH  20  22
ATOM     22  C   UNL     1       1.105  11.527  -0.233  0.00  0.00    +0.063 A 
ATOM     23  C   UNL     1       0.024  12.165  -0.826  0.00  0.00    +0.027 A 
ATOM     24  C   UNL     1      -0.088  13.540  -0.758  0.00  0.00    +0.022 A 
ATOM     25  C   UNL     1       0.876  14.282  -0.098  0.00  0.00    +0.043 A 
ATOM     26  C   UNL     1       1.954  13.649   0.494  0.00  0.00    +0.054 A 
ATOM     27  C   UNL     1       2.069  12.274   0.433  0.00  0.00    +0.149 A 
ATOM     28 CL   UNL     1       0.732  16.010  -0.014  0.00  0.00    -0.083 Cl
BRANCH  27  29
ATOM     29  N   UNL     1       3.220  11.597   1.072  0.00  0.00    +0.058 N 
ATOM     30  O   UNL     1       4.103  12.256   1.590  0.00  0.00    -0.126 OA
ATOM     31  O   UNL     1       3.283  10.380   1.079  0.00  0.00    -0.126 OA
ENDBRANCH  27  29
ENDBRANCH  20  22
ENDBRANCH  18  20
ENDBRANCH   3  18
TORSDOF 6
