REMARK  Name = ZINC39943064
REMARK  9 active torsions:
REMARK  status: ('A' for Active; 'I' for Inactive)
REMARK    1  A    between atoms: C_1  and  C_2
REMARK    2  A    between atoms: C_7  and  C_10
REMARK    3  A    between atoms: N_17  and  C_18
REMARK    4  A    between atoms: C_18  and  C_19
REMARK    5  A    between atoms: N_21  and  C_22
REMARK    6  A    between atoms: C_22  and  C_23
REMARK    7  A    between atoms: C_23  and  C_24
REMARK    8  A    between atoms: C_24  and  C_25
REMARK    9  A    between atoms: C_26  and  C_32
REMARK                            x       y       z     vdW  Elec       q    Type
REMARK                         _______ _______ _______ _____ _____    ______ ____
ROOT
ATOM      1  C   UNL     1       2.163  -0.737   1.050  0.00  0.00    +0.205 C 
ENDROOT
BRANCH   1  12
ATOM      2  C   UNL     1      -0.019   1.526   0.010  0.00  0.00    +0.049 C 
ATOM      3  C   UNL     1       0.002  -0.004   0.002  0.00  0.00    +0.159 C 
ATOM      4  N   UNL     1      -1.383  -0.505  -0.008  0.00  0.00    -0.320 N 
ATOM      5  C   UNL     1      -2.027  -0.571   1.205  0.00  0.00    +0.080 A 
ATOM      6  C   UNL     1      -1.335  -0.672   2.419  0.00  0.00    +0.073 A 
ATOM      7  C   UNL     1      -2.177  -0.741   3.601  0.00  0.00    +0.010 A 
ATOM      8  C   UNL     1      -3.519  -0.692   3.377  0.00  0.00    +0.056 A 
ATOM      9  S   UNL     1      -3.636  -0.557   1.604  0.00  0.00    -0.081 S 
ATOM     10  C   UNL     1       0.143  -0.693   2.373  0.00  0.00    +0.251 C 
ATOM     11  O   UNL     1       0.805  -0.894   3.374  0.00  0.00    -0.270 OA
ATOM     12  N   UNL     1       0.727  -0.479   1.177  0.00  0.00    -0.270 N 
ATOM     13  H   UNL     1      -1.820  -0.776  -0.831  0.00  0.00    +0.148 HD
BRANCH   7  14
ATOM     14  C   UNL     1      -1.612  -0.857   4.962  0.00  0.00    +0.021 A 
ATOM     15  C   UNL     1      -1.898  -0.120   6.080  0.00  0.00    +0.016 A 
ATOM     16  C   UNL     1      -1.236  -0.414   7.253  0.00  0.00    +0.008 A 
ATOM     17  C   UNL     1      -0.325  -1.420   7.264  0.00  0.00    +0.046 A 
ATOM     18  S   UNL     1      -0.385  -1.998   5.577  0.00  0.00    -0.097 S 
ENDBRANCH   7  14
ENDBRANCH   1  12
BRANCH   1  19
ATOM     19  C   UNL     1       2.930   0.518   1.381  0.00  0.00    +0.230 C 
ATOM     20  O   UNL     1       2.335   1.528   1.692  0.00  0.00    -0.274 OA
ATOM     21  N   UNL     1       4.277   0.518   1.331  0.00  0.00    -0.314 N 
ATOM     22  H   UNL     1       4.753  -0.290   1.083  0.00  0.00    +0.149 HD
BRANCH  21  23
ATOM     23  C   UNL     1       5.022   1.737   1.653  0.00  0.00    +0.104 C 
BRANCH  23  24
ATOM     24  C   UNL     1       6.522   1.468   1.521  0.00  0.00    +0.025 C 
BRANCH  24  25
ATOM     25  C   UNL     1       7.300   2.742   1.857  0.00  0.00    +0.058 C 
BRANCH  25  26
ATOM     26  C   UNL     1       8.778   2.477   1.727  0.00  0.00    +0.055 A 
ATOM     27  C   UNL     1       9.522   2.552   0.566  0.00  0.00    +0.113 A 
ATOM     28  C   UNL     1      10.860   2.226   0.905  0.00  0.00    +0.156 A 
ATOM     29  N   UNL     1      10.898   1.974   2.190  0.00  0.00    -0.158 NA
ATOM     30  N   UNL     1       9.613   2.130   2.720  0.00  0.00    -0.279 N 
ATOM     31  H   UNL     1       9.366   2.007   3.650  0.00  0.00    +0.189 HD
ATOM     32  N   UNL     1      11.943   2.181   0.026  0.00  0.00    -0.341 N 
ATOM     33  H   UNL     1      11.814   2.384  -0.913  0.00  0.00    +0.144 HD
ATOM     34  H   UNL     1      12.825   1.946   0.355  0.00  0.00    +0.144 HD
BRANCH  27  35
ATOM     35  C   UNL     1       9.034   2.894  -0.736  0.00  0.00    +0.104 C 
ATOM     36  N   UNL     1       8.647   3.165  -1.769  0.00  0.00    -0.191 NA
ENDBRANCH  27  35
ENDBRANCH  25  26
ENDBRANCH  24  25
ENDBRANCH  23  24
ENDBRANCH  21  23
ENDBRANCH   1  19
TORSDOF 8
