REMARK  Name = ZINC36949871
REMARK  3 active torsions:
REMARK  status: ('A' for Active; 'I' for Inactive)
REMARK    1  A    between atoms: C_6  and  C_7
REMARK    2  A    between atoms: C_7  and  C_9
REMARK    3  A    between atoms: C_7  and  N_15
REMARK                            x       y       z     vdW  Elec       q    Type
REMARK                         _______ _______ _______ _____ _____    ______ ____
ROOT
ATOM      1  C   UNL     1      -0.017   1.378   0.010  0.00  0.00    +0.006 A 
ATOM      2  C   UNL     1       1.169   2.091   0.002  0.00  0.00    +0.048 A 
ATOM      3  C   UNL     1       2.378   1.419  -0.013  0.00  0.00    +0.142 A 
ATOM      4  C   UNL     1       2.397   0.025  -0.021  0.00  0.00    +0.076 A 
ATOM      5  C   UNL     1       1.207  -0.684  -0.013  0.00  0.00    +0.029 A 
ATOM      6  C   UNL     1       0.002  -0.004   0.002  0.00  0.00    -0.057 A 
ATOM      7  N   UNL     1       3.629  -0.644  -0.038  0.00  0.00    -0.280 N 
ATOM      8  C   UNL     1       4.751   0.043   0.269  0.00  0.00    +0.255 C 
ATOM      9  O   UNL     1       5.831  -0.507   0.231  0.00  0.00    -0.272 OA
ATOM     10  C   UNL     1       4.655   1.496   0.659  0.00  0.00    +0.325 C 
ATOM     11  O   UNL     1       3.552   2.104  -0.020  0.00  0.00    -0.481 OA
ATOM     12  H   UNL     1       3.675  -1.586  -0.267  0.00  0.00    +0.155 HD
ENDROOT
BRANCH   6  13
ATOM     13  C   UNL     1      -1.294  -0.773   0.011  0.00  0.00    -0.015 C 
BRANCH  13  14
ATOM     14  C   UNL     1      -1.846  -0.825   1.437  0.00  0.00    +0.108 C 
ATOM     15  C   UNL     1      -3.177  -1.608   1.455  0.00  0.00    +0.032 C 
ATOM     16  C   UNL     1      -4.027  -0.789   2.464  0.00  0.00    +0.030 C 
ATOM     17  C   UNL     1      -3.520   0.647   2.179  0.00  0.00    +0.160 C 
ATOM     18  O   UNL     1      -2.116   0.502   1.903  0.00  0.00    -0.378 OA
ENDBRANCH  13  14
BRANCH  13  19
ATOM     19  N   UNL     1      -2.265  -0.106  -0.866  0.00  0.00    +0.384 N 
ATOM     20  H   UNL     1      -2.429   0.833  -0.534  0.00  0.00    -0.089 HD
ATOM     21  H   UNL     1      -1.901  -0.071  -1.806  0.00  0.00    -0.089 HD
ATOM     22  H   UNL     1      -3.133  -0.620  -0.860  0.00  0.00    -0.089 HD
ENDBRANCH  13  19
ENDBRANCH   6  13
TORSDOF 3
