REMARK  Name = ZINC63572982
REMARK  7 active torsions:
REMARK  status: ('A' for Active; 'I' for Inactive)
REMARK    1  A    between atoms: C_1  and  C_2
REMARK    2  A    between atoms: C_5  and  N_9
REMARK    3  A    between atoms: C_18  and  O_35
REMARK    4  A    between atoms: C_25  and  C_27
REMARK    5  A    between atoms: C_30  and  O_33
REMARK    6  A    between atoms: O_33  and  C_34
REMARK    7  A    between atoms: O_35  and  C_36
REMARK                            x       y       z     vdW  Elec       q    Type
REMARK                         _______ _______ _______ _____ _____    ______ ____
ROOT
ATOM      1  N   UNL     1       0.184  -3.974  -0.278  0.00  0.00    -0.268 N 
ATOM      2  C   UNL     1       0.033  -4.739  -1.376  0.00  0.00    +0.307 C 
ATOM      3  O   UNL     1      -0.036  -4.220  -2.474  0.00  0.00    -0.252 OA
ATOM      4  N   UNL     1      -0.043  -6.080  -1.259  0.00  0.00    -0.276 N 
ATOM      5  C   UNL     1      -0.052  -6.691   0.074  0.00  0.00    +0.114 C 
ATOM      6  C   UNL     1      -1.326  -7.540   0.240  0.00  0.00    +0.052 C 
ATOM      7  C   UNL     1      -1.475  -8.349  -1.025  0.00  0.00    -0.035 C 
ATOM      8  C   UNL     1      -1.648  -9.650  -1.218  0.00  0.00    +0.003 A 
ATOM      9  C   UNL     1      -1.867 -10.763  -0.281  0.00  0.00    +0.055 A 
ATOM     10  C   UNL     1      -1.988 -12.005  -0.826  0.00  0.00    +0.121 A 
ATOM     11  C   UNL     1      -1.916 -12.268  -2.201  0.00  0.00    +0.047 A 
ATOM     12  C   UNL     1      -1.726 -11.319  -3.152  0.00  0.00    +0.029 A 
ATOM     13  C   UNL     1      -1.589  -9.932  -2.686  0.00  0.00    +0.043 A 
ATOM     14  N   UNL     1      -1.424  -8.831  -3.355  0.00  0.00    -0.375 N 
ATOM     15  C   UNL     1      -1.420  -7.713  -2.409  0.00  0.00    +0.131 C 
ATOM     16  C   UNL     1      -0.121  -6.913  -2.469  0.00  0.00    +0.134 C 
ATOM     17  H   UNL     1       0.267  -4.389   0.595  0.00  0.00    +0.156 HD
ATOM     18  H   UNL     1      -1.321  -8.761  -4.317  0.00  0.00    +0.160 HD
ENDROOT
BRANCH   1  23
ATOM     19  C   UNL     1       0.337   1.679  -0.757  0.00  0.00    +0.044 C 
ATOM     20  C   UNL     1       0.296   0.178  -0.629  0.00  0.00    -0.049 A 
ATOM     21  C   UNL     1       0.614  -0.616  -1.716  0.00  0.00    +0.005 A 
ATOM     22  C   UNL     1       0.578  -1.992  -1.603  0.00  0.00    +0.025 A 
ATOM     23  C   UNL     1       0.222  -2.579  -0.396  0.00  0.00    +0.053 A 
ATOM     24  C   UNL     1      -0.096  -1.779   0.695  0.00  0.00    +0.062 A 
ATOM     25  C   UNL     1      -0.052  -0.403   0.576  0.00  0.00    +0.025 A 
ATOM     26 CL   UNL     1      -0.541  -2.507   2.207  0.00  0.00    -0.082 Cl
ENDBRANCH   1  23
BRANCH  16  27
ATOM     27  C   UNL     1       1.054  -7.856  -2.516  0.00  0.00    -0.024 A 
ATOM     28  C   UNL     1       1.228  -8.791  -1.512  0.00  0.00    +0.009 A 
ATOM     29  C   UNL     1       2.304  -9.657  -1.552  0.00  0.00    +0.046 A 
ATOM     30  C   UNL     1       3.210  -9.587  -2.601  0.00  0.00    +0.120 A 
ATOM     31  C   UNL     1       3.032  -8.649  -3.607  0.00  0.00    +0.046 A 
ATOM     32  C   UNL     1       1.952  -7.789  -3.565  0.00  0.00    +0.009 A 
BRANCH  30  33
ATOM     33  O   UNL     1       4.270 -10.437  -2.643  0.00  0.00    -0.495 OA
ATOM     34  C   UNL     1       5.161 -10.309  -3.752  0.00  0.00    +0.277 C 
ENDBRANCH  30  33
ENDBRANCH  16  27
BRANCH  10  35
ATOM     35  O   UNL     1      -2.191 -13.053   0.015  0.00  0.00    -0.495 OA
ATOM     36  C   UNL     1      -2.316 -14.347  -0.579  0.00  0.00    +0.277 C 
ENDBRANCH  10  35
TORSDOF 4
