REMARK  Name = ZINC65739441
REMARK  13 active torsions:
REMARK  status: ('A' for Active; 'I' for Inactive)
REMARK    1  A    between atoms: C_1  and  C_2
REMARK    2  A    between atoms: C_2  and  C_3
REMARK    3  A    between atoms: C_6  and  C_11
REMARK    4  A    between atoms: N_8  and  C_10
REMARK    5  A    between atoms: N_13  and  C_14
REMARK    6  A    between atoms: C_14  and  C_16
REMARK    7  A    between atoms: C_14  and  C_32
REMARK    8  A    between atoms: C_18  and  O_31
REMARK    9  A    between atoms: C_20  and  O_30
REMARK   10  A    between atoms: C_22  and  O_29
REMARK   11  A    between atoms: C_24  and  S_27
REMARK   12  A    between atoms: S_27  and  C_28
REMARK   13  A    between atoms: C_32  and  C_34
REMARK                            x       y       z     vdW  Elec       q    Type
REMARK                         _______ _______ _______ _____ _____    ______ ____
ROOT
ATOM      1  C   UNL     1      -4.581  -0.890  -4.934  0.00  0.00    +0.122 C 
ENDROOT
BRANCH   1   2
ATOM      2  C   UNL     1      -5.708   0.066  -5.329  0.00  0.00    +0.172 C 
ATOM      3  C   UNL     1      -6.910  -0.154  -4.407  0.00  0.00    +0.176 C 
ATOM      4  C   UNL     1      -8.055   0.764  -4.846  0.00  0.00    +0.177 C 
ATOM      5  C   UNL     1      -8.388   0.481  -6.314  0.00  0.00    +0.184 C 
ATOM      6  C   UNL     1      -7.128   0.677  -7.162  0.00  0.00    +0.207 C 
ATOM      7  O   UNL     1      -6.093  -0.184  -6.682  0.00  0.00    -0.356 OA
BRANCH   6   8
ATOM      8  S   UNL     1      -7.495   0.276  -8.893  0.00  0.00    -0.131 S 
ATOM      9  C   UNL     1      -5.967   0.700  -9.775  0.00  0.00    +0.087 C 
ENDBRANCH   6   8
BRANCH   5  10
ATOM     10  O   UNL     1      -8.850  -0.864  -6.449  0.00  0.00    -0.386 OA
ATOM     11  H   UNL     1      -9.080  -1.113  -7.354  0.00  0.00    +0.210 HD
ENDBRANCH   5  10
BRANCH   4  12
ATOM     12  O   UNL     1      -9.206   0.514  -4.037  0.00  0.00    -0.386 OA
ATOM     13  H   UNL     1      -9.970   1.062  -4.260  0.00  0.00    +0.210 HD
ENDBRANCH   4  12
BRANCH   3  14
ATOM     14  O   UNL     1      -7.332  -1.517  -4.490  0.00  0.00    -0.387 OA
ATOM     15  H   UNL     1      -8.091  -1.729  -3.931  0.00  0.00    +0.210 HD
ENDBRANCH   3  14
ENDBRANCH   1   2
BRANCH   1  18
ATOM     16  C   UNL     1      -3.612  -1.612  -2.818  0.00  0.00    +0.200 C 
ATOM     17  O   UNL     1      -3.422  -2.704  -3.311  0.00  0.00    -0.278 OA
ATOM     18  N   UNL     1      -4.186  -0.634  -3.547  0.00  0.00    -0.310 N 
ATOM     19  H   UNL     1      -4.337   0.239  -3.153  0.00  0.00    +0.149 HD
BRANCH  16  22
ATOM     20  C   UNL     1      -1.433  -0.534   0.013  0.00  0.00    -0.029 C 
ATOM     21  C   UNL     1      -2.142  -0.224  -1.332  0.00  0.00    -0.005 C 
ATOM     22  C   UNL     1      -3.206  -1.349  -1.391  0.00  0.00    +0.019 C 
ATOM     23  N   UNL     1      -2.534  -2.534  -0.818  0.00  0.00    +0.386 N 
ATOM     24  C   UNL     1      -1.446  -2.076   0.070  0.00  0.00    -0.075 C 
ATOM     25  C   UNL     1      -3.500  -3.324  -0.042  0.00  0.00    -0.095 C 
ATOM     26  H   UNL     1      -2.152  -3.101  -1.560  0.00  0.00    -0.081 HD
BRANCH  20  28
ATOM     27  C   UNL     1      -0.019   1.526   0.010  0.00  0.00    +0.004 C 
ATOM     28  C   UNL     1       0.002  -0.004   0.002  0.00  0.00    -0.002 C 
ENDBRANCH  20  28
ENDBRANCH  16  22
ENDBRANCH   1  18
BRANCH   1  29
ATOM     29  C   UNL     1      -3.379  -0.670  -5.855  0.00  0.00    +0.100 C 
ATOM     30  C   UNL     1      -2.252  -1.627  -5.461  0.00  0.00    +0.026 C 
ATOM     31 CL   UNL     1      -3.865  -0.985  -7.563  0.00  0.00    -0.120 Cl
ENDBRANCH   1  29
TORSDOF 9
