REMARK  Name = ZINC66153871
REMARK  7 active torsions:
REMARK  status: ('A' for Active; 'I' for Inactive)
REMARK    1  A    between atoms: C_4  and  N_16
REMARK    2  A    between atoms: C_5  and  C_7
REMARK    3  A    between atoms: N_9  and  C_10
REMARK    4  A    between atoms: C_10  and  C_11
REMARK    5  A    between atoms: C_17  and  C_19
REMARK    6  A    between atoms: C_19  and  C_20
REMARK    7  A    between atoms: C_23  and  N_26
REMARK                            x       y       z     vdW  Elec       q    Type
REMARK                         _______ _______ _______ _____ _____    ______ ____
ROOT
ATOM      1  C   UNL     1      -0.241   1.323  -0.097  0.00  0.00    +0.001 A 
ATOM      2  C   UNL     1       0.914   2.087  -0.134  0.00  0.00    +0.002 A 
ATOM      3  C   UNL     1       2.154   1.480  -0.118  0.00  0.00    +0.024 A 
ATOM      4  C   UNL     1       2.250   0.096  -0.064  0.00  0.00    +0.046 A 
ATOM      5  C   UNL     1       1.083  -0.680  -0.025  0.00  0.00    +0.058 A 
ATOM      6  C   UNL     1      -0.165  -0.052  -0.043  0.00  0.00    +0.015 A 
ENDROOT
BRANCH   5   7
ATOM      7  C   UNL     1       1.171  -2.152   0.032  0.00  0.00    +0.246 C 
ATOM      8  O   UNL     1       2.255  -2.692   0.143  0.00  0.00    -0.270 OA
ATOM      9  N   UNL     1       0.051  -2.898  -0.039  0.00  0.00    -0.304 N 
ATOM     10  H   UNL     1      -0.813  -2.467  -0.128  0.00  0.00    +0.149 HD
BRANCH   9  11
ATOM     11  C   UNL     1       0.140  -4.359   0.018  0.00  0.00    +0.179 C 
BRANCH  11  12
ATOM     12  C   UNL     1      -1.243  -4.950  -0.081  0.00  0.00    +0.122 A 
ATOM     13  C   UNL     1      -1.870  -5.300  -1.219  0.00  0.00    +0.046 A 
ATOM     14  C   UNL     1      -3.137  -5.807  -0.850  0.00  0.00    +0.041 A 
ATOM     15  C   UNL     1      -3.209  -5.737   0.492  0.00  0.00    +0.195 A 
ATOM     16  O   UNL     1      -2.057  -5.222   0.952  0.00  0.00    -0.466 OA
ENDBRANCH  11  12
ENDBRANCH   9  11
ENDBRANCH   5   7
BRANCH   4  17
ATOM     17  N   UNL     1       3.500  -0.518  -0.048  0.00  0.00    -0.285 N 
ATOM     18  C   UNL     1       4.574   0.151   0.416  0.00  0.00    +0.222 C 
ATOM     19  O   UNL     1       4.437   1.248   0.913  0.00  0.00    -0.275 OA
ATOM     20  H   UNL     1       3.598  -1.428  -0.371  0.00  0.00    +0.155 HD
BRANCH  18  21
ATOM     21  C   UNL     1       5.946  -0.465   0.317  0.00  0.00    +0.131 C 
BRANCH  21  22
ATOM     22  C   UNL     1       6.964   0.479   0.902  0.00  0.00    -0.039 A 
ATOM     23  C   UNL     1       7.575   1.421   0.096  0.00  0.00    +0.006 A 
ATOM     24  C   UNL     1       8.509   2.288   0.629  0.00  0.00    +0.023 A 
ATOM     25  C   UNL     1       8.833   2.214   1.977  0.00  0.00    +0.025 A 
ATOM     26  C   UNL     1       8.217   1.266   2.785  0.00  0.00    +0.023 A 
ATOM     27  C   UNL     1       7.280   0.406   2.247  0.00  0.00    +0.006 A 
BRANCH  25  28
ATOM     28  N   UNL     1       9.777   3.089   2.520  0.00  0.00    -0.358 N 
ATOM     29  H   UNL     1      10.207   3.750   1.955  0.00  0.00    +0.142 HD
ATOM     30  H   UNL     1      10.003   3.036   3.462  0.00  0.00    +0.142 HD
ENDBRANCH  25  28
ENDBRANCH  21  22
ENDBRANCH  18  21
ENDBRANCH   4  17
TORSDOF 7
