REMARK  Name = ZINC38065069
REMARK  7 active torsions:
REMARK  status: ('A' for Active; 'I' for Inactive)
REMARK    1  A    between atoms: C_1  and  C_2
REMARK    2  A    between atoms: C_2  and  C_3
REMARK    3  A    between atoms: C_3  and  C_5
REMARK    4  A    between atoms: C_3  and  N_6
REMARK    5  A    between atoms: N_6  and  C_7
REMARK    6  A    between atoms: C_7  and  C_9
REMARK    7  A    between atoms: C_7  and  C_19
REMARK                            x       y       z     vdW  Elec       q    Type
REMARK                         _______ _______ _______ _____ _____    ______ ____
ROOT
ATOM      1  C   UNL     1      -3.608  -0.609  -1.148  0.00  0.00    +0.047 C 
ENDROOT
BRANCH   1   2
ATOM      2  C   UNL     1      -3.707  -0.426  -2.640  0.00  0.00    -0.048 A 
ATOM      3  C   UNL     1      -4.890   0.011  -3.205  0.00  0.00    +0.052 A 
ATOM      4  C   UNL     1      -4.984   0.180  -4.577  0.00  0.00    +0.168 A 
ATOM      5  C   UNL     1      -3.882  -0.093  -5.385  0.00  0.00    +0.180 A 
ATOM      6  C   UNL     1      -2.699  -0.532  -4.812  0.00  0.00    +0.063 A 
ATOM      7  C   UNL     1      -2.612  -0.692  -3.441  0.00  0.00    +0.021 A 
ATOM      8 BR   UNL     1      -1.201  -0.903  -5.905  0.00  0.00    -0.046 Br
ATOM      9  O   UNL     1      -4.224   0.148  -6.685  0.00  0.00    -0.451 OA
ATOM     10  C   UNL     1      -5.663   0.178  -6.704  0.00  0.00    +0.466 C 
ATOM     11  O   UNL     1      -6.015   0.592  -5.371  0.00  0.00    -0.453 OA
ENDBRANCH   1   2
BRANCH   1  12
ATOM     12  C   UNL     1      -3.761  -2.069  -0.809  0.00  0.00    +0.201 C 
ATOM     13  O   UNL     1      -2.778  -2.753  -0.618  0.00  0.00    -0.277 OA
ATOM     14  N   UNL     1      -4.990  -2.615  -0.718  0.00  0.00    -0.330 N 
ATOM     15  H   UNL     1      -5.776  -2.068  -0.871  0.00  0.00    +0.145 HD
ATOM     16  H   UNL     1      -5.088  -3.555  -0.500  0.00  0.00    +0.145 HD
ENDBRANCH   1  12
BRANCH   1  17
ATOM     17  N   UNL     1      -2.300  -0.132  -0.681  0.00  0.00    +0.391 N 
ATOM     18  H   UNL     1      -1.569  -0.592  -1.203  0.00  0.00    -0.084 HD
ATOM     19  H   UNL     1      -2.196  -0.342   0.300  0.00  0.00    -0.084 HD
BRANCH  17  20
ATOM     20  C   UNL     1      -2.207   1.320  -0.884  0.00  0.00    -0.074 C 
ATOM     21  C   UNL     1      -3.226   2.027   0.011  0.00  0.00    -0.014 C 
BRANCH  20  23
ATOM     22  C   UNL     1       0.210   1.185  -1.502  0.00  0.00    +0.002 C 
ATOM     23  C   UNL     1      -0.797   1.796  -0.526  0.00  0.00    -0.019 C 
ENDBRANCH  20  23
ENDBRANCH  17  20
ENDBRANCH   1  17
TORSDOF 5
