REMARK  Name = ZINC04018941
REMARK  14 active torsions:
REMARK  status: ('A' for Active; 'I' for Inactive)
REMARK    1  A    between atoms: C_1  and  C_2
REMARK    2  A    between atoms: C_2  and  C_4
REMARK    3  A    between atoms: C_2  and  N_51
REMARK    4  A    between atoms: C_4  and  C_6
REMARK    5  A    between atoms: C_4  and  O_14
REMARK    6  A    between atoms: C_9  and  O_12
REMARK    7  A    between atoms: O_12  and  C_13
REMARK    8  A    between atoms: C_15  and  C_17
REMARK    9  A    between atoms: C_15  and  C_18
REMARK   10  A    between atoms: C_15  and  N_51
REMARK   11  A    between atoms: C_18  and  C_20
REMARK   12  A    between atoms: C_18  and  O_28
REMARK   13  A    between atoms: C_23  and  O_26
REMARK   14  A    between atoms: O_26  and  C_27
REMARK                            x       y       z     vdW  Elec       q    Type
REMARK                         _______ _______ _______ _____ _____    ______ ____
ROOT
ATOM      1  N   UNL     1       0.007  -1.977  -1.450  0.00  0.00    +0.386 N 
ATOM      2  H   UNL     1      -0.904  -2.404  -1.246  0.00  0.00    -0.085 HD
ATOM      3  H   UNL     1       0.686  -2.260  -0.733  0.00  0.00    -0.085 HD
ENDROOT
BRANCH   1   5
ATOM      4  C   UNL     1      -1.503  -0.119  -1.989  0.00  0.00    -0.011 C 
ATOM      5  C   UNL     1      -0.130  -0.508  -1.437  0.00  0.00    -0.041 C 
BRANCH   5   6
ATOM      6  C   UNL     1       0.002  -0.004   0.002  0.00  0.00    +0.130 C 
BRANCH   6   7
ATOM      7  C   UNL     1      -0.018   1.503   0.010  0.00  0.00    -0.020 A 
ATOM      8  C   UNL     1      -1.226   2.177   0.020  0.00  0.00    +0.009 A 
ATOM      9  C   UNL     1      -1.247   3.558   0.033  0.00  0.00    +0.046 A 
ATOM     10  C   UNL     1      -0.056   4.269   0.025  0.00  0.00    +0.120 A 
ATOM     11  C   UNL     1       1.154   3.591   0.010  0.00  0.00    +0.046 A 
ATOM     12  C   UNL     1       1.170   2.209   0.003  0.00  0.00    +0.009 A 
BRANCH  10  13
ATOM     13  O   UNL     1      -0.074   5.628   0.032  0.00  0.00    -0.495 OA
ATOM     14  C   UNL     1      -1.356   6.259   0.047  0.00  0.00    +0.277 C 
ENDBRANCH  10  13
ENDBRANCH   6   7
BRANCH   6  15
ATOM     15  O   UNL     1      -1.088  -0.499   0.783  0.00  0.00    -0.389 OA
ATOM     16  H   UNL     1      -1.958  -0.224   0.463  0.00  0.00    +0.210 HD
ENDBRANCH   6  15
ENDBRANCH   5   6
ENDBRANCH   1   5
BRANCH   1  17
ATOM     17  C   UNL     1       0.476  -2.435  -2.771  0.00  0.00    -0.041 C 
ATOM     18  C   UNL     1       2.003  -2.354  -2.828  0.00  0.00    -0.011 C 
BRANCH  17  19
ATOM     19  C   UNL     1       0.034  -3.884  -2.986  0.00  0.00    +0.130 C 
BRANCH  19  20
ATOM     20  C   UNL     1       0.405  -4.321  -4.379  0.00  0.00    -0.020 A 
ATOM     21  C   UNL     1       1.675  -4.804  -4.636  0.00  0.00    +0.009 A 
ATOM     22  C   UNL     1       2.015  -5.211  -5.912  0.00  0.00    +0.046 A 
ATOM     23  C   UNL     1       1.085  -5.124  -6.938  0.00  0.00    +0.120 A 
ATOM     24  C   UNL     1      -0.186  -4.634  -6.678  0.00  0.00    +0.046 A 
ATOM     25  C   UNL     1      -0.524  -4.234  -5.400  0.00  0.00    +0.009 A 
BRANCH  23  26
ATOM     26  O   UNL     1       1.420  -5.517  -8.195  0.00  0.00    -0.495 OA
ATOM     27  C   UNL     1       2.747  -6.011  -8.388  0.00  0.00    +0.277 C 
ENDBRANCH  23  26
ENDBRANCH  19  20
BRANCH  19  28
ATOM     28  O   UNL     1       0.685  -4.727  -2.033  0.00  0.00    -0.389 OA
ATOM     29  H   UNL     1       1.650  -4.712  -2.089  0.00  0.00    +0.210 HD
ENDBRANCH  19  28
ENDBRANCH  17  19
ENDBRANCH   1  17
TORSDOF 10
