REMARK  Name = ZINC08869023
REMARK  9 active torsions:
REMARK  status: ('A' for Active; 'I' for Inactive)
REMARK    1  A    between atoms: C_1  and  C_2
REMARK    2  A    between atoms: C_2  and  N_59
REMARK    3  A    between atoms: C_8  and  N_14
REMARK    4  A    between atoms: C_9  and  C_10
REMARK    5  A    between atoms: C_10  and  O_12
REMARK    6  A    between atoms: O_12  and  C_13
REMARK    7  A    between atoms: C_15  and  C_17
REMARK    8  A    between atoms: N_22  and  S_23
REMARK    9  A    between atoms: S_23  and  C_26
REMARK                            x       y       z     vdW  Elec       q    Type
REMARK                         _______ _______ _______ _____ _____    ______ ____
ROOT
ATOM      1  N   UNL     1      -0.141  -0.249   2.973  0.00  0.00    -0.278 N 
ATOM      2  C   UNL     1      -1.160   0.300   2.282  0.00  0.00    +0.236 C 
ATOM      3  O   UNL     1      -2.290  -0.108   2.442  0.00  0.00    -0.274 OA
ATOM      4  H   UNL     1       0.764   0.077   2.845  0.00  0.00    +0.155 HD
ENDROOT
BRANCH   1  10
ATOM      5  C   UNL     1      -0.081  -4.526   7.477  0.00  0.00    -0.074 C 
ATOM      6  C   UNL     1       0.851  -3.868   6.456  0.00  0.00    +0.018 C 
ATOM      7  C   UNL     1       0.003  -3.016   5.519  0.00  0.00    -0.025 A 
ATOM      8  C   UNL     1      -1.333  -3.211   5.446  0.00  0.00    -0.021 A 
ATOM      9  S   UNL     1      -1.899  -2.026   4.262  0.00  0.00    -0.079 S 
ATOM     10  C   UNL     1      -0.385  -1.280   3.866  0.00  0.00    +0.086 A 
ATOM     11  C   UNL     1       0.525  -1.971   4.658  0.00  0.00    +0.091 A 
ATOM     12  C   UNL     1      -2.126  -4.222   6.213  0.00  0.00    -0.035 C 
ATOM     13  N   UNL     1      -1.177  -5.218   6.767  0.00  0.00    +0.383 N 
ATOM     14  H   UNL     1      -0.780  -5.767   5.996  0.00  0.00    -0.081 HD
BRANCH  13  16
ATOM     15  C   UNL     1      -2.856  -6.995   6.889  0.00  0.00    -0.017 C 
ATOM     16  C   UNL     1      -1.883  -6.130   7.693  0.00  0.00    -0.082 C 
ENDBRANCH  13  16
BRANCH  11  17
ATOM     17  C   UNL     1       1.954  -1.654   4.626  0.00  0.00    +0.342 C 
ATOM     18  O   UNL     1       2.409  -0.820   5.386  0.00  0.00    -0.245 OA
BRANCH  17  19
ATOM     19  O   UNL     1       2.766  -2.287   3.755  0.00  0.00    -0.464 OA
ATOM     20  C   UNL     1       4.171  -1.922   3.779  0.00  0.00    +0.280 C 
ENDBRANCH  17  19
ENDBRANCH  11  17
ENDBRANCH   1  10
BRANCH   2  21
ATOM     21  C   UNL     1      -0.894   1.421   1.311  0.00  0.00    +0.166 C 
ATOM     22  C   UNL     1      -0.523   0.841  -0.071  0.00  0.00    +0.031 C 
ATOM     23  C   UNL     1      -1.224   1.812  -1.058  0.00  0.00    +0.019 C 
ATOM     24  C   UNL     1      -2.522   2.156  -0.287  0.00  0.00    +0.110 C 
ATOM     25  N   UNL     1      -2.113   2.230   1.127  0.00  0.00    -0.165 NA
BRANCH  25  26
ATOM     26  S   UNL     1      -2.894   3.080   2.315  0.00  0.00    +0.062 S 
ATOM     27  O   UNL     1      -4.269   3.108   1.957  0.00  0.00    -0.153 OA
ATOM     28  O   UNL     1      -2.440   2.556   3.555  0.00  0.00    -0.153 OA
BRANCH  26  29
ATOM     29  C   UNL     1      -2.317   4.743   2.229  0.00  0.00    +0.106 A 
ATOM     30  C   UNL     1      -1.150   5.104   2.877  0.00  0.00    +0.030 A 
ATOM     31  C   UNL     1      -0.695   6.407   2.806  0.00  0.00    +0.022 A 
ATOM     32  C   UNL     1      -1.413   7.353   2.096  0.00  0.00    +0.041 A 
ATOM     33  C   UNL     1      -2.583   6.992   1.453  0.00  0.00    +0.022 A 
ATOM     34  C   UNL     1      -3.035   5.688   1.520  0.00  0.00    +0.030 A 
ATOM     35 CL   UNL     1      -0.845   8.991   2.013  0.00  0.00    -0.084 Cl
ENDBRANCH  26  29
ENDBRANCH  25  26
ENDBRANCH   2  21
TORSDOF 7
