REMARK  Name = ZINC38980041
REMARK  4 active torsions:
REMARK  status: ('A' for Active; 'I' for Inactive)
REMARK    1  A    between atoms: C_3  and  C_8
REMARK    2  A    between atoms: N_14  and  N_15
REMARK    3  A    between atoms: C_16  and  C_17
REMARK    4  A    between atoms: C_22  and  O_23
REMARK                            x       y       z     vdW  Elec       q    Type
REMARK                         _______ _______ _______ _____ _____    ______ ____
ROOT
ATOM      1  C   UNL     1       3.684   2.192  -0.032  0.00  0.00    +0.264 C 
ATOM      2  N   UNL     1       3.541   3.437   0.738  0.00  0.00    -0.189 NA
ATOM      3  N   UNL     1       4.327   3.393   1.688  0.00  0.00    -0.219 N 
ATOM      4  C   UNL     1       5.058   2.247   1.732  0.00  0.00    +0.174 C 
ATOM      5  S   UNL     1       6.232   1.877   2.921  0.00  0.00    -0.015 S 
ATOM      6  N   UNL     1       4.724   1.440   0.696  0.00  0.00    -0.172 N 
ATOM      7  H   UNL     1       4.414   4.105   2.341  0.00  0.00    +0.176 HD
ENDROOT
BRANCH   1  10
ATOM      8  C   UNL     1      -0.007   1.399  -0.049  0.00  0.00    +0.002 A 
ATOM      9  C   UNL     1       1.183   2.103  -0.039  0.00  0.00    +0.007 A 
ATOM     10  C   UNL     1       2.387   1.424  -0.042  0.00  0.00    -0.001 A 
ATOM     11  C   UNL     1       2.402   0.042  -0.056  0.00  0.00    +0.027 A 
ATOM     12  C   UNL     1       1.212  -0.662  -0.066  0.00  0.00    +0.041 A 
ATOM     13  C   UNL     1       0.006   0.018  -0.062  0.00  0.00    +0.020 A 
ATOM     14 CL   UNL     1       1.230  -2.398  -0.083  0.00  0.00    -0.084 Cl
ENDBRANCH   1  10
BRANCH   6  15
ATOM     15  N   UNL     1       5.247   0.178   0.384  0.00  0.00    -0.183 NA
ATOM     16  C   UNL     1       6.244  -0.298   1.067  0.00  0.00    +0.142 C 
BRANCH  16  17
ATOM     17  C   UNL     1       6.866  -1.574   0.669  0.00  0.00    +0.038 A 
ATOM     18  C   UNL     1       7.935  -2.093   1.404  0.00  0.00    +0.028 A 
ATOM     19  C   UNL     1       8.512  -3.288   1.027  0.00  0.00    +0.020 A 
ATOM     20  C   UNL     1       8.036  -3.976  -0.077  0.00  0.00    +0.034 A 
ATOM     21  C   UNL     1       6.979  -3.472  -0.812  0.00  0.00    +0.061 A 
ATOM     22  C   UNL     1       6.384  -2.276  -0.444  0.00  0.00    +0.139 A 
ATOM     23 BR   UNL     1       6.339  -4.421  -2.318  0.00  0.00    -0.046 Br
ATOM     24 BR   UNL     1       9.960  -3.989   2.022  0.00  0.00    -0.050 Br
BRANCH  22  25
ATOM     25  O   UNL     1       5.341  -1.783  -1.162  0.00  0.00    -0.505 OA
ATOM     26  H   UNL     1       5.604  -1.204  -1.890  0.00  0.00    +0.292 HD
ENDBRANCH  22  25
ENDBRANCH  16  17
ENDBRANCH   6  15
TORSDOF 4
