REMARK  Name = ZINC39584328
REMARK  6 active torsions:
REMARK  status: ('A' for Active; 'I' for Inactive)
REMARK    1  A    between atoms: C_1  and  C_2
REMARK    2  A    between atoms: C_5  and  C_8
REMARK    3  A    between atoms: C_10  and  C_14
REMARK    4  A    between atoms: N_16  and  N_17
REMARK    5  A    between atoms: C_18  and  C_19
REMARK    6  A    between atoms: C_24  and  O_25
REMARK                            x       y       z     vdW  Elec       q    Type
REMARK                         _______ _______ _______ _____ _____    ______ ____
ROOT
ATOM      1  C   UNL     1       1.339  -7.169   0.966  0.00  0.00    +0.263 C 
ATOM      2  O   UNL     1       2.277  -7.273   0.204  0.00  0.00    -0.271 OA
ATOM      3  N   UNL     1       1.412  -7.700   2.203  0.00  0.00    -0.205 N 
ATOM      4  H   UNL     1       0.662  -7.617   2.812  0.00  0.00    +0.177 HD
ENDROOT
BRANCH   1   7
ATOM      5  C   UNL     1       0.061  -4.256  -0.021  0.00  0.00    +0.092 C 
ATOM      6  C   UNL     1       0.071  -5.030   1.081  0.00  0.00    +0.041 C 
ATOM      7  C   UNL     1       0.090  -6.445   0.530  0.00  0.00    +0.240 C 
ATOM      8  N   UNL     1       0.087  -6.239  -0.927  0.00  0.00    -0.170 NA
ATOM      9  N   UNL     1       0.065  -5.025  -1.142  0.00  0.00    -0.153 NA
BRANCH   5  14
ATOM     10  C   UNL     1      -0.018   1.503   0.010  0.00  0.00    +0.044 C 
ATOM     11  C   UNL     1       0.002  -0.004   0.002  0.00  0.00    -0.050 A 
ATOM     12  C   UNL     1       0.006  -0.686  -1.201  0.00  0.00    +0.004 A 
ATOM     13  C   UNL     1       0.025  -2.066  -1.215  0.00  0.00    +0.010 A 
ATOM     14  C   UNL     1       0.041  -2.772  -0.013  0.00  0.00    +0.002 A 
ATOM     15  C   UNL     1       0.037  -2.080   1.196  0.00  0.00    +0.010 A 
ATOM     16  C   UNL     1       0.023  -0.700   1.198  0.00  0.00    +0.004 A 
ENDBRANCH   5  14
ENDBRANCH   1   7
BRANCH   3  17
ATOM     17  N   UNL     1       2.573  -8.373   2.608  0.00  0.00    -0.188 NA
ATOM     18  C   UNL     1       2.644  -8.885   3.799  0.00  0.00    +0.142 C 
BRANCH  18  19
ATOM     19  C   UNL     1       3.864  -9.592   4.225  0.00  0.00    +0.038 A 
ATOM     20  C   UNL     1       3.943 -10.150   5.503  0.00  0.00    +0.028 A 
ATOM     21  C   UNL     1       5.088 -10.812   5.896  0.00  0.00    +0.020 A 
ATOM     22  C   UNL     1       6.161 -10.926   5.028  0.00  0.00    +0.034 A 
ATOM     23  C   UNL     1       6.095 -10.378   3.760  0.00  0.00    +0.061 A 
ATOM     24  C   UNL     1       4.950  -9.715   3.348  0.00  0.00    +0.139 A 
ATOM     25 BR   UNL     1       7.567 -10.541   2.584  0.00  0.00    -0.046 Br
ATOM     26 BR   UNL     1       5.193 -11.565   7.627  0.00  0.00    -0.050 Br
BRANCH  24  27
ATOM     27  O   UNL     1       4.883  -9.182   2.100  0.00  0.00    -0.505 OA
ATOM     28  H   UNL     1       5.196  -8.268   2.045  0.00  0.00    +0.292 HD
ENDBRANCH  24  27
ENDBRANCH  18  19
ENDBRANCH   3  17
TORSDOF 5
