REMARK  Name = ZINC12845828
REMARK  11 active torsions:
REMARK  status: ('A' for Active; 'I' for Inactive)
REMARK    1  A    between atoms: C_1  and  C_2
REMARK    2  A    between atoms: C_7  and  C_8
REMARK    3  A    between atoms: C_9  and  C_10
REMARK    4  A    between atoms: C_12  and  S_15
REMARK    5  A    between atoms: S_15  and  C_16
REMARK    6  A    between atoms: C_16  and  C_17
REMARK    7  A    between atoms: N_19  and  C_20
REMARK    8  A    between atoms: C_25  and  C_26
REMARK    9  A    between atoms: N_28  and  C_29
REMARK   10  A    between atoms: C_29  and  C_31
REMARK   11  A    between atoms: C_29  and  C_32
REMARK                            x       y       z     vdW  Elec       q    Type
REMARK                         _______ _______ _______ _____ _____    ______ ____
ROOT
ATOM      1  C   UNL     1       0.020   4.361   9.549  0.00  0.00    +0.228 C 
ATOM      2  O   UNL     1      -0.021   5.387   8.904  0.00  0.00    -0.275 OA
ATOM      3  N   UNL     1       0.039   4.412  10.896  0.00  0.00    -0.284 N 
ATOM      4  H   UNL     1      -0.010   3.593  11.413  0.00  0.00    +0.155 HD
ENDROOT
BRANCH   3   5
ATOM      5  C   UNL     1       0.128   5.641  11.545  0.00  0.00    +0.046 A 
ATOM      6  C   UNL     1       0.706   6.729  10.903  0.00  0.00    +0.024 A 
ATOM      7  C   UNL     1       0.793   7.946  11.549  0.00  0.00    +0.002 A 
ATOM      8  C   UNL     1       0.307   8.093  12.838  0.00  0.00    +0.001 A 
ATOM      9  C   UNL     1      -0.270   7.025  13.490  0.00  0.00    +0.015 A 
ATOM     10  C   UNL     1      -0.370   5.788  12.848  0.00  0.00    +0.058 A 
BRANCH  10  11
ATOM     11  C   UNL     1      -0.993   4.643  13.538  0.00  0.00    +0.246 C 
ATOM     12  O   UNL     1      -0.994   3.545  13.014  0.00  0.00    -0.270 OA
ATOM     13  N   UNL     1      -1.559   4.812  14.749  0.00  0.00    -0.305 N 
ATOM     14  H   UNL     1      -1.558   5.688  15.167  0.00  0.00    +0.150 HD
BRANCH  13  15
ATOM     15  C   UNL     1      -2.177   3.674  15.434  0.00  0.00    +0.100 C 
ATOM     16  C   UNL     1      -3.617   3.506  14.947  0.00  0.00    +0.033 C 
BRANCH  15  17
ATOM     17  C   UNL     1      -2.176   3.922  16.921  0.00  0.00    -0.027 A 
ATOM     18  C   UNL     1      -2.459   5.183  17.411  0.00  0.00    +0.005 A 
ATOM     19  C   UNL     1      -2.458   5.411  18.775  0.00  0.00    +0.000 A 
ATOM     20  C   UNL     1      -2.175   4.377  19.648  0.00  0.00    +0.000 A 
ATOM     21  C   UNL     1      -1.893   3.116  19.157  0.00  0.00    +0.000 A 
ATOM     22  C   UNL     1      -1.898   2.887  17.794  0.00  0.00    +0.005 A 
ENDBRANCH  15  17
ENDBRANCH  13  15
ENDBRANCH  10  11
ENDBRANCH   3   5
BRANCH   1  23
ATOM     23  C   UNL     1       0.049   3.029   8.845  0.00  0.00    +0.173 C 
BRANCH  23  24
ATOM     24  S   UNL     1       0.014   3.292   7.051  0.00  0.00    -0.075 S 
BRANCH  24  27
ATOM     25  C   UNL     1       0.079   0.051   4.927  0.00  0.00    +0.150 A 
ATOM     26  N   UNL     1       0.042   1.363   5.082  0.00  0.00    -0.202 NA
ATOM     27  C   UNL     1       0.052   1.663   6.380  0.00  0.00    +0.209 A 
ATOM     28  N   UNL     1       0.097   0.553   7.081  0.00  0.00    -0.145 NA
ATOM     29  N   UNL     1       0.109  -0.512   6.166  0.00  0.00    -0.258 N 
ATOM     30  H   UNL     1       0.135  -1.459   6.374  0.00  0.00    +0.191 HD
BRANCH  25  32
ATOM     31  C   UNL     1       0.049   0.013   2.490  0.00  0.00    +0.012 C 
ATOM     32  C   UNL     1       0.081  -0.671   3.649  0.00  0.00    +0.048 C 
BRANCH  31  39
ATOM     33  C   UNL     1      -0.019   1.503   0.011  0.00  0.00    +0.044 C 
ATOM     34  C   UNL     1       0.018  -0.004   0.002  0.00  0.00    -0.043 A 
ATOM     35  C   UNL     1       0.026  -0.689  -1.195  0.00  0.00    +0.004 A 
ATOM     36  C   UNL     1       0.061  -2.072  -1.205  0.00  0.00    +0.000 A 
ATOM     37  C   UNL     1       0.088  -2.779  -0.015  0.00  0.00    +0.001 A 
ATOM     38  C   UNL     1       0.081  -2.108   1.190  0.00  0.00    +0.008 A 
ATOM     39  C   UNL     1       0.051  -0.711   1.208  0.00  0.00    -0.022 A 
ENDBRANCH  31  39
ENDBRANCH  25  32
ENDBRANCH  24  27
ENDBRANCH  23  24
ENDBRANCH   1  23
TORSDOF 9
