REMARK  Name = ZINC63974369
REMARK  7 active torsions:
REMARK  status: ('A' for Active; 'I' for Inactive)
REMARK    1  A    between atoms: C_4  and  C_7
REMARK    2  A    between atoms: N_9  and  C_10
REMARK    3  A    between atoms: C_10  and  C_12
REMARK    4  A    between atoms: C_10  and  C_24
REMARK    5  A    between atoms: N_26  and  N_27
REMARK    6  A    between atoms: C_28  and  C_29
REMARK    7  A    between atoms: C_34  and  C_35
REMARK                            x       y       z     vdW  Elec       q    Type
REMARK                         _______ _______ _______ _____ _____    ______ ____
ROOT
ATOM      1  C   UNL     1       4.995  -2.743  -0.058  0.00  0.00    +0.189 C 
ENDROOT
BRANCH   1   2
ATOM      2  C   UNL     1       5.042  -2.954  -1.572  0.00  0.00    +0.156 C 
ATOM      3  C   UNL     1       5.307  -1.615  -2.219  0.00  0.00    -0.009 A 
ATOM      4  C   UNL     1       6.416  -0.862  -1.932  0.00  0.00    +0.006 A 
ATOM      5  C   UNL     1       6.596   0.359  -2.564  0.00  0.00    +0.000 A 
ATOM      6  C   UNL     1       5.665   0.819  -3.479  0.00  0.00    +0.001 A 
ATOM      7  C   UNL     1       4.544   0.069  -3.776  0.00  0.00    +0.013 A 
ATOM      8  C   UNL     1       4.358  -1.159  -3.145  0.00  0.00    +0.045 A 
ATOM      9  C   UNL     1       3.185  -2.012  -3.414  0.00  0.00    +0.283 C 
ATOM     10  O   UNL     1       2.347  -1.642  -4.212  0.00  0.00    -0.267 OA
ATOM     11  N   UNL     1       3.032  -3.190  -2.791  0.00  0.00    -0.105 NA
ATOM     12  N   UNL     1       3.815  -3.661  -1.968  0.00  0.00    -0.305 N 
ATOM     13  H   UNL     1       3.618  -4.523  -1.569  0.00  0.00    +0.181 HD
ENDBRANCH   1   2
BRANCH   1  16
ATOM     14  C   UNL     1       3.648  -0.735   0.245  0.00  0.00    +0.245 C 
ATOM     15  O   UNL     1       4.605  -0.075  -0.110  0.00  0.00    -0.270 OA
ATOM     16  N   UNL     1       3.741  -2.078   0.304  0.00  0.00    -0.298 N 
ATOM     17  H   UNL     1       2.977  -2.605   0.587  0.00  0.00    +0.150 HD
BRANCH  14  21
ATOM     18  C   UNL     1       0.011   1.192   1.294  0.00  0.00    +0.000 A 
ATOM     19  C   UNL     1       1.099   1.946   0.892  0.00  0.00    +0.001 A 
ATOM     20  C   UNL     1       2.283   1.326   0.550  0.00  0.00    +0.013 A 
ATOM     21  C   UNL     1       2.382  -0.065   0.610  0.00  0.00    +0.037 A 
ATOM     22  C   UNL     1       1.281  -0.820   1.017  0.00  0.00    +0.013 A 
ATOM     23  C   UNL     1       0.103  -0.188   1.357  0.00  0.00    +0.001 A 
ENDBRANCH  14  21
ENDBRANCH   1  16
BRANCH   1  24
ATOM     24  C   UNL     1       5.076  -4.077   0.638  0.00  0.00    +0.255 C 
ATOM     25  O   UNL     1       4.062  -4.627   1.014  0.00  0.00    -0.272 OA
ATOM     26  N   UNL     1       6.274  -4.660   0.842  0.00  0.00    -0.206 N 
ATOM     27  H   UNL     1       7.089  -4.188   0.608  0.00  0.00    +0.177 HD
BRANCH  26  28
ATOM     28  N   UNL     1       6.343  -5.946   1.391  0.00  0.00    -0.192 NA
ATOM     29  C   UNL     1       7.475  -6.534   1.506  0.00  0.00    +0.118 C 
BRANCH  29  30
ATOM     30  C   UNL     1       7.538  -7.960   1.989  0.00  0.00    +0.125 C 
ATOM     31  C   UNL     1       8.428  -8.071   3.210  0.00  0.00    +0.123 C 
ATOM     32  N   UNL     1       9.398  -8.860   2.877  0.00  0.00    -0.161 NA
ATOM     33  N   UNL     1       9.290  -9.313   1.567  0.00  0.00    -0.153 NA
ATOM     34  C   UNL     1       8.228  -8.840   0.965  0.00  0.00    +0.084 C 
BRANCH  34  35
ATOM     35  C   UNL     1       7.794  -9.104  -0.415  0.00  0.00    -0.001 A 
ATOM     36  C   UNL     1       6.629  -8.510  -0.911  0.00  0.00    +0.012 A 
ATOM     37  C   UNL     1       6.227  -8.761  -2.205  0.00  0.00    +0.039 A 
ATOM     38  C   UNL     1       6.976  -9.602  -3.015  0.00  0.00    +0.123 A 
ATOM     39  C   UNL     1       8.132 -10.195  -2.530  0.00  0.00    +0.039 A 
ATOM     40  C   UNL     1       8.547  -9.947  -1.239  0.00  0.00    +0.012 A 
ATOM     41  F   UNL     1       6.576  -9.845  -4.282  0.00  0.00    -0.205 F 
ENDBRANCH  34  35
ENDBRANCH  29  30
ENDBRANCH  26  28
ENDBRANCH   1  24
TORSDOF 7
