REMARK  Name = ZINC02177950
REMARK  15 active torsions:
REMARK  status: ('A' for Active; 'I' for Inactive)
REMARK    1  A    between atoms: C_1  and  C_2
REMARK    2  A    between atoms: C_2  and  O_3
REMARK    3  A    between atoms: O_3  and  C_4
REMARK    4  A    between atoms: C_6  and  C_20
REMARK    5  A    between atoms: C_9  and  O_10
REMARK    6  A    between atoms: O_10  and  C_11
REMARK    7  A    between atoms: C_11  and  C_12
REMARK    8  A    between atoms: N_14  and  C_15
REMARK    9  A    between atoms: C_15  and  C_16
REMARK   10  A    between atoms: C_15  and  C_17
REMARK   11  A    between atoms: C_15  and  C_18
REMARK   12  A    between atoms: C_20  and  N_73
REMARK   13  A    between atoms: C_21  and  N_73
REMARK   14  A    between atoms: C_25  and  C_32
REMARK   15  A    between atoms: C_28  and  C_31
REMARK                            x       y       z     vdW  Elec       q    Type
REMARK                         _______ _______ _______ _____ _____    ______ ____
ROOT
ATOM      1  C   UNL     1       0.807   1.987   2.993  0.00  0.00    +0.163 A 
ATOM      2  C   UNL     1       1.347   1.611   4.213  0.00  0.00    +0.051 A 
ATOM      3  C   UNL     1       0.937   0.438   4.819  0.00  0.00    -0.060 A 
ATOM      4  C   UNL     1      -0.012  -0.362   4.210  0.00  0.00    +0.021 A 
ATOM      5  C   UNL     1      -0.559   0.009   2.996  0.00  0.00    +0.063 A 
ATOM      6  C   UNL     1      -0.148   1.182   2.381  0.00  0.00    +0.176 A 
ATOM      7 BR   UNL     1      -1.862  -1.085   2.171  0.00  0.00    -0.046 Br
ENDROOT
BRANCH   1   8
ATOM      8  O   UNL     1       1.210   3.140   2.396  0.00  0.00    -0.489 OA
BRANCH   8  10
ATOM      9  C   UNL     1       2.518   5.168   2.263  0.00  0.00    +0.048 C 
ATOM     10  C   UNL     1       2.193   3.917   3.082  0.00  0.00    +0.226 C 
ENDBRANCH   8  10
ENDBRANCH   1   8
BRANCH   6  11
ATOM     11  O   UNL     1      -0.682   1.547   1.184  0.00  0.00    -0.478 OA
BRANCH  11  12
ATOM     12  C   UNL     1      -0.013   1.086   0.008  0.00  0.00    +0.324 C 
BRANCH  12  13
ATOM     13  C   UNL     1      -0.742   1.585  -1.213  0.00  0.00    +0.251 C 
ATOM     14  O   UNL     1      -1.736   2.268  -1.088  0.00  0.00    -0.272 OA
ATOM     15  N   UNL     1      -0.288   1.272  -2.443  0.00  0.00    -0.308 N 
ATOM     16  H   UNL     1       0.507   0.726  -2.543  0.00  0.00    +0.149 HD
BRANCH  15  17
ATOM     17  C   UNL     1      -0.997   1.758  -3.630  0.00  0.00    +0.026 C 
ATOM     18  C   UNL     1      -1.018   3.288  -3.622  0.00  0.00    +0.031 C 
ATOM     19  C   UNL     1      -0.281   1.264  -4.889  0.00  0.00    +0.031 C 
ATOM     20  C   UNL     1      -2.432   1.228  -3.619  0.00  0.00    +0.031 C 
ENDBRANCH  15  17
ENDBRANCH  12  13
ENDBRANCH  11  12
ENDBRANCH   6  11
BRANCH   3  21
ATOM     21  C   UNL     1       1.526   0.031   6.144  0.00  0.00    -0.046 C 
BRANCH  21  22
ATOM     22  N   UNL     1       0.705   0.596   7.232  0.00  0.00    +0.385 N 
ATOM     23  H   UNL     1      -0.254   0.238   7.152  0.00  0.00    -0.085 HD
ATOM     24  H   UNL     1       0.697   1.619   7.154  0.00  0.00    -0.085 HD
BRANCH  22  25
ATOM     25  C   UNL     1       1.260   0.213   8.544  0.00  0.00    -0.067 C 
ATOM     26  C   UNL     1       2.688   0.746   8.674  0.00  0.00    -0.009 C 
ATOM     27  C   UNL     1       3.256   0.353  10.039  0.00  0.00    -0.011 C 
ATOM     28  C   UNL     1       3.268  -1.172  10.168  0.00  0.00    +0.010 C 
ATOM     29  C   UNL     1       1.839  -1.705  10.037  0.00  0.00    -0.033 C 
ATOM     30  C   UNL     1       1.271  -1.312   8.672  0.00  0.00    -0.006 C 
ATOM     31  C   UNL     1       0.969  -1.106  11.144  0.00  0.00    +0.013 C 
ATOM     32  C   UNL     1       0.958   0.418  11.016  0.00  0.00    -0.033 C 
ATOM     33  C   UNL     1       2.386   0.952  11.146  0.00  0.00    +0.010 C 
ATOM     34  C   UNL     1       0.389   0.811   9.651  0.00  0.00    -0.006 C 
ATOM     35  C   UNL     1       0.087   1.017  12.122  0.00  0.00    +0.011 C 
ATOM     36  C   UNL     1       1.850  -3.229  10.166  0.00  0.00    +0.011 C 
ENDBRANCH  22  25
ENDBRANCH  21  22
ENDBRANCH   3  21
TORSDOF 9
