REMARK  Name = ZINC08791041
REMARK  5 active torsions:
REMARK  status: ('A' for Active; 'I' for Inactive)
REMARK    1  A    between atoms: C_1  and  C_2
REMARK    2  A    between atoms: C_18  and  C_20
REMARK    3  A    between atoms: C_20  and  N_66
REMARK    4  A    between atoms: C_23  and  C_26
REMARK    5  A    between atoms: C_23  and  O_33
REMARK                            x       y       z     vdW  Elec       q    Type
REMARK                         _______ _______ _______ _____ _____    ______ ____
ROOT
ATOM      1  C   UNL     1       3.474   1.163   8.673  0.00  0.00    +0.011 C 
ATOM      2  C   UNL     1       2.459   2.212   8.214  0.00  0.00    -0.023 C 
ATOM      3  C   UNL     1       1.790   2.837   9.436  0.00  0.00    +0.007 C 
ATOM      4  C   UNL     1       1.174   1.736  10.302  0.00  0.00    +0.003 C 
ATOM      5  C   UNL     1       0.086   1.005   9.509  0.00  0.00    +0.037 C 
ATOM      6  C   UNL     1       0.688   0.464   8.185  0.00  0.00    +0.096 C 
ATOM      7  C   UNL     1       1.390   1.536   7.343  0.00  0.00    +0.030 C 
ATOM      8  C   UNL     1       0.363   2.599   6.947  0.00  0.00    +0.014 C 
ATOM      9  C   UNL     1       0.993   3.746   6.202  0.00  0.00    +0.042 C 
ATOM     10  C   UNL     1       2.205   4.367   6.927  0.00  0.00    +0.181 C 
ATOM     11  C   UNL     1       3.171   3.278   7.396  0.00  0.00    +0.052 C 
ATOM     12  O   UNL     1       2.880   5.053   5.804  0.00  0.00    -0.461 OA
ATOM     13  C   UNL     1       2.848   4.214   4.747  0.00  0.00    +0.309 C 
ATOM     14  O   UNL     1       3.663   4.175   3.855  0.00  0.00    -0.251 OA
ATOM     15  C   UNL     1       1.620   3.325   4.860  0.00  0.00    +0.088 C 
ATOM     16  C   UNL     1       1.250  -0.955   8.147  0.00  0.00    +0.196 C 
ATOM     17  O   UNL     1       0.026  -0.597   7.500  0.00  0.00    -0.368 OA
ENDROOT
BRANCH  15  18
ATOM     18  C   UNL     1       0.652   3.595   3.706  0.00  0.00    -0.064 C 
BRANCH  18  24
ATOM     19  C   UNL     1       0.442   3.521   1.295  0.00  0.00    -0.076 C 
ATOM     20  C   UNL     1       1.146   3.087   0.008  0.00  0.00    +0.021 C 
ATOM     21  C   UNL     1       1.286   1.562  -0.002  0.00  0.00    +0.088 C 
ATOM     22  C   UNL     1       2.062   1.121   1.242  0.00  0.00    +0.021 C 
ATOM     23  C   UNL     1       1.332   1.612   2.494  0.00  0.00    -0.076 C 
ATOM     24  N   UNL     1       1.252   3.088   2.454  0.00  0.00    +0.380 N 
ATOM     25  H   UNL     1       2.200   3.471   2.360  0.00  0.00    -0.082 HD
BRANCH  21  26
ATOM     26  C   UNL     1       2.031   1.132  -1.240  0.00  0.00    -0.016 A 
ATOM     27  C   UNL     1       2.965   1.975  -1.812  0.00  0.00    +0.008 A 
ATOM     28  C   UNL     1       3.652   1.579  -2.944  0.00  0.00    +0.020 A 
ATOM     29  C   UNL     1       3.396   0.344  -3.511  0.00  0.00    +0.041 A 
ATOM     30  C   UNL     1       2.457  -0.497  -2.942  0.00  0.00    +0.020 A 
ATOM     31  C   UNL     1       1.774  -0.102  -1.806  0.00  0.00    +0.008 A 
ATOM     32 CL   UNL     1       4.253  -0.151  -4.938  0.00  0.00    -0.084 Cl
ENDBRANCH  21  26
BRANCH  21  33
ATOM     33  O   UNL     1      -0.011   0.963   0.007  0.00  0.00    -0.384 OA
ATOM     34  H   UNL     1       0.002  -0.004   0.002  0.00  0.00    +0.211 HD
ENDBRANCH  21  33
ENDBRANCH  18  24
ENDBRANCH  15  18
TORSDOF 4
