REMARK  Name = ZINC59169050
REMARK  13 active torsions:
REMARK  status: ('A' for Active; 'I' for Inactive)
REMARK    1  A    between atoms: C_1  and  C_2
REMARK    2  A    between atoms: C_3  and  N_9
REMARK    3  A    between atoms: N_9  and  C_10
REMARK    4  A    between atoms: C_10  and  N_12
REMARK    5  A    between atoms: N_12  and  C_13
REMARK    6  A    between atoms: N_12  and  C_22
REMARK    7  A    between atoms: C_13  and  C_14
REMARK    8  A    between atoms: C_17  and  O_20
REMARK    9  A    between atoms: O_20  and  C_21
REMARK   10  A    between atoms: C_24  and  C_30
REMARK   11  A    between atoms: C_24  and  C_31
REMARK   12  A    between atoms: C_26  and  C_28
REMARK   13  A    between atoms: C_26  and  C_29
REMARK                            x       y       z     vdW  Elec       q    Type
REMARK                         _______ _______ _______ _____ _____    ______ ____
ROOT
ATOM      1  N   UNL     1       0.529   0.086  -4.693  0.00  0.00    -0.305 N 
ENDROOT
BRANCH   1   2
ATOM      2  C   UNL     1       0.655   1.548  -4.655  0.00  0.00    +0.073 C 
ATOM      3  C   UNL     1       1.752   1.933  -3.661  0.00  0.00    +0.009 C 
ATOM      4  C   UNL     1       1.888   3.454  -3.602  0.00  0.00    -0.072 C 
ATOM      5  N   UNL     1       0.619   4.106  -3.313  0.00  0.00    +0.386 N 
ATOM      6  C   UNL     1      -0.549   3.673  -4.062  0.00  0.00    -0.072 C 
ATOM      7  C   UNL     1      -0.662   2.156  -4.175  0.00  0.00    +0.009 C 
ATOM      8  C   UNL     1      -1.800   4.170  -3.299  0.00  0.00    -0.010 C 
ATOM      9  C   UNL     1      -0.596   4.305  -5.455  0.00  0.00    -0.010 C 
ATOM     10  C   UNL     1       2.526   3.978  -4.888  0.00  0.00    -0.010 C 
ATOM     11  C   UNL     1       2.857   3.783  -2.442  0.00  0.00    -0.010 C 
ATOM     12  H   UNL     1       0.421   3.996  -2.315  0.00  0.00    -0.084 HD
ATOM     13  H   UNL     1       0.737   5.113  -3.453  0.00  0.00    -0.084 HD
ENDBRANCH   1   2
BRANCH   1  14
ATOM     14  C   UNL     1       0.338  -0.603  -3.550  0.00  0.00    +0.138 C 
ATOM     15  S   UNL     1       0.320  -2.315  -3.576  0.00  0.00    -0.018 S 
BRANCH  14  16
ATOM     16  N   UNL     1       0.161   0.055  -2.388  0.00  0.00    -0.296 N 
ATOM     17  H   UNL     1       0.096   1.023  -2.383  0.00  0.00    +0.154 HD
BRANCH  16  20
ATOM     18  C   UNL     1       1.757   0.912  -0.193  0.00  0.00    +0.047 C 
ATOM     19  C   UNL     1       0.832  -0.273  -0.091  0.00  0.00    -0.011 A 
ATOM     20  C   UNL     1       0.070  -0.657  -1.187  0.00  0.00    +0.037 A 
ATOM     21  C   UNL     1      -0.781  -1.750  -1.089  0.00  0.00    +0.023 A 
ATOM     22  C   UNL     1      -0.869  -2.452   0.098  0.00  0.00    +0.003 A 
ATOM     23  C   UNL     1      -0.111  -2.067   1.188  0.00  0.00    +0.020 A 
ATOM     24  C   UNL     1       0.743  -0.982   1.092  0.00  0.00    +0.046 A 
ATOM     25 CL   UNL     1       1.700  -0.507   2.461  0.00  0.00    -0.083 Cl
ENDBRANCH  16  20
ENDBRANCH  14  16
ENDBRANCH   1  14
BRANCH   1  26
ATOM     26  C   UNL     1       0.611  -0.624  -5.971  0.00  0.00    +0.142 C 
BRANCH  26  27
ATOM     27  C   UNL     1      -0.768  -0.742  -6.569  0.00  0.00    -0.030 A 
ATOM     28  C   UNL     1      -1.559  -1.836  -6.270  0.00  0.00    +0.009 A 
ATOM     29  C   UNL     1      -2.822  -1.946  -6.817  0.00  0.00    +0.046 A 
ATOM     30  C   UNL     1      -3.298  -0.959  -7.668  0.00  0.00    +0.120 A 
ATOM     31  C   UNL     1      -2.502   0.138  -7.966  0.00  0.00    +0.046 A 
ATOM     32  C   UNL     1      -1.241   0.247  -7.412  0.00  0.00    +0.009 A 
BRANCH  30  33
ATOM     33  O   UNL     1      -4.540  -1.065  -8.208  0.00  0.00    -0.495 OA
ATOM     34  C   UNL     1      -4.964  -0.011  -9.074  0.00  0.00    +0.277 C 
ENDBRANCH  30  33
ENDBRANCH  26  27
ENDBRANCH   1  26
TORSDOF 7
