REMARK  Name = ZINC37627461
REMARK  5 active torsions:
REMARK  status: ('A' for Active; 'I' for Inactive)
REMARK    1  A    between atoms: C_2  and  N_12
REMARK    2  A    between atoms: C_13  and  C_15
REMARK    3  A    between atoms: C_15  and  C_17
REMARK    4  A    between atoms: C_15  and  N_21
REMARK    5  A    between atoms: C_17  and  C_18
REMARK                            x       y       z     vdW  Elec       q    Type
REMARK                         _______ _______ _______ _____ _____    ______ ____
ROOT
ATOM      1  N   UNL     1       1.156   3.494   0.010  0.00  0.00    -0.286 N 
ATOM      2  C   UNL     1      -0.017   4.152  -0.077  0.00  0.00    +0.203 C 
ATOM      3  O   UNL     1      -1.061   3.535  -0.071  0.00  0.00    -0.277 OA
ATOM      4  H   UNL     1       1.987   3.990   0.070  0.00  0.00    +0.155 HD
ENDROOT
BRANCH   1   6
ATOM      5  C   UNL     1       0.148   1.386   0.624  0.00  0.00    +0.073 A 
ATOM      6  C   UNL     1       1.174   2.093   0.013  0.00  0.00    +0.051 A 
ATOM      7  C   UNL     1       2.219   1.410  -0.596  0.00  0.00    +0.043 A 
ATOM      8  C   UNL     1       2.237   0.028  -0.594  0.00  0.00    +0.066 A 
ATOM      9  C   UNL     1       1.212  -0.681   0.015  0.00  0.00    +0.163 A 
ATOM     10  C   UNL     1       0.166   0.000   0.627  0.00  0.00    +0.164 A 
ATOM     11  O   UNL     1      -0.844  -0.678   1.237  0.00  0.00    -0.485 OA
ATOM     12  C   UNL     1      -0.987  -2.062   0.898  0.00  0.00    +0.270 C 
ATOM     13  C   UNL     1       0.401  -2.714   0.945  0.00  0.00    +0.270 C 
ATOM     14  O   UNL     1       1.244  -2.042   0.003  0.00  0.00    -0.485 OA
ATOM     15 BR   UNL     1       3.619   2.372  -1.428  0.00  0.00    -0.048 Br
ENDBRANCH   1   6
BRANCH   2  16
ATOM     16  C   UNL     1      -0.031   5.655  -0.183  0.00  0.00    +0.022 C 
BRANCH  16  17
ATOM     17  N   UNL     1      -1.320   6.096  -0.734  0.00  0.00    +0.386 N 
ATOM     18  H   UNL     1      -2.066   5.794  -0.126  0.00  0.00    -0.089 HD
ATOM     19  H   UNL     1      -1.329   7.102  -0.805  0.00  0.00    -0.089 HD
ATOM     20  H   UNL     1      -1.449   5.693  -1.650  0.00  0.00    -0.089 HD
ENDBRANCH  16  17
BRANCH  16  21
ATOM     21  C   UNL     1       0.165   6.266   1.206  0.00  0.00    +0.088 C 
BRANCH  21  22
ATOM     22  C   UNL     1       0.273   7.764   1.086  0.00  0.00    +0.209 C 
ATOM     23  O   UNL     1       0.201   8.292  -0.004  0.00  0.00    -0.276 OA
ATOM     24  N   UNL     1       0.451   8.518   2.189  0.00  0.00    -0.329 N 
ATOM     25  H   UNL     1       0.508   8.096   3.060  0.00  0.00    +0.145 HD
ATOM     26  H   UNL     1       0.521   9.482   2.111  0.00  0.00    +0.145 HD
ENDBRANCH  21  22
ENDBRANCH  16  21
ENDBRANCH   2  16
TORSDOF 5
