REMARK  Name = ZINC01886819
REMARK  13 active torsions:
REMARK  status: ('A' for Active; 'I' for Inactive)
REMARK    1  A    between atoms: C_1  and  C_2
REMARK    2  A    between atoms: C_4  and  C_7
REMARK    3  A    between atoms: C_7  and  C_8
REMARK    4  A    between atoms: C_8  and  C_10
REMARK    5  A    between atoms: C_13  and  O_17
REMARK    6  A    between atoms: C_15  and  O_16
REMARK    7  A    between atoms: O_17  and  C_18
REMARK    8  A    between atoms: C_18  and  C_19
REMARK    9  A    between atoms: C_21  and  O_34
REMARK   10  A    between atoms: C_23  and  O_33
REMARK   11  A    between atoms: C_25  and  O_32
REMARK   12  A    between atoms: C_27  and  C_30
REMARK   13  A    between atoms: C_30  and  O_31
REMARK                            x       y       z     vdW  Elec       q    Type
REMARK                         _______ _______ _______ _____ _____    ______ ____
ROOT
ATOM      1  C   UNL     1      -4.109  -3.583   1.385  0.00  0.00    +0.059 A 
ATOM      2  C   UNL     1      -4.430  -4.633   0.513  0.00  0.00    +0.018 A 
ATOM      3  C   UNL     1      -5.557  -5.373   0.721  0.00  0.00    +0.046 A 
ATOM      4  C   UNL     1      -6.397  -5.092   1.796  0.00  0.00    +0.124 A 
ATOM      5  C   UNL     1      -6.095  -4.056   2.669  0.00  0.00    +0.091 A 
ATOM      6  C   UNL     1      -4.951  -3.300   2.475  0.00  0.00    +0.131 A 
ENDROOT
BRANCH   1   7
ATOM      7  C   UNL     1      -2.899  -2.787   1.164  0.00  0.00    +0.172 C 
ATOM      8  O   UNL     1      -2.621  -1.882   1.923  0.00  0.00    -0.292 OA
BRANCH   7   9
ATOM      9  C   UNL     1      -1.999  -3.093  -0.006  0.00  0.00    +0.135 C 
BRANCH   9  13
ATOM     10  C   UNL     1      -0.018   1.503   0.010  0.00  0.00    +0.073 C 
ATOM     11  C   UNL     1       0.002  -0.004   0.002  0.00  0.00    +0.076 A 
ATOM     12  N   UNL     1      -1.013  -0.832   0.002  0.00  0.00    -0.249 NA
ATOM     13  C   UNL     1      -0.834  -2.137  -0.006  0.00  0.00    +0.056 A 
ATOM     14  C   UNL     1       0.449  -2.582  -0.014  0.00  0.00    +0.070 A 
ATOM     15  S   UNL     1       1.335  -1.032  -0.017  0.00  0.00    -0.081 S 
ENDBRANCH   9  13
ENDBRANCH   7   9
ENDBRANCH   1   7
BRANCH   6  16
ATOM     16  O   UNL     1      -4.648  -2.291   3.328  0.00  0.00    -0.506 OA
ATOM     17  H   UNL     1      -5.021  -1.436   3.073  0.00  0.00    +0.292 HD
ENDBRANCH   6  16
BRANCH   4  18
ATOM     18  O   UNL     1      -7.515  -5.834   1.991  0.00  0.00    -0.489 OA
BRANCH  18  19
ATOM     19  C   UNL     1      -7.768  -6.885   1.056  0.00  0.00    +0.263 C 
BRANCH  19  20
ATOM     20  C   UNL     1      -9.063  -7.605   1.436  0.00  0.00    +0.187 C 
ATOM     21  C   UNL     1      -9.269  -8.807   0.510  0.00  0.00    +0.177 C 
ATOM     22  C   UNL     1     -10.597  -9.487   0.857  0.00  0.00    +0.177 C 
ATOM     23  C   UNL     1     -11.729  -8.462   0.740  0.00  0.00    +0.176 C 
ATOM     24  C   UNL     1     -11.428  -7.273   1.657  0.00  0.00    +0.175 C 
ATOM     25  O   UNL     1     -10.166  -6.706   1.301  0.00  0.00    -0.362 OA
BRANCH  23  26
ATOM     26  O   UNL     1     -11.827  -8.010  -0.612  0.00  0.00    -0.386 OA
ATOM     27  H   UNL     1     -12.525  -7.357  -0.759  0.00  0.00    +0.210 HD
ENDBRANCH  23  26
BRANCH  22  28
ATOM     28  O   UNL     1     -10.832 -10.567  -0.049  0.00  0.00    -0.386 OA
ATOM     29  H   UNL     1     -11.658 -11.043   0.113  0.00  0.00    +0.210 HD
ENDBRANCH  22  28
BRANCH  21  30
ATOM     30  O   UNL     1      -9.299  -8.363  -0.848  0.00  0.00    -0.386 OA
ATOM     31  H   UNL     1      -9.427  -9.074  -1.491  0.00  0.00    +0.210 HD
ENDBRANCH  21  30
BRANCH  24  32
ATOM     32  C   UNL     1     -11.381  -7.750   3.111  0.00  0.00    +0.190 C 
BRANCH  32  33
ATOM     33  O   UNL     1     -11.216  -6.624   3.975  0.00  0.00    -0.392 OA
ATOM     34  H   UNL     1     -11.178  -6.852   4.915  0.00  0.00    +0.210 HD
ENDBRANCH  32  33
ENDBRANCH  24  32
ENDBRANCH  19  20
ENDBRANCH  18  19
ENDBRANCH   4  18
TORSDOF 12
