REMARK  Name = ZINC26421692
REMARK  5 active torsions:
REMARK  status: ('A' for Active; 'I' for Inactive)
REMARK    1  A    between atoms: C_6  and  C_7
REMARK    2  A    between atoms: C_7  and  N_8
REMARK    3  A    between atoms: N_17  and  C_18
REMARK    4  A    between atoms: C_18  and  C_19
REMARK    5  A    between atoms: C_19  and  N_20
REMARK                            x       y       z     vdW  Elec       q    Type
REMARK                         _______ _______ _______ _____ _____    ______ ____
ROOT
ATOM      1  N   UNL     1      -3.691   0.055   3.556  0.00  0.00    -0.294 N 
ATOM      2  C   UNL     1      -3.279  -0.659   2.479  0.00  0.00    +0.204 A 
ATOM      3  N   UNL     1      -2.334  -0.257   1.680  0.00  0.00    -0.218 NA
ATOM      4  C   UNL     1      -1.694   0.907   1.869  0.00  0.00    +0.165 A 
ATOM      5  C   UNL     1      -2.052   1.716   2.959  0.00  0.00    +0.103 A 
ATOM      6  C   UNL     1      -3.116   1.246   3.846  0.00  0.00    +0.265 A 
ATOM      7  O   UNL     1      -3.472   1.902   4.809  0.00  0.00    -0.267 OA
ATOM      8  C   UNL     1      -1.233   2.860   2.917  0.00  0.00    +0.150 A 
ATOM      9  N   UNL     1      -0.435   2.756   1.891  0.00  0.00    -0.177 NA
ATOM     10  N   UNL     1      -0.698   1.558   1.213  0.00  0.00    -0.248 N 
ENDROOT
BRANCH   1  11
ATOM     11  C   UNL     1      -4.762  -0.465   4.410  0.00  0.00    +0.161 C 
BRANCH  11  17
ATOM     12  C   UNL     1      -3.980  -2.661   5.320  0.00  0.00    +0.006 A 
ATOM     13  C   UNL     1      -3.428  -3.430   6.327  0.00  0.00    +0.015 A 
ATOM     14  C   UNL     1      -3.071  -2.845   7.528  0.00  0.00    +0.018 A 
ATOM     15  C   UNL     1      -3.261  -1.488   7.719  0.00  0.00    +0.015 A 
ATOM     16  C   UNL     1      -3.808  -0.718   6.710  0.00  0.00    +0.006 A 
ATOM     17  C   UNL     1      -4.165  -1.304   5.510  0.00  0.00    -0.028 A 
ATOM     18 BR   UNL     1      -2.321  -3.898   8.908  0.00  0.00    -0.050 Br
ENDBRANCH  11  17
ENDBRANCH   1  11
BRANCH  10  19
ATOM     19  C   UNL     1      -0.013   1.086   0.008  0.00  0.00    +0.126 C 
BRANCH  19  20
ATOM     20  C   UNL     1      -0.753   1.593  -1.232  0.00  0.00    -0.063 C 
BRANCH  20  21
ATOM     21  N   UNL     1      -0.065   1.119  -2.440  0.00  0.00    +0.379 N 
ATOM     22  H   UNL     1      -0.597   1.483  -3.331  0.00  0.00    -0.090 HD
ATOM     23  H   UNL     1      -0.050   0.019  -2.446  0.00  0.00    -0.090 HD
ATOM     24  H   UNL     1       0.967   1.500  -2.448  0.00  0.00    -0.090 HD
ENDBRANCH  20  21
ENDBRANCH  19  20
ENDBRANCH  10  19
TORSDOF 5
