REMARK  Name = ZINC37646117
REMARK  7 active torsions:
REMARK  status: ('A' for Active; 'I' for Inactive)
REMARK    1  A    between atoms: C_1  and  C_2
REMARK    2  A    between atoms: C_2  and  C_4
REMARK    3  A    between atoms: C_2  and  N_15
REMARK    4  A    between atoms: C_13  and  O_14
REMARK    5  A    between atoms: N_15  and  C_16
REMARK    6  A    between atoms: C_16  and  C_17
REMARK    7  A    between atoms: N_21  and  C_23
REMARK                            x       y       z     vdW  Elec       q    Type
REMARK                         _______ _______ _______ _____ _____    ______ ____
ROOT
ATOM      1  C   UNL     1      -0.019   1.526   0.010  0.00  0.00    +0.029 C 
ATOM      2  C   UNL     1       0.002  -0.004   0.002  0.00  0.00    +0.084 C 
ENDROOT
BRANCH   2   3
ATOM      3  C   UNL     1       0.707  -0.490  -1.238  0.00  0.00    +0.011 A 
ATOM      4  C   UNL     1      -0.037  -0.817  -2.368  0.00  0.00    +0.009 A 
ATOM      5  C   UNL     1       0.568  -1.259  -3.504  0.00  0.00    +0.009 A 
ATOM      6  C   UNL     1       1.967  -1.390  -3.545  0.00  0.00    -0.014 A 
ATOM      7  C   UNL     1       2.624  -1.843  -4.701  0.00  0.00    +0.008 A 
ATOM      8  C   UNL     1       3.980  -1.956  -4.704  0.00  0.00    +0.001 A 
ATOM      9  C   UNL     1       4.730  -1.630  -3.575  0.00  0.00    +0.001 A 
ATOM     10  C   UNL     1       4.127  -1.189  -2.438  0.00  0.00    +0.012 A 
ATOM     11  C   UNL     1       2.729  -1.058  -2.397  0.00  0.00    +0.024 A 
ATOM     12  C   UNL     1       2.070  -0.599  -1.239  0.00  0.00    +0.129 A 
BRANCH  12  13
ATOM     13  O   UNL     1       2.783  -0.271  -0.131  0.00  0.00    -0.506 OA
ATOM     14  H   UNL     1       2.923  -1.008   0.479  0.00  0.00    +0.292 HD
ENDBRANCH  12  13
ENDBRANCH   2   3
BRANCH   2  15
ATOM     15  N   UNL     1      -1.376  -0.512   0.012  0.00  0.00    -0.309 NA
ATOM     16  H   UNL     1      -1.974   0.053  -0.571  0.00  0.00    +0.123 HD
BRANCH  15  17
ATOM     17  C   UNL     1      -1.898  -0.590   1.383  0.00  0.00    +0.083 C 
BRANCH  17  18
ATOM     18  C   UNL     1      -3.332  -1.123   1.353  0.00  0.00    -0.016 C 
ATOM     19  C   UNL     1      -3.355  -2.609   0.929  0.00  0.00    -0.016 C 
ATOM     20  C   UNL     1      -4.423  -3.266   1.823  0.00  0.00    -0.079 C 
ATOM     21  N   UNL     1      -4.989  -2.200   2.678  0.00  0.00    +0.378 N 
ATOM     22  C   UNL     1      -3.935  -1.156   2.781  0.00  0.00    -0.075 C 
ATOM     23  C   UNL     1      -5.306  -2.733   4.010  0.00  0.00    -0.096 C 
ATOM     24  H   UNL     1      -5.817  -1.813   2.251  0.00  0.00    -0.082 HD
ENDBRANCH  17  18
ENDBRANCH  15  17
ENDBRANCH   2  15
TORSDOF 5
