REMARK  Name = ZINC59500960
REMARK  6 active torsions:
REMARK  status: ('A' for Active; 'I' for Inactive)
REMARK    1  A    between atoms: C_4  and  C_7
REMARK    2  A    between atoms: C_7  and  C_8
REMARK    3  A    between atoms: C_11  and  C_14
REMARK    4  A    between atoms: C_16  and  C_22
REMARK    5  A    between atoms: C_22  and  C_24
REMARK    6  A    between atoms: C_22  and  O_30
REMARK                            x       y       z     vdW  Elec       q    Type
REMARK                         _______ _______ _______ _____ _____    ______ ____
ROOT
ATOM      1  C   UNL     1       5.450  -1.675   5.388  0.00  0.00    +0.109 C 
ATOM      2  C   UNL     1       4.249  -1.952   6.333  0.00  0.00    +0.131 C 
ATOM      3  N   UNL     1       3.995  -3.376   6.453  0.00  0.00    -0.361 N 
ATOM      4  C   UNL     1       4.901  -4.253   6.127  0.00  0.00    +0.126 C 
ATOM      5  S   UNL     1       6.300  -3.303   5.547  0.00  0.00    -0.083 S 
ATOM      6  N   UNL     1       4.802  -5.623   6.211  0.00  0.00    -0.339 N 
ATOM      7  H   UNL     1       3.987  -6.030   6.545  0.00  0.00    +0.144 HD
ATOM      8  H   UNL     1       5.546  -6.181   5.937  0.00  0.00    +0.144 HD
ATOM      9  H   UNL     1       3.135  -3.680   6.782  0.00  0.00    +0.162 HD
ENDROOT
BRANCH   1  13
ATOM     10  C   UNL     1       4.164  -0.959   1.377  0.00  0.00    -0.043 A 
ATOM     11  C   UNL     1       4.952  -0.028   2.027  0.00  0.00    +0.004 A 
ATOM     12  C   UNL     1       5.368  -0.259   3.325  0.00  0.00    +0.005 A 
ATOM     13  C   UNL     1       4.996  -1.422   3.973  0.00  0.00    -0.032 A 
ATOM     14  C   UNL     1       4.207  -2.353   3.324  0.00  0.00    +0.005 A 
ATOM     15  C   UNL     1       3.788  -2.120   2.027  0.00  0.00    +0.004 A 
BRANCH  10  16
ATOM     16  C   UNL     1       3.711  -0.707  -0.038  0.00  0.00    +0.070 C 
BRANCH  16  20
ATOM     17  C   UNL     1      -0.017   1.378   0.010  0.00  0.00    +0.000 A 
ATOM     18  C   UNL     1       1.171   2.086   0.002  0.00  0.00    +0.000 A 
ATOM     19  C   UNL     1       2.377   1.411  -0.013  0.00  0.00    +0.004 A 
ATOM     20  C   UNL     1       2.396   0.029  -0.020  0.00  0.00    -0.043 A 
ATOM     21  C   UNL     1       1.208  -0.679  -0.012  0.00  0.00    +0.004 A 
ATOM     22  C   UNL     1       0.002  -0.004   0.002  0.00  0.00    +0.000 A 
ENDBRANCH  16  20
ENDBRANCH  10  16
ENDBRANCH   1  13
BRANCH   2  23
ATOM     23  C   UNL     1       4.558  -1.380   7.718  0.00  0.00    +0.168 C 
BRANCH  23  24
ATOM     24  C   UNL     1       3.453  -1.751   8.673  0.00  0.00    -0.017 A 
ATOM     25  C   UNL     1       3.480  -2.971   9.322  0.00  0.00    +0.006 A 
ATOM     26  C   UNL     1       2.466  -3.312  10.197  0.00  0.00    +0.000 A 
ATOM     27  C   UNL     1       1.425  -2.431  10.425  0.00  0.00    +0.000 A 
ATOM     28  C   UNL     1       1.398  -1.210   9.777  0.00  0.00    +0.000 A 
ATOM     29  C   UNL     1       2.414  -0.869   8.904  0.00  0.00    +0.006 A 
ENDBRANCH  23  24
BRANCH  23  30
ATOM     30  O   UNL     1       5.795  -1.918   8.190  0.00  0.00    -0.385 OA
ATOM     31  H   UNL     1       5.800  -2.881   8.271  0.00  0.00    +0.210 HD
ENDBRANCH  23  30
ENDBRANCH   2  23
TORSDOF 6
