REMARK  Name = ZINC21698457
REMARK  6 active torsions:
REMARK  status: ('A' for Active; 'I' for Inactive)
REMARK    1  A    between atoms: C_1  and  N_2
REMARK    2  A    between atoms: C_6  and  C_8
REMARK    3  A    between atoms: C_8  and  N_9
REMARK    4  A    between atoms: N_9  and  C_10
REMARK    5  A    between atoms: C_15  and  C_16
REMARK    6  A    between atoms: N_18  and  C_19
REMARK                            x       y       z     vdW  Elec       q    Type
REMARK                         _______ _______ _______ _____ _____    ______ ____
ROOT
ATOM      1  C   UNL     1       0.070   1.568   0.032  0.00  0.00    +0.040 A 
ATOM      2  C   UNL     1       1.248   2.304   0.028  0.00  0.00    +0.024 A 
ATOM      3  C   UNL     1       2.467   1.657   0.013  0.00  0.00    +0.002 A 
ATOM      4  C   UNL     1       2.526   0.272   0.002  0.00  0.00    +0.001 A 
ATOM      5  C   UNL     1       1.368  -0.475   0.005  0.00  0.00    +0.015 A 
ATOM      6  C   UNL     1       0.126   0.166   0.020  0.00  0.00    +0.058 A 
ENDROOT
BRANCH   6   7
ATOM      7  C   UNL     1      -1.117  -0.627   0.024  0.00  0.00    +0.250 C 
ATOM      8  O   UNL     1      -2.194  -0.069  -0.065  0.00  0.00    -0.270 OA
ATOM      9  N   UNL     1      -1.060  -1.970   0.124  0.00  0.00    -0.281 N 
ATOM     10  H   UNL     1      -0.091  -2.469   0.277  0.00  0.00    +0.155 HD
BRANCH   9  11
ATOM     11  C   UNL     1      -2.232  -2.728   0.034  0.00  0.00    +0.034 A 
ATOM     12  C   UNL     1      -3.420  -2.237   0.557  0.00  0.00    +0.025 A 
ATOM     13  C   UNL     1      -4.577  -2.985   0.461  0.00  0.00    +0.022 A 
ATOM     14  C   UNL     1      -4.550  -4.229  -0.145  0.00  0.00    +0.041 A 
ATOM     15  C   UNL     1      -3.365  -4.724  -0.662  0.00  0.00    +0.022 A 
ATOM     16  C   UNL     1      -2.207  -3.977  -0.575  0.00  0.00    +0.025 A 
ATOM     17 CL   UNL     1      -6.004  -5.170  -0.258  0.00  0.00    -0.084 Cl
ENDBRANCH   9  11
ENDBRANCH   6   7
BRANCH   1  18
ATOM     18  N   UNL     1      -1.158   2.217   0.041  0.00  0.00    -0.335 N 
ATOM     19  H   UNL     1      -2.088   1.636  -0.049  0.00  0.00    +0.147 HD
BRANCH  18  20
ATOM     20  C   UNL     1      -1.215   3.675   0.171  0.00  0.00    +0.198 C 
BRANCH  20  26
ATOM     21  C   UNL     1      -5.932   7.586   0.334  0.00  0.00    +0.129 C 
ATOM     22  N   UNL     1      -4.534   7.149   0.351  0.00  0.00    -0.302 N 
ATOM     23  C   UNL     1      -4.236   5.838   0.244  0.00  0.00    +0.306 C 
ATOM     24  O   UNL     1      -5.128   5.020   0.135  0.00  0.00    -0.252 OA
ATOM     25  N   UNL     1      -2.950   5.436   0.260  0.00  0.00    -0.239 N 
ATOM     26  C   UNL     1      -2.653   4.125   0.153  0.00  0.00    +0.237 C 
ATOM     27  O   UNL     1      -3.543   3.309   0.044  0.00  0.00    -0.274 OA
ATOM     28  H   UNL     1      -3.727   7.889   0.450  0.00  0.00    +0.150 HD
ATOM     29  H   UNL     1      -2.143   6.177   0.359  0.00  0.00    +0.159 HD
ENDBRANCH  20  26
ENDBRANCH  18  20
ENDBRANCH   1  18
TORSDOF 5
