REMARK  Name = ZINC48858357
REMARK  5 active torsions:
REMARK  status: ('A' for Active; 'I' for Inactive)
REMARK    1  A    between atoms: C_7  and  N_14
REMARK    2  A    between atoms: C_8  and  C_11
REMARK    3  A    between atoms: C_11  and  N_13
REMARK    4  A    between atoms: C_19  and  C_21
REMARK    5  A    between atoms: C_21  and  O_22
REMARK                            x       y       z     vdW  Elec       q    Type
REMARK                         _______ _______ _______ _____ _____    ______ ____
ROOT
ATOM      1  C   UNL     1       0.103   1.462   0.061  0.00  0.00    +0.001 A 
ATOM      2  C   UNL     1       1.318   2.138   0.006  0.00  0.00    +0.002 A 
ATOM      3  C   UNL     1       2.498   1.460  -0.042  0.00  0.00    +0.026 A 
ATOM      4  C   UNL     1       2.497   0.055  -0.036  0.00  0.00    +0.048 A 
ATOM      5  C   UNL     1       1.260  -0.630   0.020  0.00  0.00    +0.020 A 
ATOM      6  C   UNL     1       0.063   0.099   0.068  0.00  0.00    +0.012 A 
ATOM      7  C   UNL     1       1.257  -2.045   0.025  0.00  0.00    +0.050 A 
ATOM      8  C   UNL     1       2.496  -2.701  -0.026  0.00  0.00    +0.040 A 
ATOM      9  C   UNL     1       3.675  -1.939  -0.079  0.00  0.00    +0.095 A 
ATOM     10  N   UNL     1       3.647  -0.631  -0.083  0.00  0.00    -0.360 N 
ATOM     11  H   UNL     1       4.485  -0.143  -0.121  0.00  0.00    +0.165 HD
ENDROOT
BRANCH   7  12
ATOM     12  N   UNL     1       0.077  -2.755   0.079  0.00  0.00    -0.324 N 
ATOM     13  C   UNL     1      -0.673  -3.054  -1.148  0.00  0.00    +0.105 C 
ATOM     14  C   UNL     1      -2.116  -2.568  -0.974  0.00  0.00    +0.019 C 
ATOM     15  C   UNL     1      -2.710  -3.189   0.292  0.00  0.00    +0.003 C 
ATOM     16  C   UNL     1      -1.899  -2.740   1.510  0.00  0.00    +0.025 C 
ATOM     17  C   UNL     1      -0.451  -3.232   1.364  0.00  0.00    +0.099 C 
BRANCH  17  18
ATOM     18  C   UNL     1       0.400  -2.675   2.507  0.00  0.00    +0.178 C 
BRANCH  18  19
ATOM     19  O   UNL     1       0.267  -1.253   2.550  0.00  0.00    -0.393 OA
ATOM     20  H   UNL     1       0.781  -0.831   3.253  0.00  0.00    +0.209 HD
ENDBRANCH  18  19
ENDBRANCH  17  18
ENDBRANCH   7  12
BRANCH   8  21
ATOM     21  C   UNL     1       2.560  -4.170  -0.022  0.00  0.00    +0.080 C 
ATOM     22  S   UNL     1       1.120  -5.090  -0.127  0.00  0.00    -0.035 S 
BRANCH  21  23
ATOM     23  N   UNL     1       3.753  -4.793   0.063  0.00  0.00    -0.352 N 
ATOM     24  H   UNL     1       4.569  -4.271   0.123  0.00  0.00    +0.143 HD
ATOM     25  H   UNL     1       3.795  -5.762   0.066  0.00  0.00    +0.143 HD
ENDBRANCH  21  23
ENDBRANCH   8  21
TORSDOF 5
