REMARK  Name = ZINC35920443
REMARK  6 active torsions:
REMARK  status: ('A' for Active; 'I' for Inactive)
REMARK    1  A    between atoms: C_1  and  N_2
REMARK    2  A    between atoms: C_12  and  O_14
REMARK    3  A    between atoms: O_14  and  C_15
REMARK    4  A    between atoms: C_27  and  C_29
REMARK    5  A    between atoms: C_32  and  O_35
REMARK    6  A    between atoms: O_35  and  C_36
REMARK                            x       y       z     vdW  Elec       q    Type
REMARK                         _______ _______ _______ _____ _____    ______ ____
ROOT
ATOM      1  C   UNL     1      -0.609   1.315   0.399  0.00  0.00    -0.096 C 
ATOM      2  N   UNL     1      -0.481  -0.141   0.253  0.00  0.00    +0.380 N 
ATOM      3  C   UNL     1       0.292  -0.444  -0.958  0.00  0.00    -0.060 C 
ATOM      4  C   UNL     1       0.328  -1.960  -1.174  0.00  0.00    +0.089 C 
ATOM      5  N   UNL     1       0.844  -2.593   0.050  0.00  0.00    -0.303 N 
ATOM      6  C   UNL     1       0.232  -2.220   1.334  0.00  0.00    +0.089 C 
ATOM      7  C   UNL     1       0.200  -0.691   1.432  0.00  0.00    -0.060 C 
ATOM      8  C   UNL     1       1.876  -3.513  -0.006  0.00  0.00    +0.221 A 
ATOM      9  N   UNL     1       2.361  -4.008   1.121  0.00  0.00    -0.219 NA
ATOM     10  C   UNL     1       3.351  -4.898   1.114  0.00  0.00    +0.056 A 
ATOM     11  C   UNL     1       3.866  -5.307  -0.093  0.00  0.00    +0.053 A 
ATOM     12  C   UNL     1       3.339  -4.763  -1.268  0.00  0.00    +0.230 A 
ATOM     13  N   UNL     1       2.351  -3.882  -1.187  0.00  0.00    -0.179 NA
ATOM     14  C   UNL     1       4.966  -6.329  -0.201  0.00  0.00    +0.150 C 
ATOM     15  N   UNL     1       5.547  -6.566   1.126  0.00  0.00    -0.293 N 
ATOM     16  C   UNL     1       4.614  -6.723   2.255  0.00  0.00    +0.114 C 
ATOM     17  C   UNL     1       3.863  -5.404   2.435  0.00  0.00    +0.075 C 
ATOM     18  C   UNL     1       6.881  -6.638   1.304  0.00  0.00    +0.247 C 
ATOM     19  O   UNL     1       7.340  -6.735   2.426  0.00  0.00    -0.270 OA
ATOM     20  H   UNL     1      -1.400  -0.552   0.174  0.00  0.00    -0.082 HD
ENDROOT
BRANCH  18  21
ATOM     21  C   UNL     1       7.784  -6.600   0.138  0.00  0.00    +0.037 A 
ATOM     22  C   UNL     1       9.074  -6.078   0.268  0.00  0.00    +0.016 A 
ATOM     23  C   UNL     1       9.914  -6.044  -0.823  0.00  0.00    +0.046 A 
ATOM     24  C   UNL     1       9.480  -6.528  -2.052  0.00  0.00    +0.120 A 
ATOM     25  C   UNL     1       8.198  -7.048  -2.185  0.00  0.00    +0.046 A 
ATOM     26  C   UNL     1       7.354  -7.090  -1.098  0.00  0.00    +0.016 A 
BRANCH  24  27
ATOM     27  O   UNL     1      10.311  -6.492  -3.124  0.00  0.00    -0.495 OA
ATOM     28  C   UNL     1       9.802  -7.006  -4.357  0.00  0.00    +0.277 C 
ENDBRANCH  24  27
ENDBRANCH  18  21
BRANCH  12  29
ATOM     29  O   UNL     1       3.829  -5.134  -2.475  0.00  0.00    -0.437 OA
BRANCH  29  30
ATOM     30  C   UNL     1       3.368  -4.486  -3.578  0.00  0.00    +0.133 A 
ATOM     31  C   UNL     1       2.688  -3.284  -3.442  0.00  0.00    +0.049 A 
ATOM     32  C   UNL     1       2.220  -2.625  -4.563  0.00  0.00    +0.045 A 
ATOM     33  C   UNL     1       2.430  -3.162  -5.821  0.00  0.00    +0.159 A 
ATOM     34  C   UNL     1       3.110  -4.363  -5.959  0.00  0.00    +0.162 A 
ATOM     35  C   UNL     1       3.584  -5.022  -4.838  0.00  0.00    +0.087 A 
ATOM     36  F   UNL     1       3.314  -4.887  -7.188  0.00  0.00    -0.202 F 
ATOM     37  F   UNL     1       1.972  -2.516  -6.916  0.00  0.00    -0.202 F 
ENDBRANCH  29  30
ENDBRANCH  12  29
TORSDOF 4
