REMARK  Name = ZINC27865314
REMARK  9 active torsions:
REMARK  status: ('A' for Active; 'I' for Inactive)
REMARK    1  A    between atoms: C_1  and  C_2
REMARK    2  A    between atoms: C_3  and  C_9
REMARK    3  A    between atoms: C_6  and  N_8
REMARK    4  A    between atoms: C_9  and  C_10
REMARK    5  A    between atoms: C_10  and  C_12
REMARK    6  A    between atoms: C_12  and  N_13
REMARK    7  A    between atoms: C_18  and  N_22
REMARK    8  A    between atoms: N_22  and  S_23
REMARK    9  A    between atoms: S_23  and  C_26
REMARK                            x       y       z     vdW  Elec       q    Type
REMARK                         _______ _______ _______ _____ _____    ______ ____
ROOT
ATOM      1  N   UNL     1       2.963   1.373  -4.675  0.00  0.00    -0.293 N 
ATOM      2  C   UNL     1       3.393   2.633  -4.047  0.00  0.00    +0.108 C 
ATOM      3  C   UNL     1       4.037   2.312  -2.697  0.00  0.00    +0.019 C 
ATOM      4  C   UNL     1       5.512   1.996  -2.862  0.00  0.00    +0.004 C 
ATOM      5  C   UNL     1       5.782   0.711  -3.623  0.00  0.00    +0.030 C 
ATOM      6  C   UNL     1       5.341   0.842  -5.083  0.00  0.00    +0.162 C 
ATOM      7  C   UNL     1       3.864   0.520  -5.164  0.00  0.00    +0.235 C 
ATOM      8  O   UNL     1       3.498  -0.515  -5.680  0.00  0.00    -0.274 OA
ENDROOT
BRANCH   6   9
ATOM      9  N   UNL     1       5.581   2.210  -5.548  0.00  0.00    -0.178 NA
ATOM     10  H   UNL     1       5.538   2.950  -4.922  0.00  0.00    +0.149 HD
BRANCH   9  11
ATOM     11  S   UNL     1       5.926   2.494  -7.143  0.00  0.00    +0.059 S 
ATOM     12  O   UNL     1       6.078   3.900  -7.282  0.00  0.00    -0.153 OA
ATOM     13  O   UNL     1       6.949   1.577  -7.506  0.00  0.00    -0.153 OA
BRANCH  11  14
ATOM     14  C   UNL     1       4.497   2.047  -8.072  0.00  0.00    +0.106 A 
ATOM     15  C   UNL     1       4.350   0.755  -8.541  0.00  0.00    +0.032 A 
ATOM     16  C   UNL     1       3.232   0.399  -9.265  0.00  0.00    +0.048 A 
ATOM     17  C   UNL     1       2.240   1.340  -9.532  0.00  0.00    +0.124 A 
ATOM     18  C   UNL     1       2.402   2.637  -9.062  0.00  0.00    -0.001 A 
ATOM     19  C   UNL     1       3.515   2.987  -8.330  0.00  0.00    +0.035 A 
ATOM     20  C   UNL     1       1.194   3.430  -9.520  0.00  0.00    +0.080 C 
ATOM     21  C   UNL     1       0.595   2.503 -10.605  0.00  0.00    +0.234 C 
ATOM     22  O   UNL     1       1.066   1.204 -10.208  0.00  0.00    -0.491 OA
ENDBRANCH  11  14
ENDBRANCH   9  11
ENDBRANCH   6   9
BRANCH   1  23
ATOM     23  C   UNL     1       1.536   1.052  -4.758  0.00  0.00    +0.182 C 
BRANCH  23  24
ATOM     24  C   UNL     1       1.120   0.294  -3.523  0.00  0.00    +0.155 C 
ATOM     25  O   UNL     1       1.931   0.048  -2.663  0.00  0.00    -0.295 OA
BRANCH  24  26
ATOM     26  C   UNL     1      -0.309  -0.157  -3.362  0.00  0.00    +0.112 C 
BRANCH  26  29
ATOM     27  C   UNL     1      -0.793   1.319  -0.930  0.00  0.00    +0.063 C 
ATOM     28  C   UNL     1      -0.693  -0.184  -0.886  0.00  0.00    +0.018 A 
ATOM     29  C   UNL     1      -0.461  -0.886  -2.052  0.00  0.00    -0.021 A 
ATOM     30  C   UNL     1      -0.370  -2.271  -2.006  0.00  0.00    +0.009 A 
ATOM     31  C   UNL     1      -0.516  -2.902  -0.783  0.00  0.00    +0.041 A 
ATOM     32  C   UNL     1      -0.748  -2.132   0.352  0.00  0.00    +0.094 A 
ATOM     33  N   UNL     1      -0.823  -0.812   0.267  0.00  0.00    -0.347 N 
ATOM     34  H   UNL     1      -0.981  -0.295   1.072  0.00  0.00    +0.167 HD
BRANCH  32  35
ATOM     35  N   UNL     1      -0.897  -2.752   1.586  0.00  0.00    -0.345 N 
ATOM     36  H   UNL     1      -0.839  -3.718   1.654  0.00  0.00    +0.144 HD
ATOM     37  H   UNL     1      -1.058  -2.220   2.381  0.00  0.00    +0.144 HD
ENDBRANCH  32  35
ENDBRANCH  26  29
ENDBRANCH  24  26
ENDBRANCH  23  24
ENDBRANCH   1  23
TORSDOF 8
