REMARK  Name = ZINC13591479
REMARK  12 active torsions:
REMARK  status: ('A' for Active; 'I' for Inactive)
REMARK    1  A    between atoms: C_1  and  C_2
REMARK    2  A    between atoms: C_2  and  C_3
REMARK    3  A    between atoms: C_3  and  C_4
REMARK    4  A    between atoms: C_4  and  C_6
REMARK    5  A    between atoms: C_4  and  N_26
REMARK    6  A    between atoms: C_6  and  O_8
REMARK    7  A    between atoms: O_8  and  C_9
REMARK    8  A    between atoms: C_11  and  O_25
REMARK    9  A    between atoms: C_17  and  C_24
REMARK   10  A    between atoms: N_26  and  S_27
REMARK   11  A    between atoms: S_27  and  C_30
REMARK   12  A    between atoms: C_33  and  C_36
REMARK                            x       y       z     vdW  Elec       q    Type
REMARK                         _______ _______ _______ _____ _____    ______ ____
ROOT
ATOM      1  O   UNL     1      -1.503   4.538   4.506  0.00  0.00    -0.424 OA
ENDROOT
BRANCH   1   2
ATOM      2  C   UNL     1      -2.311   4.976   5.505  0.00  0.00    +0.139 A 
ATOM      3  C   UNL     1      -2.750   6.295   5.505  0.00  0.00    +0.092 A 
ATOM      4  C   UNL     1      -3.577   6.749   6.517  0.00  0.00    +0.135 A 
ATOM      5  C   UNL     1      -3.959   5.873   7.543  0.00  0.00    +0.106 A 
ATOM      6  C   UNL     1      -3.511   4.541   7.544  0.00  0.00    +0.146 A 
ATOM      7  C   UNL     1      -2.685   4.106   6.517  0.00  0.00    +0.093 A 
ATOM      8  O   UNL     1      -3.871   3.687   8.525  0.00  0.00    -0.454 OA
ATOM      9  C   UNL     1      -4.668   4.032   9.556  0.00  0.00    +0.142 A 
ATOM     10  C   UNL     1      -4.993   3.091  10.528  0.00  0.00    -0.007 A 
ATOM     11  C   UNL     1      -5.808   3.439  11.583  0.00  0.00    +0.007 A 
ATOM     12  C   UNL     1      -6.315   4.725  11.693  0.00  0.00    +0.001 A 
ATOM     13  C   UNL     1      -6.006   5.673  10.742  0.00  0.00    +0.015 A 
ATOM     14  C   UNL     1      -5.182   5.332   9.670  0.00  0.00    +0.065 A 
ATOM     15  C   UNL     1      -4.835   6.329   8.635  0.00  0.00    +0.204 A 
ATOM     16  O   UNL     1      -5.253   7.471   8.684  0.00  0.00    -0.286 OA
ATOM     17  C   UNL     1      -4.452   1.687  10.426  0.00  0.00    +0.047 C 
BRANCH   4  18
ATOM     18  O   UNL     1      -4.012   8.034   6.519  0.00  0.00    -0.506 OA
ATOM     19  H   UNL     1      -3.429   8.646   6.988  0.00  0.00    +0.292 HD
ENDBRANCH   4  18
ENDBRANCH   1   2
BRANCH   1  20
ATOM     20  C   UNL     1      -2.064   3.764   3.563  0.00  0.00    +0.331 C 
ATOM     21  O   UNL     1      -3.256   3.563   3.577  0.00  0.00    -0.249 OA
BRANCH  20  22
ATOM     22  C   UNL     1      -1.209   3.146   2.487  0.00  0.00    +0.185 C 
BRANCH  22  23
ATOM     23  N   UNL     1      -2.051   2.354   1.588  0.00  0.00    -0.176 NA
ATOM     24  H   UNL     1      -2.274   1.437   1.814  0.00  0.00    +0.149 HD
BRANCH  23  25
ATOM     25  S   UNL     1      -2.622   3.023   0.185  0.00  0.00    +0.059 S 
ATOM     26  O   UNL     1      -3.222   4.261   0.541  0.00  0.00    -0.153 OA
ATOM     27  O   UNL     1      -3.336   1.998  -0.492  0.00  0.00    -0.153 OA
BRANCH  25  28
ATOM     28  C   UNL     1      -1.224   3.409  -0.815  0.00  0.00    +0.105 A 
ATOM     29  C   UNL     1      -0.691   4.684  -0.795  0.00  0.00    +0.029 A 
ATOM     30  C   UNL     1       0.402   4.988  -1.585  0.00  0.00    +0.005 A 
ATOM     31  C   UNL     1       0.962   4.018  -2.394  0.00  0.00    -0.050 A 
ATOM     32  C   UNL     1       0.429   2.742  -2.414  0.00  0.00    +0.005 A 
ATOM     33  C   UNL     1      -0.665   2.438  -1.625  0.00  0.00    +0.029 A 
ATOM     34  C   UNL     1       2.154   4.349  -3.255  0.00  0.00    +0.044 C 
ENDBRANCH  25  28
ENDBRANCH  23  25
ENDBRANCH  22  23
BRANCH  22  35
ATOM     35  C   UNL     1      -0.156   2.240   3.131  0.00  0.00    +0.031 C 
BRANCH  35  37
ATOM     36  C   UNL     1       1.761   0.705   2.674  0.00  0.00    +0.004 C 
ATOM     37  C   UNL     1       0.782   1.701   2.049  0.00  0.00    -0.001 C 
ENDBRANCH  35  37
ENDBRANCH  22  35
ENDBRANCH  20  22
ENDBRANCH   1  20
TORSDOF 9
