REMARK  Name = ZINC01733221
REMARK  15 active torsions:
REMARK  status: ('A' for Active; 'I' for Inactive)
REMARK    1  A    between atoms: C_1  and  C_2
REMARK    2  A    between atoms: C_2  and  C_25
REMARK    3  A    between atoms: C_3  and  N_18
REMARK    4  A    between atoms: C_5  and  N_10
REMARK    5  A    between atoms: C_7  and  C_8
REMARK    6  A    between atoms: C_7  and  C_9
REMARK    7  A    between atoms: C_11  and  C_13
REMARK    8  A    between atoms: C_13  and  C_14
REMARK    9  A    between atoms: C_13  and  C_15
REMARK   10  A    between atoms: C_13  and  O_16
REMARK   11  A    between atoms: C_17  and  N_57
REMARK   12  A    between atoms: C_19  and  C_21
REMARK   13  A    between atoms: C_21  and  C_22
REMARK   14  A    between atoms: C_21  and  C_23
REMARK   15  A    between atoms: C_21  and  O_24
REMARK                            x       y       z     vdW  Elec       q    Type
REMARK                         _______ _______ _______ _____ _____    ______ ____
ROOT
ATOM      1  C   UNL     1      -0.013   1.086   0.008  0.00  0.00    +0.011 C 
ATOM      2  C   UNL     1      -0.729   1.579   1.267  0.00  0.00    -0.027 C 
ATOM      3  C   UNL     1       0.023   1.109   2.530  0.00  0.00    +0.027 C 
ATOM      4  C   UNL     1       0.071   3.451   2.630  0.00  0.00    +0.027 C 
ATOM      5  C   UNL     1      -0.697   3.120   1.332  0.00  0.00    -0.027 C 
ATOM      6  C   UNL     1       0.040   3.688   0.118  0.00  0.00    +0.011 C 
ATOM      7  C   UNL     1      -2.120   3.678   1.399  0.00  0.00    +0.011 C 
ATOM      8  C   UNL     1       1.308   2.182   4.298  0.00  0.00    -0.091 C 
ATOM      9  C   UNL     1      -2.173   1.074   1.288  0.00  0.00    +0.011 C 
ATOM     10  N   UNL     1       0.875   2.247   2.867  0.00  0.00    +0.403 N 
ATOM     11  H   UNL     1       1.705   2.254   2.263  0.00  0.00    -0.077 HD
ENDROOT
BRANCH   4  12
ATOM     12  N   UNL     1      -0.865   3.671   3.735  0.00  0.00    -0.326 N 
ATOM     13  C   UNL     1      -0.655   4.677   4.606  0.00  0.00    +0.243 C 
ATOM     14  O   UNL     1       0.309   5.402   4.475  0.00  0.00    -0.273 OA
ATOM     15  H   UNL     1      -1.636   3.091   3.841  0.00  0.00    +0.147 HD
BRANCH  13  16
ATOM     16  C   UNL     1      -1.617   4.903   5.744  0.00  0.00    +0.136 C 
ATOM     17  C   UNL     1      -3.013   5.185   5.183  0.00  0.00    +0.051 C 
ATOM     18  C   UNL     1      -1.665   3.654   6.627  0.00  0.00    +0.051 C 
BRANCH  16  19
ATOM     19  O   UNL     1      -1.182   6.019   6.522  0.00  0.00    -0.380 OA
ATOM     20  H   UNL     1      -1.756   6.223   7.273  0.00  0.00    +0.211 HD
ENDBRANCH  16  19
ENDBRANCH  13  16
ENDBRANCH   4  12
BRANCH   3  21
ATOM     21  N   UNL     1       0.822  -0.083   2.236  0.00  0.00    -0.326 N 
ATOM     22  C   UNL     1       0.811  -1.129   3.085  0.00  0.00    +0.243 C 
ATOM     23  O   UNL     1       0.139  -1.084   4.094  0.00  0.00    -0.273 OA
ATOM     24  H   UNL     1       1.360  -0.119   1.429  0.00  0.00    +0.147 HD
BRANCH  22  25
ATOM     25  C   UNL     1       1.633  -2.355   2.782  0.00  0.00    +0.136 C 
ATOM     26  C   UNL     1       1.181  -2.955   1.449  0.00  0.00    +0.051 C 
ATOM     27  C   UNL     1       3.111  -1.968   2.691  0.00  0.00    +0.051 C 
BRANCH  25  28
ATOM     28  O   UNL     1       1.456  -3.317   3.823  0.00  0.00    -0.380 OA
ATOM     29  H   UNL     1       1.957  -4.134   3.693  0.00  0.00    +0.211 HD
ENDBRANCH  25  28
ENDBRANCH  22  25
ENDBRANCH   3  21
TORSDOF 6
