REMARK  Name = ZINC21800973
REMARK  9 active torsions:
REMARK  status: ('A' for Active; 'I' for Inactive)
REMARK    1  A    between atoms: C_1  and  C_2
REMARK    2  A    between atoms: C_2  and  C_3
REMARK    3  A    between atoms: C_2  and  C_4
REMARK    4  A    between atoms: C_4  and  N_5
REMARK    5  A    between atoms: C_13  and  C_15
REMARK    6  A    between atoms: C_15  and  S_16
REMARK    7  A    between atoms: S_16  and  C_17
REMARK    8  A    between atoms: C_22  and  N_23
REMARK    9  A    between atoms: N_26  and  C_27
REMARK                            x       y       z     vdW  Elec       q    Type
REMARK                         _______ _______ _______ _____ _____    ______ ____
ROOT
ATOM      1  C   UNL     1      -3.980   2.653  -1.383  0.00  0.00    +0.029 A 
ATOM      2  C   UNL     1      -4.472   3.091  -0.161  0.00  0.00    +0.016 A 
ATOM      3  C   UNL     1      -5.719   3.684  -0.091  0.00  0.00    +0.001 A 
ATOM      4  C   UNL     1      -6.483   3.833  -1.234  0.00  0.00    +0.002 A 
ATOM      5  C   UNL     1      -6.003   3.395  -2.454  0.00  0.00    +0.024 A 
ATOM      6  C   UNL     1      -4.752   2.804  -2.535  0.00  0.00    +0.048 A 
ENDROOT
BRANCH   6   7
ATOM      7  N   UNL     1      -4.264   2.358  -3.771  0.00  0.00    -0.268 N 
ATOM      8  C   UNL     1      -4.768   2.861  -4.916  0.00  0.00    +0.308 C 
ATOM      9  O   UNL     1      -5.575   3.769  -4.877  0.00  0.00    -0.252 OA
ATOM     10  N   UNL     1      -4.378   2.356  -6.103  0.00  0.00    -0.269 N 
ATOM     11  H   UNL     1      -3.469   1.599  -3.807  0.00  0.00    +0.156 HD
ATOM     12  H   UNL     1      -3.717   1.477  -6.136  0.00  0.00    +0.156 HD
BRANCH  10  13
ATOM     13  C   UNL     1      -4.815   2.949  -7.293  0.00  0.00    +0.036 A 
ATOM     14  C   UNL     1      -5.043   2.166  -8.417  0.00  0.00    +0.023 A 
ATOM     15  C   UNL     1      -5.479   2.753  -9.589  0.00  0.00    +0.003 A 
ATOM     16  C   UNL     1      -5.678   4.120  -9.647  0.00  0.00    +0.020 A 
ATOM     17  C   UNL     1      -5.446   4.904  -8.530  0.00  0.00    +0.043 A 
ATOM     18  C   UNL     1      -5.015   4.321  -7.353  0.00  0.00    +0.043 A 
ATOM     19 CL   UNL     1      -5.696   6.620  -8.608  0.00  0.00    -0.083 Cl
ENDBRANCH  10  13
ENDBRANCH   6   7
BRANCH   1  20
ATOM     20  S   UNL     1      -2.389   1.903  -1.477  0.00  0.00    -0.117 S 
BRANCH  20  21
ATOM     21  C   UNL     1      -1.788   1.931   0.235  0.00  0.00    +0.130 C 
BRANCH  21  30
ATOM     22  N   UNL     1       3.114  -0.732   0.405  0.00  0.00    -0.263 N 
ATOM     23  C   UNL     1       2.582  -1.976   0.271  0.00  0.00    +0.219 A 
ATOM     24  N   UNL     1       1.282  -1.880   0.182  0.00  0.00    -0.200 NA
ATOM     25  C   UNL     1       0.905  -0.588   0.252  0.00  0.00    +0.255 A 
ATOM     26  N   UNL     1       2.038   0.166   0.393  0.00  0.00    -0.181 N 
ATOM     27  C   UNL     1       1.955   1.506   0.487  0.00  0.00    +0.275 A 
ATOM     28  O   UNL     1       2.961   2.185   0.613  0.00  0.00    -0.266 OA
ATOM     29  C   UNL     1       0.683   2.107   0.438  0.00  0.00    +0.096 A 
ATOM     30  C   UNL     1      -0.417   1.310   0.296  0.00  0.00    +0.060 A 
ATOM     31  N   UNL     1      -0.284  -0.009   0.207  0.00  0.00    -0.215 NA
BRANCH  22  32
ATOM     32  C   UNL     1       4.534  -0.397   0.535  0.00  0.00    +0.146 C 
BRANCH  32  34
ATOM     33  C   UNL     1       4.838  -1.967   2.455  0.00  0.00    +0.009 C 
ATOM     34  C   UNL     1       4.952  -0.510   2.002  0.00  0.00    +0.004 C 
ATOM     35  C   UNL     1       6.400  -0.040   2.158  0.00  0.00    +0.009 C 
ENDBRANCH  32  34
ENDBRANCH  22  32
ENDBRANCH  21  30
ENDBRANCH  20  21
ENDBRANCH   1  20
TORSDOF 7
