REMARK  Name = ZINC51646942
REMARK  10 active torsions:
REMARK  status: ('A' for Active; 'I' for Inactive)
REMARK    1  A    between atoms: C_1  and  C_2
REMARK    2  A    between atoms: C_4  and  C_22
REMARK    3  A    between atoms: C_7  and  N_8
REMARK    4  A    between atoms: N_11  and  C_12
REMARK    5  A    between atoms: N_15  and  C_18
REMARK    6  A    between atoms: C_18  and  C_19
REMARK    7  A    between atoms: N_24  and  C_25
REMARK    8  A    between atoms: C_25  and  C_26
REMARK    9  A    between atoms: C_26  and  C_27
REMARK   10  A    between atoms: C_26  and  C_28
REMARK                            x       y       z     vdW  Elec       q    Type
REMARK                         _______ _______ _______ _____ _____    ______ ____
ROOT
ATOM      1  N   UNL     1       0.585   1.350   2.965  0.00  0.00    -0.269 N 
ATOM      2  C   UNL     1      -0.097   0.638   3.884  0.00  0.00    +0.304 C 
ATOM      3  O   UNL     1      -0.454  -0.497   3.632  0.00  0.00    -0.253 OA
ATOM      4  N   UNL     1      -0.383   1.184   5.083  0.00  0.00    -0.296 N 
ATOM      5  H   UNL     1       0.917   2.234   3.185  0.00  0.00    +0.156 HD
ATOM      6  H   UNL     1      -0.098   2.089   5.284  0.00  0.00    +0.151 HD
ENDROOT
BRANCH   1  13
ATOM      7  C   UNL     1       0.740   3.146   0.769  0.00  0.00    +0.045 C 
ATOM      8  C   UNL     1       0.895   1.658   0.593  0.00  0.00    -0.028 A 
ATOM      9  C   UNL     1       1.125   1.133  -0.659  0.00  0.00    +0.018 A 
ATOM     10  C   UNL     1       1.268  -0.247  -0.821  0.00  0.00    +0.037 A 
ATOM     11  C   UNL     1       1.178  -1.091   0.289  0.00  0.00    +0.015 A 
ATOM     12  C   UNL     1       0.948  -0.561   1.538  0.00  0.00    +0.024 A 
ATOM     13  C   UNL     1       0.812   0.815   1.697  0.00  0.00    +0.038 A 
BRANCH  10  14
ATOM     14  C   UNL     1       1.514  -0.812  -2.162  0.00  0.00    +0.244 C 
ATOM     15  O   UNL     1       1.592  -0.077  -3.127  0.00  0.00    -0.270 OA
ATOM     16  N   UNL     1       1.652  -2.144  -2.317  0.00  0.00    -0.311 N 
ATOM     17  H   UNL     1       1.590  -2.731  -1.547  0.00  0.00    +0.149 HD
BRANCH  16  18
ATOM     18  C   UNL     1       1.896  -2.705  -3.648  0.00  0.00    +0.107 C 
BRANCH  18  19
ATOM     19  C   UNL     1       2.013  -4.228  -3.546  0.00  0.00    -0.000 C 
ATOM     20  C   UNL     1       0.672  -4.813  -3.099  0.00  0.00    +0.009 C 
ATOM     21  C   UNL     1       2.391  -4.803  -4.913  0.00  0.00    +0.009 C 
ENDBRANCH  18  19
ENDBRANCH  16  18
ENDBRANCH  10  14
ENDBRANCH   1  13
BRANCH   4  22
ATOM     22  C   UNL     1      -1.124   0.410   6.082  0.00  0.00    +0.071 C 
ATOM     23  C   UNL     1      -2.628   0.557   5.831  0.00  0.00    +0.004 C 
ATOM     24  C   UNL     1      -3.397  -0.188   6.925  0.00  0.00    -0.077 C 
ATOM     25  N   UNL     1      -3.060   0.379   8.236  0.00  0.00    +0.383 N 
ATOM     26  C   UNL     1      -1.633   0.177   8.515  0.00  0.00    -0.077 C 
ATOM     27  C   UNL     1      -0.796   0.936   7.482  0.00  0.00    +0.004 C 
ATOM     28  H   UNL     1      -3.266   1.366   8.238  0.00  0.00    -0.082 HD
BRANCH  25  29
ATOM     29  C   UNL     1      -3.859  -0.287   9.275  0.00  0.00    -0.006 C 
BRANCH  29  30
ATOM     30  C   UNL     1      -5.331   0.093   9.107  0.00  0.00    +0.325 C 
ATOM     31  F   UNL     1      -5.452   1.486   9.072  0.00  0.00    -0.211 F 
ATOM     32  F   UNL     1      -5.820  -0.448   7.913  0.00  0.00    -0.211 F 
ENDBRANCH  29  30
ENDBRANCH  25  29
ENDBRANCH   4  22
TORSDOF 7
