REMARK  Name = ZINC38713706
REMARK  15 active torsions:
REMARK  status: ('A' for Active; 'I' for Inactive)
REMARK    1  A    between atoms: C_1  and  C_2
REMARK    2  A    between atoms: C_2  and  N_3
REMARK    3  A    between atoms: N_3  and  C_4
REMARK    4  A    between atoms: N_3  and  C_6
REMARK    5  A    between atoms: C_4  and  C_5
REMARK    6  A    between atoms: C_6  and  C_7
REMARK    7  A    between atoms: C_7  and  C_8
REMARK    8  A    between atoms: C_8  and  N_9
REMARK    9  A    between atoms: C_10  and  C_29
REMARK   10  A    between atoms: C_31  and  O_39
REMARK   11  A    between atoms: C_32  and  O_37
REMARK   12  A    between atoms: C_33  and  O_35
REMARK   13  A    between atoms: O_35  and  C_36
REMARK   14  A    between atoms: O_37  and  C_38
REMARK   15  A    between atoms: O_39  and  C_40
REMARK                            x       y       z     vdW  Elec       q    Type
REMARK                         _______ _______ _______ _____ _____    ______ ____
ROOT
ATOM      1  N   UNL     1      -2.831  -3.899  -1.944  0.00  0.00    -0.284 N 
ATOM      2  C   UNL     1      -3.734  -4.222  -0.827  0.00  0.00    +0.145 C 
ATOM      3  C   UNL     1      -5.087  -4.396  -1.435  0.00  0.00    +0.072 A 
ATOM      4  C   UNL     1      -6.381  -4.734  -0.836  0.00  0.00    +0.199 A 
ATOM      5  O   UNL     1      -6.573  -4.760   0.368  0.00  0.00    -0.287 OA
ATOM      6  C   UNL     1      -7.436  -5.040  -1.833  0.00  0.00    +0.065 A 
ATOM      7  C   UNL     1      -8.664  -5.580  -1.412  0.00  0.00    +0.016 A 
ATOM      8  C   UNL     1      -9.636  -5.873  -2.310  0.00  0.00    +0.009 A 
ATOM      9  C   UNL     1      -9.423  -5.637  -3.685  0.00  0.00    -0.014 A 
ATOM     10  C   UNL     1     -10.418  -5.941  -4.628  0.00  0.00    +0.008 A 
ATOM     11  C   UNL     1     -10.192  -5.702  -5.950  0.00  0.00    +0.001 A 
ATOM     12  C   UNL     1      -8.985  -5.161  -6.384  0.00  0.00    +0.001 A 
ATOM     13  C   UNL     1      -7.997  -4.856  -5.496  0.00  0.00    +0.012 A 
ATOM     14  C   UNL     1      -8.197  -5.090  -4.127  0.00  0.00    +0.025 A 
ATOM     15  C   UNL     1      -7.185  -4.785  -3.183  0.00  0.00    +0.147 A 
ATOM     16  O   UNL     1      -6.020  -4.260  -3.618  0.00  0.00    -0.449 OA
ATOM     17  C   UNL     1      -4.969  -4.184  -2.780  0.00  0.00    +0.199 A 
ATOM     18  C   UNL     1      -3.561  -3.873  -3.077  0.00  0.00    +0.283 C 
ATOM     19  O   UNL     1      -3.120  -3.632  -4.184  0.00  0.00    -0.267 OA
ENDROOT
BRANCH   2  20
ATOM     20  C   UNL     1      -3.751  -3.093   0.171  0.00  0.00    -0.015 A 
ATOM     21  C   UNL     1      -3.754  -1.783  -0.270  0.00  0.00    +0.055 A 
ATOM     22  C   UNL     1      -3.770  -0.742   0.645  0.00  0.00    +0.165 A 
ATOM     23  C   UNL     1      -3.783  -1.016   2.008  0.00  0.00    +0.204 A 
ATOM     24  C   UNL     1      -3.780  -2.335   2.447  0.00  0.00    +0.165 A 
ATOM     25  C   UNL     1      -3.770  -3.371   1.525  0.00  0.00    +0.055 A 
BRANCH  24  26
ATOM     26  O   UNL     1      -3.792  -2.609   3.779  0.00  0.00    -0.491 OA
ATOM     27  C   UNL     1      -3.788  -3.987   4.158  0.00  0.00    +0.277 C 
ENDBRANCH  24  26
BRANCH  23  28
ATOM     28  O   UNL     1      -3.797   0.003   2.909  0.00  0.00    -0.488 OA
ATOM     29  C   UNL     1      -5.077   0.482   3.326  0.00  0.00    +0.277 C 
ENDBRANCH  23  28
BRANCH  22  30
ATOM     30  O   UNL     1      -3.772   0.547   0.210  0.00  0.00    -0.491 OA
ATOM     31  C   UNL     1      -3.758   0.754  -1.203  0.00  0.00    +0.277 C 
ENDBRANCH  22  30
ENDBRANCH   2  20
BRANCH   1  32
ATOM     32  C   UNL     1      -1.392  -3.644  -1.841  0.00  0.00    +0.107 C 
BRANCH  32  33
ATOM     33  C   UNL     1      -1.154  -2.151  -1.604  0.00  0.00    +0.000 C 
BRANCH  33  34
ATOM     34  C   UNL     1       0.348  -1.884  -1.496  0.00  0.00    -0.077 C 
BRANCH  34  35
ATOM     35  N   UNL     1       0.576  -0.451  -1.269  0.00  0.00    +0.379 N 
ATOM     36  H   UNL     1       0.124   0.081  -1.997  0.00  0.00    -0.082 HD
BRANCH  35  38
ATOM     37  C   UNL     1       0.128   1.449   0.210  0.00  0.00    -0.017 C 
ATOM     38  C   UNL     1       0.019  -0.067   0.035  0.00  0.00    -0.082 C 
ENDBRANCH  35  38
BRANCH  35  39
ATOM     39  C   UNL     1       2.019  -0.176  -1.285  0.00  0.00    -0.082 C 
ATOM     40  C   UNL     1       2.573  -0.440  -2.687  0.00  0.00    -0.017 C 
ENDBRANCH  35  39
ENDBRANCH  34  35
ENDBRANCH  33  34
ENDBRANCH  32  33
ENDBRANCH   1  32
TORSDOF 10
