REMARK  Name = ZINC34387433
REMARK  9 active torsions:
REMARK  status: ('A' for Active; 'I' for Inactive)
REMARK    1  A    between atoms: C_4  and  N_7
REMARK    2  A    between atoms: C_12  and  C_28
REMARK    3  A    between atoms: C_15  and  C_20
REMARK    4  A    between atoms: C_15  and  C_25
REMARK    5  A    between atoms: C_20  and  C_21
REMARK    6  A    between atoms: C_21  and  C_22
REMARK    7  A    between atoms: C_22  and  C_23
REMARK    8  A    between atoms: C_23  and  N_24
REMARK    9  A    between atoms: C_33  and  O_34
REMARK                            x       y       z     vdW  Elec       q    Type
REMARK                         _______ _______ _______ _____ _____    ______ ____
ROOT
ATOM      1  N   UNL     1       3.567  -1.006  -0.403  0.00  0.00    -0.210 N 
ATOM      2  C   UNL     1       4.718  -0.260  -0.359  0.00  0.00    +0.229 C 
ATOM      3  O   UNL     1       4.817   0.940  -0.215  0.00  0.00    -0.275 OA
ATOM      4  C   UNL     1       5.784  -1.218  -0.522  0.00  0.00    +0.077 C 
ATOM      5  C   UNL     1       7.227  -1.367  -0.267  0.00  0.00    -0.023 C 
ATOM      6  N   UNL     1       7.445  -2.830  -0.540  0.00  0.00    +0.396 N 
ATOM      7  C   UNL     1       6.134  -3.526  -0.371  0.00  0.00    +0.048 C 
ATOM      8  C   UNL     1       5.203  -2.471   0.245  0.00  0.00    +0.086 C 
ATOM      9  C   UNL     1       3.801  -2.347  -0.284  0.00  0.00    +0.229 C 
ATOM     10  O   UNL     1       3.038  -3.250  -0.551  0.00  0.00    -0.275 OA
ATOM     11  H   UNL     1       7.779  -2.955  -1.484  0.00  0.00    -0.083 HD
ATOM     12  H   UNL     1       8.117  -3.203   0.113  0.00  0.00    -0.083 HD
ENDROOT
BRANCH   5  13
ATOM     13  C   UNL     1       8.032  -0.517  -1.216  0.00  0.00    -0.018 A 
ATOM     14  C   UNL     1       8.463  -1.041  -2.419  0.00  0.00    +0.025 A 
ATOM     15  C   UNL     1       9.202  -0.261  -3.290  0.00  0.00    +0.041 A 
ATOM     16  C   UNL     1       9.511   1.046  -2.958  0.00  0.00    +0.023 A 
ATOM     17  C   UNL     1       9.082   1.575  -1.756  0.00  0.00    +0.047 A 
ATOM     18  C   UNL     1       8.336   0.795  -0.884  0.00  0.00    +0.119 A 
ATOM     19 CL   UNL     1       9.742  -0.922  -4.801  0.00  0.00    -0.084 Cl
BRANCH  18  20
ATOM     20  O   UNL     1       7.907   1.315   0.297  0.00  0.00    -0.507 OA
ATOM     21  H   UNL     1       8.529   1.194   1.028  0.00  0.00    +0.292 HD
ENDBRANCH  18  20
ENDBRANCH   5  13
BRANCH   1  25
ATOM     22  C   UNL     1      -0.238   0.642  -0.839  0.00  0.00    +0.000 A 
ATOM     23  C   UNL     1       0.872   1.466  -0.809  0.00  0.00    +0.002 A 
ATOM     24  C   UNL     1       2.134   0.923  -0.665  0.00  0.00    +0.024 A 
ATOM     25  C   UNL     1       2.287  -0.452  -0.549  0.00  0.00    +0.044 A 
ATOM     26  C   UNL     1       1.171  -1.277  -0.579  0.00  0.00    +0.024 A 
ATOM     27  C   UNL     1      -0.088  -0.728  -0.724  0.00  0.00    +0.002 A 
ENDBRANCH   1  25
BRANCH   7  28
ATOM     28  C   UNL     1       6.281  -4.691   0.573  0.00  0.00    +0.346 C 
ATOM     29  O   UNL     1       7.371  -4.955   1.051  0.00  0.00    -0.248 OA
ATOM     30  O   UNL     1       5.309  -5.370   0.859  0.00  0.00    -0.248 OA
ENDBRANCH   7  28
BRANCH   7  31
ATOM     31  C   UNL     1       5.610  -4.005  -1.727  0.00  0.00    -0.001 C 
BRANCH  31  32
ATOM     32  C   UNL     1       6.598  -5.003  -2.333  0.00  0.00    -0.003 C 
BRANCH  32  33
ATOM     33  C   UNL     1       6.074  -5.481  -3.688  0.00  0.00    -0.020 C 
BRANCH  33  34
ATOM     34  C   UNL     1       7.062  -6.480  -4.294  0.00  0.00    -0.086 C 
BRANCH  34  35
ATOM     35  N   UNL     1       6.558  -6.939  -5.595  0.00  0.00    +0.378 N 
ATOM     36  H   UNL     1       7.210  -7.597  -5.995  0.00  0.00    -0.090 HD
ATOM     37  H   UNL     1       5.662  -7.386  -5.471  0.00  0.00    -0.090 HD
ATOM     38  H   UNL     1       6.457  -6.149  -6.214  0.00  0.00    -0.090 HD
ENDBRANCH  34  35
ENDBRANCH  33  34
ENDBRANCH  32  33
ENDBRANCH  31  32
ENDBRANCH   7  31
TORSDOF 9
