REMARK  Name = ZINC36678670
REMARK  5 active torsions:
REMARK  status: ('A' for Active; 'I' for Inactive)
REMARK    1  A    between atoms: C_1  and  C_2
REMARK    2  A    between atoms: C_2  and  C_4
REMARK    3  A    between atoms: C_2  and  C_12
REMARK    4  A    between atoms: C_4  and  N_5
REMARK    5  A    between atoms: C_12  and  N_14
REMARK                            x       y       z     vdW  Elec       q    Type
REMARK                         _______ _______ _______ _____ _____    ______ ____
ROOT
ATOM      1  C   UNL     1      -1.433  -0.534   0.013  0.00  0.00    +0.117 C 
ENDROOT
BRANCH   1   2
ATOM      2  N   UNL     1      -2.082  -0.162   1.273  0.00  0.00    -0.301 N 
ATOM      3  C   UNL     1      -1.970  -1.083   2.397  0.00  0.00    +0.108 C 
ATOM      4  C   UNL     1      -2.269  -0.363   3.712  0.00  0.00    +0.019 C 
ATOM      5  C   UNL     1      -3.598   0.390   3.567  0.00  0.00    +0.011 C 
ATOM      6  C   UNL     1      -3.403   1.525   2.559  0.00  0.00    +0.096 C 
ATOM      7  C   UNL     1      -2.732   1.001   1.322  0.00  0.00    +0.216 C 
ATOM      8  O   UNL     1      -2.789   1.670   0.311  0.00  0.00    -0.276 OA
ENDBRANCH   1   2
BRANCH   1  10
ATOM      9  C   UNL     1      -0.019   1.526   0.010  0.00  0.00    +0.016 C 
ATOM     10  C   UNL     1       0.002  -0.004   0.002  0.00  0.00    +0.055 C 
BRANCH  10  11
ATOM     11  C   UNL     1       0.707  -0.490  -1.238  0.00  0.00    +0.051 C 
ATOM     12  S   UNL     1      -0.123  -1.208  -2.401  0.00  0.00    -0.040 S 
BRANCH  11  13
ATOM     13  N   UNL     1       2.038  -0.320  -1.367  0.00  0.00    -0.355 N 
ATOM     14  H   UNL     1       2.542   0.116  -0.661  0.00  0.00    +0.143 HD
ATOM     15  H   UNL     1       2.492  -0.632  -2.165  0.00  0.00    +0.143 HD
ENDBRANCH  11  13
ENDBRANCH  10  11
ENDBRANCH   1  10
TORSDOF 4
