REMARK  Name = ZINC26842467
REMARK  7 active torsions:
REMARK  status: ('A' for Active; 'I' for Inactive)
REMARK    1  A    between atoms: C_1  and  C_2
REMARK    2  A    between atoms: C_2  and  C_3
REMARK    3  A    between atoms: C_3  and  N_4
REMARK    4  A    between atoms: C_5  and  N_6
REMARK    5  A    between atoms: C_7  and  C_20
REMARK    6  A    between atoms: N_22  and  C_23
REMARK    7  A    between atoms: C_24  and  C_32
REMARK                            x       y       z     vdW  Elec       q    Type
REMARK                         _______ _______ _______ _____ _____    ______ ____
ROOT
ATOM      1  N   UNL     1      -2.832   1.837   9.561  0.00  0.00    -0.313 N 
ATOM      2  C   UNL     1      -2.826   2.230   8.240  0.00  0.00    +0.110 A 
ATOM      3  C   UNL     1      -2.066   1.450   7.251  0.00  0.00    +0.076 A 
ATOM      4  C   UNL     1      -1.357   0.334   7.674  0.00  0.00    +0.033 A 
ATOM      5  C   UNL     1      -1.386  -0.028   9.028  0.00  0.00    +0.083 A 
ATOM      6  C   UNL     1      -2.126   0.730   9.963  0.00  0.00    +0.150 A 
ATOM      7  N   UNL     1      -2.133   0.361  11.238  0.00  0.00    -0.211 NA
ATOM      8  C   UNL     1      -1.458  -0.708  11.661  0.00  0.00    +0.143 A 
ATOM      9  C   UNL     1      -1.505  -1.048  13.025  0.00  0.00    +0.047 A 
ATOM     10  C   UNL     1      -0.819  -2.139  13.470  0.00  0.00    +0.005 A 
ATOM     11  C   UNL     1      -0.077  -2.907  12.563  0.00  0.00    +0.018 A 
ATOM     12  C   UNL     1      -0.043  -2.566  11.255  0.00  0.00    +0.096 A 
ATOM     13  N   UNL     1      -0.726  -1.478  10.800  0.00  0.00    -0.268 N 
ATOM     14  C   UNL     1      -0.670  -1.165   9.487  0.00  0.00    +0.268 A 
ATOM     15  O   UNL     1      -0.020  -1.845   8.713  0.00  0.00    -0.267 OA
ENDROOT
BRANCH   3  16
ATOM     16  C   UNL     1      -2.053   1.850   5.840  0.00  0.00    +0.252 C 
ATOM     17  O   UNL     1      -2.759   2.765   5.460  0.00  0.00    -0.270 OA
ATOM     18  N   UNL     1      -1.259   1.203   4.964  0.00  0.00    -0.275 N 
ATOM     19  H   UNL     1      -0.621   0.375   5.307  0.00  0.00    +0.156 HD
BRANCH  18  20
ATOM     20  C   UNL     1      -1.246   1.580   3.631  0.00  0.00    +0.085 A 
ATOM     21  C   UNL     1      -0.504   1.041   2.589  0.00  0.00    +0.068 A 
ATOM     22  C   UNL     1      -0.674   1.625   1.271  0.00  0.00    -0.023 A 
ATOM     23  C   UNL     1      -1.557   2.647   1.204  0.00  0.00    -0.004 A 
ATOM     24  S   UNL     1      -2.153   2.838   2.860  0.00  0.00    -0.077 S 
ATOM     25  C   UNL     1      -1.937   3.435  -0.012  0.00  0.00    +0.043 C 
ATOM     26  C   UNL     1      -0.899   3.160  -1.110  0.00  0.00    +0.005 C 
ATOM     27  C   UNL     1      -0.678   1.648  -1.213  0.00  0.00    +0.005 C 
ATOM     28  C   UNL     1       0.064   1.145   0.027  0.00  0.00    +0.037 C 
BRANCH  21  29
ATOM     29  C   UNL     1       0.420  -0.075   2.811  0.00  0.00    +0.244 C 
ATOM     30  O   UNL     1       0.026  -1.222   2.704  0.00  0.00    -0.270 OA
ATOM     31  N   UNL     1       1.705   0.168   3.135  0.00  0.00    -0.325 N 
ATOM     32  H   UNL     1       2.398  -0.670   3.302  0.00  0.00    +0.145 HD
ATOM     33  H   UNL     1       2.061   1.204   3.232  0.00  0.00    +0.145 HD
ENDBRANCH  21  29
ENDBRANCH  18  20
ENDBRANCH   3  16
BRANCH   2  34
ATOM     34  N   UNL     1      -3.498   3.290   7.866  0.00  0.00    -0.344 N 
ATOM     35  H   UNL     1      -3.491   3.602   6.811  0.00  0.00    +0.144 HD
ATOM     36  H   UNL     1      -4.069   3.869   8.607  0.00  0.00    +0.144 HD
ENDBRANCH   2  34
BRANCH   1  37
ATOM     37  C   UNL     1      -3.593   2.610  10.546  0.00  0.00    +0.125 C 
BRANCH  37  39
ATOM     38  C   UNL     1      -3.496   4.513  12.161  0.00  0.00    +0.005 C 
ATOM     39  C   UNL     1      -2.701   3.706  11.133  0.00  0.00    +0.018 C 
ENDBRANCH  37  39
ENDBRANCH   1  37
TORSDOF 6
