REMARK  Name = ZINC02852727
REMARK  8 active torsions:
REMARK  status: ('A' for Active; 'I' for Inactive)
REMARK    1  A    between atoms: C_1  and  C_2
REMARK    2  A    between atoms: C_7  and  C_12
REMARK    3  A    between atoms: N_14  and  N_15
REMARK    4  A    between atoms: N_15  and  C_16
REMARK    5  A    between atoms: C_16  and  N_18
REMARK    6  A    between atoms: N_18  and  C_19
REMARK    7  A    between atoms: C_22  and  S_25
REMARK    8  A    between atoms: S_25  and  N_28
REMARK                            x       y       z     vdW  Elec       q    Type
REMARK                         _______ _______ _______ _____ _____    ______ ____
ROOT
ATOM      1  N   UNL     1      -1.251   1.620  -0.390  0.00  0.00    -0.245 N 
ATOM      2  H   UNL     1      -1.266   2.550  -0.665  0.00  0.00    +0.172 HD
ENDROOT
BRANCH   1   5
ATOM      3  C   UNL     1       1.101   1.732  -0.041  0.00  0.00    +0.261 C 
ATOM      4  O   UNL     1       1.083   2.898  -0.385  0.00  0.00    -0.269 OA
ATOM      5  N   UNL     1      -0.042   1.019  -0.015  0.00  0.00    -0.231 N 
ATOM      6  H   UNL     1      -0.028   0.088   0.259  0.00  0.00    +0.173 HD
BRANCH   3  12
ATOM      7  C   UNL     1       7.539   3.653   0.302  0.00  0.00    +0.008 C 
ATOM      8  C   UNL     1       6.208   2.962  -0.002  0.00  0.00    -0.009 C 
ATOM      9  C   UNL     1       5.050   3.866   0.431  0.00  0.00    +0.008 C 
ATOM     10  C   UNL     1       3.727   3.304  -0.092  0.00  0.00    +0.037 C 
ATOM     11  C   UNL     1       3.617   1.842   0.323  0.00  0.00    -0.025 A 
ATOM     12  C   UNL     1       2.372   1.099   0.348  0.00  0.00    +0.049 A 
ATOM     13  C   UNL     1       2.418  -0.221   0.740  0.00  0.00    +0.058 A 
ATOM     14  S   UNL     1       4.098  -0.474   1.083  0.00  0.00    -0.101 S 
ATOM     15  C   UNL     1       4.710   1.144   0.707  0.00  0.00    -0.006 A 
ATOM     16  C   UNL     1       6.120   1.643   0.785  0.00  0.00    +0.046 C 
ENDBRANCH   3  12
ENDBRANCH   1   5
BRANCH   1  17
ATOM     17  C   UNL     1      -2.394   0.905  -0.370  0.00  0.00    +0.151 C 
ATOM     18  S   UNL     1      -3.871   1.639  -0.828  0.00  0.00    -0.017 S 
BRANCH  17  19
ATOM     19  N   UNL     1      -2.373  -0.388   0.011  0.00  0.00    -0.296 N 
ATOM     20  H   UNL     1      -1.529  -0.821   0.211  0.00  0.00    +0.154 HD
BRANCH  19  21
ATOM     21  C   UNL     1      -3.570  -1.104   0.119  0.00  0.00    +0.033 A 
ATOM     22  C   UNL     1      -3.804  -1.906   1.228  0.00  0.00    +0.025 A 
ATOM     23  C   UNL     1      -4.989  -2.608   1.333  0.00  0.00    +0.030 A 
ATOM     24  C   UNL     1      -5.937  -2.522   0.331  0.00  0.00    +0.105 A 
ATOM     25  C   UNL     1      -5.705  -1.728  -0.778  0.00  0.00    +0.030 A 
ATOM     26  C   UNL     1      -4.524  -1.019  -0.887  0.00  0.00    +0.025 A 
BRANCH  24  27
ATOM     27  S   UNL     1      -7.444  -3.424   0.466  0.00  0.00    +0.056 S 
ATOM     28  O   UNL     1      -7.652  -3.661   1.851  0.00  0.00    -0.153 OA
ATOM     29  O   UNL     1      -8.397  -2.747  -0.343  0.00  0.00    -0.153 OA
BRANCH  27  30
ATOM     30  N   UNL     1      -7.194  -4.903  -0.236  0.00  0.00    -0.204 NA
ATOM     31  H   UNL     1      -6.329  -5.118  -0.619  0.00  0.00    +0.144 HD
ATOM     32  H   UNL     1      -7.912  -5.554  -0.263  0.00  0.00    +0.144 HD
ENDBRANCH  27  30
ENDBRANCH  24  27
ENDBRANCH  19  21
ENDBRANCH  17  19
ENDBRANCH   1  17
TORSDOF 7
