REMARK  Name = ZINC13728507
REMARK  10 active torsions:
REMARK  status: ('A' for Active; 'I' for Inactive)
REMARK    1  A    between atoms: C_1  and  C_2
REMARK    2  A    between atoms: C_2  and  O_3
REMARK    3  A    between atoms: O_3  and  C_4
REMARK    4  A    between atoms: C_6  and  C_20
REMARK    5  A    between atoms: C_9  and  O_10
REMARK    6  A    between atoms: O_10  and  C_11
REMARK    7  A    between atoms: C_11  and  C_12
REMARK    8  A    between atoms: C_20  and  N_62
REMARK    9  A    between atoms: C_21  and  N_62
REMARK   10  A    between atoms: C_30  and  O_33
REMARK                            x       y       z     vdW  Elec       q    Type
REMARK                         _______ _______ _______ _____ _____    ______ ____
ROOT
ATOM      1  C   UNL     1      -0.148   1.182   2.380  0.00  0.00    +0.163 A 
ATOM      2  C   UNL     1       0.990   0.393   2.422  0.00  0.00    +0.051 A 
ATOM      3  C   UNL     1       1.535   0.028   3.639  0.00  0.00    -0.060 A 
ATOM      4  C   UNL     1       0.939   0.438   4.817  0.00  0.00    +0.021 A 
ATOM      5  C   UNL     1      -0.201   1.221   4.783  0.00  0.00    +0.063 A 
ATOM      6  C   UNL     1      -0.748   1.595   3.566  0.00  0.00    +0.176 A 
ATOM      7 BR   UNL     1      -1.012   1.780   6.397  0.00  0.00    -0.046 Br
ENDROOT
BRANCH   1   8
ATOM      8  O   UNL     1      -0.682   1.547   1.184  0.00  0.00    -0.489 OA
BRANCH   8  10
ATOM      9  C   UNL     1      -0.753   1.593  -1.232  0.00  0.00    +0.048 C 
ATOM     10  C   UNL     1      -0.013   1.086   0.008  0.00  0.00    +0.226 C 
ENDBRANCH   8  10
ENDBRANCH   1   8
BRANCH   6  11
ATOM     11  O   UNL     1      -1.869   2.365   3.530  0.00  0.00    -0.483 OA
BRANCH  11  12
ATOM     12  C   UNL     1      -3.124   1.683   3.514  0.00  0.00    +0.266 C 
BRANCH  12  13
ATOM     13  C   UNL     1      -4.243   2.692   3.475  0.00  0.00    +0.008 A 
ATOM     14  C   UNL     1      -3.955   4.044   3.466  0.00  0.00    +0.008 A 
ATOM     15  C   UNL     1      -4.981   4.969   3.426  0.00  0.00    +0.000 A 
ATOM     16  C   UNL     1      -6.297   4.543   3.404  0.00  0.00    +0.001 A 
ATOM     17  C   UNL     1      -6.586   3.192   3.419  0.00  0.00    +0.020 A 
ATOM     18  C   UNL     1      -5.559   2.265   3.454  0.00  0.00    +0.047 A 
ATOM     19 CL   UNL     1      -5.922   0.568   3.473  0.00  0.00    -0.083 Cl
ENDBRANCH  12  13
ENDBRANCH  11  12
ENDBRANCH   6  11
BRANCH   3  20
ATOM     20  C   UNL     1       2.777  -0.825   3.681  0.00  0.00    -0.046 C 
BRANCH  20  21
ATOM     21  N   UNL     1       2.386  -2.247   3.696  0.00  0.00    +0.386 N 
ATOM     22  H   UNL     1       1.847  -2.459   2.849  0.00  0.00    -0.085 HD
ATOM     23  H   UNL     1       1.809  -2.431   4.525  0.00  0.00    -0.085 HD
BRANCH  21  24
ATOM     24  C   UNL     1       3.585  -3.106   3.738  0.00  0.00    -0.065 C 
ATOM     25  C   UNL     1       4.449  -2.843   2.503  0.00  0.00    -0.009 C 
ATOM     26  C   UNL     1       5.687  -3.742   2.546  0.00  0.00    -0.009 C 
ATOM     27  C   UNL     1       6.495  -3.437   3.809  0.00  0.00    +0.007 C 
ATOM     28  C   UNL     1       5.630  -3.700   5.044  0.00  0.00    -0.009 C 
ATOM     29  C   UNL     1       4.393  -2.802   5.001  0.00  0.00    -0.009 C 
ATOM     30  C   UNL     1       5.195  -5.167   5.058  0.00  0.00    +0.038 C 
ATOM     31  C   UNL     1       4.387  -5.472   3.795  0.00  0.00    +0.065 C 
ATOM     32  C   UNL     1       5.252  -5.209   2.561  0.00  0.00    +0.038 C 
ATOM     33  C   UNL     1       3.149  -4.573   3.752  0.00  0.00    +0.022 C 
BRANCH  31  34
ATOM     34  O   UNL     1       3.980  -6.842   3.809  0.00  0.00    -0.389 OA
ATOM     35  H   UNL     1       4.715  -7.470   3.836  0.00  0.00    +0.210 HD
ENDBRANCH  31  34
ENDBRANCH  21  24
ENDBRANCH  20  21
ENDBRANCH   3  20
TORSDOF 9
