REMARK  Name = ZINC09542385
REMARK  8 active torsions:
REMARK  status: ('A' for Active; 'I' for Inactive)
REMARK    1  A    between atoms: C_1  and  O_2
REMARK    2  A    between atoms: O_2  and  C_3
REMARK    3  A    between atoms: C_7  and  C_10
REMARK    4  A    between atoms: C_8  and  O_9
REMARK    5  A    between atoms: C_13  and  C_26
REMARK    6  A    between atoms: C_15  and  C_17
REMARK    7  A    between atoms: C_20  and  O_24
REMARK    8  A    between atoms: O_24  and  C_25
REMARK                            x       y       z     vdW  Elec       q    Type
REMARK                         _______ _______ _______ _____ _____    ______ ____
ROOT
ATOM      1  C   UNL     1      -0.591   3.430   1.342  0.00  0.00    -0.028 C 
ATOM      2  C   UNL     1       0.875   3.743   1.656  0.00  0.00    +0.044 C 
ATOM      3  C   UNL     1       1.763   2.984   0.709  0.00  0.00    +0.040 C 
ATOM      4  N   UNL     1       1.351   2.002  -0.000  0.00  0.00    -0.299 NA
ATOM      5  C   UNL     1      -0.018   1.503   0.010  0.00  0.00    +0.081 C 
ATOM      6  N   UNL     1      -0.734   1.967   1.208  0.00  0.00    +0.401 N 
ATOM      7  H   UNL     1      -1.729   1.728   1.125  0.00  0.00    -0.081 HD
ATOM      8  H   UNL     1      -0.341   1.509   2.039  0.00  0.00    -0.081 HD
ENDROOT
BRANCH   5   9
ATOM      9  C   UNL     1       0.002  -0.004   0.002  0.00  0.00    -0.039 A 
ATOM     10  C   UNL     1       1.043  -0.677  -0.611  0.00  0.00    +0.007 A 
ATOM     11  C   UNL     1       1.065  -2.058  -0.620  0.00  0.00    +0.047 A 
ATOM     12  C   UNL     1       0.041  -2.771  -0.013  0.00  0.00    +0.134 A 
ATOM     13  C   UNL     1      -1.003  -2.094   0.602  0.00  0.00    +0.060 A 
ATOM     14  C   UNL     1      -1.017  -0.711   0.612  0.00  0.00    +0.022 A 
ATOM     15 BR   UNL     1      -2.401  -3.061   1.430  0.00  0.00    -0.047 Br
BRANCH  12  16
ATOM     16  O   UNL     1       0.060  -4.130  -0.020  0.00  0.00    -0.494 OA
ATOM     17  C   UNL     1       1.166  -4.759  -0.670  0.00  0.00    +0.277 C 
ENDBRANCH  12  16
ENDBRANCH   5   9
BRANCH   3  18
ATOM     18  C   UNL     1       3.177   3.392   0.592  0.00  0.00    -0.004 A 
ATOM     19  C   UNL     1       3.662   4.463   1.345  0.00  0.00    +0.011 A 
ATOM     20  C   UNL     1       4.985   4.836   1.235  0.00  0.00    +0.020 A 
ATOM     21  C   UNL     1       5.829   4.158   0.371  0.00  0.00    +0.041 A 
ATOM     22  C   UNL     1       5.352   3.098  -0.383  0.00  0.00    +0.020 A 
ATOM     23  C   UNL     1       4.033   2.712  -0.277  0.00  0.00    +0.011 A 
ATOM     24 CL   UNL     1       7.492   4.638   0.232  0.00  0.00    -0.084 Cl
ENDBRANCH   3  18
BRANCH   1  29
ATOM     25  C   UNL     1      -2.702   5.691   3.524  0.00  0.00    +0.161 A 
ATOM     26  C   UNL     1      -3.077   4.820   4.534  0.00  0.00    +0.049 A 
ATOM     27  C   UNL     1      -2.649   3.506   4.508  0.00  0.00    +0.004 A 
ATOM     28  C   UNL     1      -1.846   3.058   3.476  0.00  0.00    +0.006 A 
ATOM     29  C   UNL     1      -1.468   3.922   2.465  0.00  0.00    -0.016 A 
ATOM     30  C   UNL     1      -1.889   5.242   2.488  0.00  0.00    +0.160 A 
BRANCH  25  32
ATOM     31  C   UNL     1      -3.949   7.378   4.646  0.00  0.00    +0.277 C 
ATOM     32  O   UNL     1      -3.122   6.985   3.549  0.00  0.00    -0.491 OA
ENDBRANCH  25  32
BRANCH  30  33
ATOM     33  O   UNL     1      -1.514   6.094   1.497  0.00  0.00    -0.503 OA
ATOM     34  H   UNL     1      -2.124   6.119   0.748  0.00  0.00    +0.292 HD
ENDBRANCH  30  33
ENDBRANCH   1  29
TORSDOF 6
