REMARK  Name = ZINC43213214
REMARK  11 active torsions:
REMARK  status: ('A' for Active; 'I' for Inactive)
REMARK    1  A    between atoms: C_1  and  C_2
REMARK    2  A    between atoms: C_2  and  C_3
REMARK    3  A    between atoms: C_2  and  C_4
REMARK    4  A    between atoms: C_4  and  C_5
REMARK    5  A    between atoms: C_5  and  C_7
REMARK    6  A    between atoms: C_5  and  N_28
REMARK    7  A    between atoms: C_9  and  C_12
REMARK    8  A    between atoms: N_14  and  C_15
REMARK    9  A    between atoms: C_15  and  C_16
REMARK   10  A    between atoms: C_25  and  C_26
REMARK   11  A    between atoms: C_25  and  C_27
REMARK                            x       y       z     vdW  Elec       q    Type
REMARK                         _______ _______ _______ _____ _____    ______ ____
ROOT
ATOM      1  C   UNL     1       3.168  -0.912  -2.203  0.00  0.00    +0.182 A 
ATOM      2  N   UNL     1       3.886  -1.986  -2.067  0.00  0.00    -0.210 NA
ATOM      3  C   UNL     1       4.518  -2.235  -3.246  0.00  0.00    +0.163 A 
ATOM      4  C   UNL     1       4.147  -1.254  -4.114  0.00  0.00    +0.230 A 
ATOM      5  O   UNL     1       3.306  -0.444  -3.452  0.00  0.00    -0.449 OA
ENDROOT
BRANCH   3   6
ATOM      6  C   UNL     1       5.431  -3.357  -3.530  0.00  0.00    +0.266 C 
ATOM      7  O   UNL     1       5.934  -3.467  -4.633  0.00  0.00    -0.268 OA
ATOM      8  N   UNL     1       5.710  -4.259  -2.569  0.00  0.00    -0.310 N 
ATOM      9  H   UNL     1       5.309  -4.171  -1.690  0.00  0.00    +0.149 HD
BRANCH   8  10
ATOM     10  C   UNL     1       6.618  -5.374  -2.852  0.00  0.00    +0.108 C 
BRANCH  10  11
ATOM     11  C   UNL     1       6.762  -6.244  -1.602  0.00  0.00    +0.010 C 
ATOM     12  C   UNL     1       5.418  -6.910  -1.276  0.00  0.00    +0.005 C 
ATOM     13  C   UNL     1       5.661  -8.029  -0.252  0.00  0.00    +0.004 C 
ATOM     14  C   UNL     1       6.871  -8.854  -0.723  0.00  0.00    -0.005 C 
ATOM     15  C   UNL     1       7.101  -8.677  -2.239  0.00  0.00    +0.008 C 
ATOM     16  C   UNL     1       7.798  -7.353  -1.857  0.00  0.00    -0.000 C 
ATOM     17  C   UNL     1       8.185  -8.074  -0.531  0.00  0.00    -0.029 C 
ATOM     18  C   UNL     1       9.441  -8.941  -0.646  0.00  0.00    +0.011 C 
ATOM     19  C   UNL     1       8.192  -7.168   0.702  0.00  0.00    +0.011 C 
ENDBRANCH  10  11
ENDBRANCH   8  10
ENDBRANCH   3   6
BRANCH   1  20
ATOM     20  C   UNL     1       2.311  -0.293  -1.129  0.00  0.00    +0.013 C 
BRANCH  20  21
ATOM     21  N   UNL     1       2.519   1.161  -1.114  0.00  0.00    +0.386 N 
ATOM     22  H   UNL     1       1.970   1.571  -0.373  0.00  0.00    -0.089 HD
ATOM     23  H   UNL     1       3.496   1.359  -0.958  0.00  0.00    -0.089 HD
ATOM     24  H   UNL     1       2.233   1.551  -2.000  0.00  0.00    -0.089 HD
ENDBRANCH  20  21
BRANCH  20  25
ATOM     25  C   UNL     1       0.839  -0.595  -1.415  0.00  0.00    -0.004 C 
BRANCH  25  27
ATOM     26  C   UNL     1      -1.500  -0.278  -0.593  0.00  0.00    +0.007 C 
ATOM     27  C   UNL     1      -0.020  -0.094  -0.252  0.00  0.00    -0.018 C 
ATOM     28  C   UNL     1       0.315  -0.891   1.010  0.00  0.00    +0.007 C 
ENDBRANCH  25  27
ENDBRANCH  20  25
ENDBRANCH   1  20
TORSDOF 7
