REMARK  Name = ZINC49799111
REMARK  12 active torsions:
REMARK  status: ('A' for Active; 'I' for Inactive)
REMARK    1  A    between atoms: C_1  and  C_2
REMARK    2  A    between atoms: C_2  and  C_3
REMARK    3  A    between atoms: C_6  and  C_9
REMARK    4  A    between atoms: C_9  and  C_11
REMARK    5  A    between atoms: C_9  and  N_27
REMARK    6  A    between atoms: C_11  and  N_12
REMARK    7  A    between atoms: N_15  and  C_16
REMARK    8  A    between atoms: C_18  and  C_24
REMARK    9  A    between atoms: C_21  and  O_22
REMARK   10  A    between atoms: O_22  and  C_23
REMARK   11  A    between atoms: N_27  and  C_28
REMARK   12  A    between atoms: N_27  and  C_29
REMARK                            x       y       z     vdW  Elec       q    Type
REMARK                         _______ _______ _______ _____ _____    ______ ____
ROOT
ATOM      1  N   UNL     1       1.504  -3.985  -4.425  0.00  0.00    -0.300 N 
ATOM      2  C   UNL     1       1.353  -5.309  -4.224  0.00  0.00    +0.304 C 
ATOM      3  O   UNL     1       2.332  -6.027  -4.149  0.00  0.00    -0.253 OA
ATOM      4  N   UNL     1       0.119  -5.836  -4.104  0.00  0.00    -0.266 N 
ATOM      5  H   UNL     1       0.724  -3.411  -4.484  0.00  0.00    +0.150 HD
ATOM      6  H   UNL     1      -0.659  -5.257  -4.108  0.00  0.00    +0.156 HD
ENDROOT
BRANCH   4   7
ATOM      7  C   UNL     1      -0.041  -7.223  -3.975  0.00  0.00    +0.077 A 
ATOM      8  C   UNL     1       0.901  -7.967  -3.289  0.00  0.00    +0.040 A 
ATOM      9  C   UNL     1       0.737  -9.349  -3.162  0.00  0.00    +0.038 A 
ATOM     10  C   UNL     1      -0.377  -9.973  -3.729  0.00  0.00    +0.017 A 
ATOM     11  C   UNL     1      -1.312  -9.226  -4.412  0.00  0.00    +0.048 A 
ATOM     12  C   UNL     1      -1.154  -7.852  -4.534  0.00  0.00    +0.141 A 
BRANCH   9  13
ATOM     13  C   UNL     1       1.740 -10.148  -2.431  0.00  0.00    +0.242 C 
ATOM     14  O   UNL     1       2.710  -9.604  -1.939  0.00  0.00    -0.270 OA
ATOM     15  N   UNL     1       1.581 -11.481  -2.309  0.00  0.00    -0.325 N 
ATOM     16  H   UNL     1       0.808 -11.915  -2.702  0.00  0.00    +0.145 HD
ATOM     17  H   UNL     1       2.240 -12.006  -1.829  0.00  0.00    +0.145 HD
ENDBRANCH   9  13
BRANCH  12  18
ATOM     18  O   UNL     1      -2.082  -7.120  -5.203  0.00  0.00    -0.493 OA
ATOM     19  C   UNL     1      -3.196  -7.828  -5.750  0.00  0.00    +0.277 C 
ENDBRANCH  12  18
ENDBRANCH   4   7
BRANCH   1  20
ATOM     20  C   UNL     1       2.846  -3.411  -4.555  0.00  0.00    +0.095 C 
BRANCH  20  21
ATOM     21  C   UNL     1       2.742  -1.887  -4.648  0.00  0.00    -0.021 C 
BRANCH  21  25
ATOM     22  C   UNL     1       1.045  -0.354  -1.040  0.00  0.00    -0.048 A 
ATOM     23  C   UNL     1       0.255  -0.510  -2.164  0.00  0.00    +0.004 A 
ATOM     24  C   UNL     1       0.805  -1.006  -3.332  0.00  0.00    +0.002 A 
ATOM     25  C   UNL     1       2.144  -1.346  -3.376  0.00  0.00    -0.059 A 
ATOM     26  C   UNL     1       2.934  -1.189  -2.252  0.00  0.00    +0.002 A 
ATOM     27  C   UNL     1       2.386  -0.689  -1.086  0.00  0.00    +0.004 A 
BRANCH  22  29
ATOM     28  C   UNL     1       0.565   1.712   0.244  0.00  0.00    +0.009 C 
ATOM     29  C   UNL     1       0.447   0.186   0.233  0.00  0.00    +0.032 C 
ENDBRANCH  22  29
ENDBRANCH  21  25
BRANCH  21  30
ATOM     30  N   UNL     1       4.082  -1.317  -4.841  0.00  0.00    +0.382 N 
ATOM     31  C   UNL     1       4.624  -1.765  -6.130  0.00  0.00    -0.096 C 
ATOM     32  C   UNL     1       3.996   0.150  -4.829  0.00  0.00    -0.096 C 
ATOM     33  H   UNL     1       4.689  -1.624  -4.096  0.00  0.00    -0.082 HD
ENDBRANCH  21  30
ENDBRANCH  20  21
ENDBRANCH   1  20
TORSDOF 8
