REMARK  Name = ZINC20459412
REMARK  8 active torsions:
REMARK  status: ('A' for Active; 'I' for Inactive)
REMARK    1  A    between atoms: C_3  and  O_26
REMARK    2  A    between atoms: C_6  and  C_7
REMARK    3  A    between atoms: C_16  and  C_22
REMARK    4  A    between atoms: C_16  and  C_24
REMARK    5  A    between atoms: C_17  and  N_21
REMARK    6  A    between atoms: C_18  and  C_19
REMARK    7  A    between atoms: O_26  and  C_27
REMARK    8  A    between atoms: C_27  and  C_28
REMARK                            x       y       z     vdW  Elec       q    Type
REMARK                         _______ _______ _______ _____ _____    ______ ____
ROOT
ATOM      1  C   UNL     1      -3.713   1.483   0.069  0.00  0.00    +0.069 C 
ATOM      2  C   UNL     1      -3.722   2.951  -0.372  0.00  0.00    +0.044 C 
ATOM      3  C   UNL     1      -5.060   3.576  -0.004  0.00  0.00    +0.090 C 
ATOM      4  N   UNL     1      -4.930   5.018   0.225  0.00  0.00    -0.312 NA
ATOM      5  C   UNL     1      -4.050   5.269   1.378  0.00  0.00    +0.108 C 
ATOM      6  C   UNL     1      -2.699   4.676   1.078  0.00  0.00    -0.009 C 
ATOM      7  C   UNL     1      -2.577   3.655   0.306  0.00  0.00    -0.028 C 
ATOM      8  C   UNL     1      -1.179   3.137   0.031  0.00  0.00    +0.202 C 
ATOM      9  C   UNL     1      -1.207   1.635   0.017  0.00  0.00    +0.054 C 
ATOM     10  C   UNL     1      -2.328   0.917   0.018  0.00  0.00    +0.057 C 
ATOM     11  H   UNL     1      -4.500   5.494  -0.668  0.00  0.00    +0.122 HD
ENDROOT
BRANCH   1  17
ATOM     12  C   UNL     1      -4.324   0.615  -2.198  0.00  0.00    +0.008 A 
ATOM     13  C   UNL     1      -5.139  -0.119  -3.037  0.00  0.00    +0.046 A 
ATOM     14  C   UNL     1      -6.249  -0.776  -2.525  0.00  0.00    +0.121 A 
ATOM     15  C   UNL     1      -6.534  -0.698  -1.170  0.00  0.00    +0.046 A 
ATOM     16  C   UNL     1      -5.712   0.033  -0.334  0.00  0.00    +0.008 A 
ATOM     17  C   UNL     1      -4.607   0.687  -0.846  0.00  0.00    -0.038 A 
BRANCH  14  18
ATOM     18  O   UNL     1      -7.055  -1.495  -3.350  0.00  0.00    -0.483 OA
BRANCH  18  19
ATOM     19  C   UNL     1      -6.700  -1.531  -4.734  0.00  0.00    +0.324 C 
BRANCH  19  20
ATOM     20  C   UNL     1      -7.701  -2.369  -5.487  0.00  0.00    +0.248 C 
ATOM     21  O   UNL     1      -8.627  -2.884  -4.897  0.00  0.00    -0.272 OA
ATOM     22  N   UNL     1      -7.568  -2.545  -6.817  0.00  0.00    -0.327 N 
ATOM     23  H   UNL     1      -8.298  -3.156  -7.367  0.00  0.00    +0.145 HD
ATOM     24  H   UNL     1      -6.728  -2.077  -7.352  0.00  0.00    +0.145 HD
ENDBRANCH  19  20
ENDBRANCH  18  19
ENDBRANCH  14  18
ENDBRANCH   1  17
BRANCH   9  25
ATOM     25  N   UNL     1      -0.011   0.966   0.007  0.00  0.00    -0.358 N 
ATOM     26  H   UNL     1       0.004  -0.134  -0.003  0.00  0.00    +0.142 HD
ATOM     27  H   UNL     1       0.934   1.529   0.010  0.00  0.00    +0.142 HD
ENDBRANCH   9  25
BRANCH  10  28
ATOM     28  C   UNL     1      -2.199  -0.508  -0.033  0.00  0.00    +0.097 C 
ATOM     29  N   UNL     1      -2.097  -1.639  -0.074  0.00  0.00    -0.191 NA
ENDBRANCH  10  28
BRANCH   8  30
ATOM     30  C   UNL     1      -0.262   3.603   1.084  0.00  0.00    +0.095 C 
ATOM     31  N   UNL     1       0.446   3.962   1.896  0.00  0.00    -0.194 NA
ENDBRANCH   8  30
BRANCH   8  32
ATOM     32  C   UNL     1      -0.723   3.634  -1.278  0.00  0.00    +0.095 C 
ATOM     33  N   UNL     1      -0.371   4.017  -2.287  0.00  0.00    -0.194 NA
ENDBRANCH   8  32
TORSDOF 8
