REMARK  Name = ZINC36005343
REMARK  12 active torsions:
REMARK  status: ('A' for Active; 'I' for Inactive)
REMARK    1  A    between atoms: C_1  and  C_2
REMARK    2  A    between atoms: C_2  and  N_3
REMARK    3  A    between atoms: C_4  and  C_24
REMARK    4  A    between atoms: C_5  and  C_19
REMARK    5  A    between atoms: C_6  and  C_11
REMARK    6  A    between atoms: C_14  and  C_18
REMARK    7  A    between atoms: C_16  and  C_17
REMARK    8  A    between atoms: C_19  and  O_21
REMARK    9  A    between atoms: O_21  and  C_22
REMARK   10  A    between atoms: C_22  and  C_23
REMARK   11  A    between atoms: C_24  and  N_25
REMARK   12  A    between atoms: C_32  and  C_34
REMARK                            x       y       z     vdW  Elec       q    Type
REMARK                         _______ _______ _______ _____ _____    ______ ____
ROOT
ATOM      1  N   UNL     1       1.029  -0.108  -1.147  0.00  0.00    -0.261 N 
ATOM      2  C   UNL     1       0.260  -0.663  -2.130  0.00  0.00    +0.010 C 
ATOM      3  C   UNL     1       0.819  -1.349  -3.149  0.00  0.00    +0.076 C 
ATOM      4  C   UNL     1       2.329  -1.483  -3.165  0.00  0.00    +0.144 C 
ATOM      5  N   UNL     1       3.066  -0.848  -2.059  0.00  0.00    -0.288 N 
ATOM      6  C   UNL     1       2.365  -0.191  -1.114  0.00  0.00    +0.307 C 
ATOM      7  O   UNL     1       2.965   0.340  -0.200  0.00  0.00    -0.252 OA
ATOM      8  H   UNL     1       4.034  -0.898  -2.014  0.00  0.00    +0.151 HD
ENDROOT
BRANCH   4   9
ATOM      9  C   UNL     1       2.665  -2.952  -3.163  0.00  0.00    -0.020 A 
ATOM     10  C   UNL     1       1.721  -3.877  -2.759  0.00  0.00    +0.006 A 
ATOM     11  C   UNL     1       2.030  -5.224  -2.758  0.00  0.00    +0.004 A 
ATOM     12  C   UNL     1       3.283  -5.646  -3.161  0.00  0.00    -0.050 A 
ATOM     13  C   UNL     1       4.227  -4.722  -3.567  0.00  0.00    +0.007 A 
ATOM     14  C   UNL     1       3.916  -3.374  -3.572  0.00  0.00    -0.045 A 
ATOM     15  C   UNL     1       4.944  -2.366  -4.018  0.00  0.00    +0.044 C 
ATOM     16  C   UNL     1       3.620  -7.115  -3.159  0.00  0.00    +0.044 C 
ENDBRANCH   4   9
BRANCH   1  18
ATOM     17  C   UNL     1       0.306   2.113  -0.420  0.00  0.00    +0.025 C 
ATOM     18  C   UNL     1       0.355   0.624  -0.072  0.00  0.00    +0.111 C 
ENDBRANCH   1  18
BRANCH   3  19
ATOM     19  C   UNL     1       0.024  -1.925  -4.167  0.00  0.00    +0.339 C 
ATOM     20  O   UNL     1      -1.180  -1.748  -4.172  0.00  0.00    -0.245 OA
BRANCH  19  21
ATOM     21  O   UNL     1       0.600  -2.672  -5.132  0.00  0.00    -0.462 OA
BRANCH  21  22
ATOM     22  C   UNL     1      -0.246  -3.130  -6.189  0.00  0.00    +0.229 C 
ATOM     23  C   UNL     1       0.548  -4.054  -7.114  0.00  0.00    +0.048 C 
ENDBRANCH  21  22
ENDBRANCH  19  21
ENDBRANCH   3  19
BRANCH   2  24
ATOM     24  C   UNL     1      -1.238  -0.506  -2.075  0.00  0.00    -0.026 C 
BRANCH  24  25
ATOM     25  N   UNL     1      -1.839  -1.731  -1.530  0.00  0.00    +0.384 N 
ATOM     26  C   UNL     1      -3.285  -1.663  -1.730  0.00  0.00    -0.077 C 
ATOM     27  C   UNL     1      -3.834  -3.065  -1.876  0.00  0.00    +0.000 C 
ATOM     28  C   UNL     1      -4.303  -3.577  -0.502  0.00  0.00    +0.106 C 
ATOM     29  N   UNL     1      -3.367  -3.169   0.565  0.00  0.00    -0.299 N 
ATOM     30  C   UNL     1      -1.929  -3.212   0.392  0.00  0.00    +0.089 C 
ATOM     31  C   UNL     1      -1.430  -1.867  -0.185  0.00  0.00    -0.059 C 
ATOM     32  C   UNL     1      -3.868  -2.741   1.740  0.00  0.00    +0.247 C 
ATOM     33  O   UNL     1      -3.124  -2.298   2.593  0.00  0.00    -0.270 OA
ATOM     34  H   UNL     1      -1.484  -2.518  -2.052  0.00  0.00    -0.081 HD
BRANCH  32  35
ATOM     35  C   UNL     1      -5.322  -2.811   1.993  0.00  0.00    +0.037 A 
ATOM     36  C   UNL     1      -6.069  -3.882   1.498  0.00  0.00    +0.016 A 
ATOM     37  C   UNL     1      -7.425  -3.942   1.736  0.00  0.00    +0.039 A 
ATOM     38  C   UNL     1      -8.048  -2.941   2.466  0.00  0.00    +0.123 A 
ATOM     39  C   UNL     1      -7.311  -1.875   2.959  0.00  0.00    +0.039 A 
ATOM     40  C   UNL     1      -5.954  -1.808   2.732  0.00  0.00    +0.016 A 
ATOM     41  F   UNL     1      -9.378  -3.004   2.696  0.00  0.00    -0.205 F 
ENDBRANCH  32  35
ENDBRANCH  24  25
ENDBRANCH   2  24
TORSDOF 8
