REMARK  Name = ZINC41020111
REMARK  6 active torsions:
REMARK  status: ('A' for Active; 'I' for Inactive)
REMARK    1  A    between atoms: C_1  and  C_2
REMARK    2  A    between atoms: C_6  and  N_9
REMARK    3  A    between atoms: C_7  and  C_8
REMARK    4  A    between atoms: C_10  and  C_12
REMARK    5  A    between atoms: C_13  and  C_29
REMARK    6  A    between atoms: C_20  and  C_22
REMARK                            x       y       z     vdW  Elec       q    Type
REMARK                         _______ _______ _______ _____ _____    ______ ____
ROOT
ATOM      1  C   UNL     1       0.150  -4.687   3.699  0.00  0.00    +0.060 C 
ATOM      2  C   UNL     1       0.236  -6.024   3.747  0.00  0.00    +0.018 C 
ATOM      3  N   UNL     1       0.272  -6.715   4.934  0.00  0.00    -0.286 N 
ATOM      4  C   UNL     1      -0.042  -6.013   6.089  0.00  0.00    +0.240 A 
ATOM      5  N   UNL     1      -0.296  -6.428   7.298  0.00  0.00    -0.092 NA
ATOM      6  N   UNL     1      -0.546  -5.426   8.070  0.00  0.00    -0.021 NA
ATOM      7  N   UNL     1      -0.466  -4.316   7.410  0.00  0.00    -0.042 NA
ATOM      8  N   UNL     1      -0.132  -4.657   6.101  0.00  0.00    -0.201 N 
ATOM      9  C   UNL     1       0.103  -3.820   4.929  0.00  0.00    +0.179 C 
ATOM     10  C   UNL     1       0.296  -6.796   2.454  0.00  0.00    +0.061 C 
ATOM     11  H   UNL     1       0.506  -7.655   4.964  0.00  0.00    +0.155 HD
ENDROOT
BRANCH   9  12
ATOM     12  C   UNL     1       1.413  -3.091   5.081  0.00  0.00    -0.017 A 
ATOM     13  C   UNL     1       2.590  -3.804   5.215  0.00  0.00    +0.006 A 
ATOM     14  C   UNL     1       3.792  -3.136   5.354  0.00  0.00    +0.001 A 
ATOM     15  C   UNL     1       3.818  -1.754   5.360  0.00  0.00    +0.015 A 
ATOM     16  C   UNL     1       2.641  -1.040   5.226  0.00  0.00    +0.018 A 
ATOM     17  C   UNL     1       1.439  -1.709   5.081  0.00  0.00    +0.021 A 
ATOM     18 BR   UNL     1       2.676   0.851   5.235  0.00  0.00    -0.050 Br
ENDBRANCH   9  12
BRANCH   1  20
ATOM     19  N   UNL     1       1.213  -4.021   1.661  0.00  0.00    -0.281 N 
ATOM     20  C   UNL     1       0.107  -4.060   2.431  0.00  0.00    +0.248 C 
ATOM     21  O   UNL     1      -0.928  -3.556   2.036  0.00  0.00    -0.270 OA
ATOM     22  H   UNL     1       2.022  -4.471   1.950  0.00  0.00    +0.155 HD
BRANCH  19  28
ATOM     23  C   UNL     1       3.544  -1.271  -1.682  0.00  0.00    +0.044 C 
ATOM     24  C   UNL     1       2.309  -1.989  -1.200  0.00  0.00    -0.046 A 
ATOM     25  C   UNL     1       1.155  -1.966  -1.962  0.00  0.00    +0.004 A 
ATOM     26  C   UNL     1       0.021  -2.623  -1.524  0.00  0.00    +0.002 A 
ATOM     27  C   UNL     1       0.036  -3.306  -0.323  0.00  0.00    +0.023 A 
ATOM     28  C   UNL     1       1.194  -3.331   0.445  0.00  0.00    +0.037 A 
ATOM     29  C   UNL     1       2.334  -2.674  -0.002  0.00  0.00    -0.026 A 
ATOM     30  C   UNL     1       3.594  -2.704   0.825  0.00  0.00    +0.046 C 
ENDBRANCH  19  28
ENDBRANCH   1  20
TORSDOF 3
