REMARK  Name = ZINC20432469
REMARK  3 active torsions:
REMARK  status: ('A' for Active; 'I' for Inactive)
REMARK    1  A    between atoms: C_5  and  S_8
REMARK    2  A    between atoms: S_8  and  N_11
REMARK    3  A    between atoms: C_16  and  N_18
REMARK                            x       y       z     vdW  Elec       q    Type
REMARK                         _______ _______ _______ _____ _____    ______ ____
ROOT
ATOM      1  S   UNL     1      -2.662   0.517   0.112  0.00  0.00    +0.062 S 
ATOM      2  O   UNL     1      -2.143   1.592  -0.660  0.00  0.00    -0.153 OA
ATOM      3  O   UNL     1      -3.866  -0.154  -0.231  0.00  0.00    -0.153 OA
ENDROOT
BRANCH   1   8
ATOM      4  C   UNL     1      -3.778   0.885   3.956  0.00  0.00    +0.037 A 
ATOM      5  C   UNL     1      -3.211   2.092   4.322  0.00  0.00    +0.021 A 
ATOM      6  C   UNL     1      -2.476   2.819   3.402  0.00  0.00    +0.037 A 
ATOM      7  C   UNL     1      -2.308   2.337   2.116  0.00  0.00    +0.070 A 
ATOM      8  C   UNL     1      -2.875   1.130   1.750  0.00  0.00    +0.142 A 
ATOM      9  C   UNL     1      -3.615   0.406   2.668  0.00  0.00    +0.070 A 
ATOM     10 CL   UNL     1      -4.332  -1.105   2.206  0.00  0.00    -0.081 Cl
ATOM     11 CL   UNL     1      -1.385   3.249   0.962  0.00  0.00    -0.081 Cl
ATOM     12 BR   UNL     1      -3.441   2.751   6.080  0.00  0.00    -0.050 Br
ENDBRANCH   1   8
BRANCH   1  13
ATOM     13  N   UNL     1      -1.476  -0.637   0.171  0.00  0.00    -0.191 NA
ATOM     14  C   UNL     1      -1.823  -2.062   0.267  0.00  0.00    +0.107 C 
ATOM     15  C   UNL     1      -1.088  -2.671   1.466  0.00  0.00    +0.017 C 
ATOM     16  C   UNL     1       0.412  -2.397   1.333  0.00  0.00    +0.001 C 
ATOM     17  C   UNL     1       0.657  -0.886   1.333  0.00  0.00    +0.000 C 
ATOM     18  C   UNL     1      -0.058  -0.257   0.133  0.00  0.00    +0.019 C 
BRANCH  18  19
ATOM     19  N   UNL     1       0.061   1.206   0.200  0.00  0.00    +0.389 N 
ATOM     20  H   UNL     1       1.124   1.489   0.171  0.00  0.00    -0.088 HD
ATOM     21  H   UNL     1      -0.389   1.568   1.136  0.00  0.00    -0.088 HD
ATOM     22  H   UNL     1      -0.461   1.656  -0.657  0.00  0.00    -0.088 HD
ENDBRANCH  18  19
ENDBRANCH   1  13
TORSDOF 3
