REMARK  Name = CHEMBL341280
REMARK  2 active torsions:
REMARK  status: ('A' for Active; 'I' for Inactive)
REMARK    1  A    between atoms: C_7  and  C_11
REMARK    2  A    between atoms: C_16  and  C_17
REMARK                            x       y       z     vdW  Elec       q    Type
REMARK                         _______ _______ _______ _____ _____    ______ ____
ROOT
ATOM      1  C   UNL     1       0.060  -2.916  -0.013  0.00  0.00    +0.029 A 
ATOM      2  C   UNL     1      -0.364  -3.778   1.016  0.00  0.00    +0.143 A 
ATOM      3  N   UNL     1      -1.495  -4.325   0.660  0.00  0.00    -0.181 NA
ATOM      4  N   UNL     1      -1.857  -3.849  -0.605  0.00  0.00    -0.275 N 
ATOM      5  H   UNL     1      -2.654  -4.096  -1.100  0.00  0.00    +0.189 HD
ATOM      6  C   UNL     1      -0.900  -2.973  -1.019  0.00  0.00    +0.092 A 
ENDROOT
BRANCH   1  13
ATOM      7  C   UNL     1      -0.016   1.359   0.009  0.00  0.00    +0.001 A 
ATOM      8  C   UNL     1       1.170   2.088   0.002  0.00  0.00    +0.002 A 
ATOM      9  C   UNL     1       2.379   1.462  -0.013  0.00  0.00    +0.028 A 
ATOM     10  C   UNL     1       2.437   0.058  -0.021  0.00  0.00    +0.072 A 
ATOM     11  C   UNL     1       1.229  -0.680  -0.013  0.00  0.00    +0.008 A 
ATOM     12  C   UNL     1       0.002  -0.004   0.002  0.00  0.00    +0.010 A 
ATOM     13  C   UNL     1       1.291  -2.097  -0.021  0.00  0.00    -0.004 A 
ATOM     14  C   UNL     1       2.548  -2.691  -0.036  0.00  0.00    +0.029 A 
ATOM     15  C   UNL     1       3.684  -1.893  -0.043  0.00  0.00    +0.112 A 
ATOM     16  N   UNL     1       3.611  -0.582  -0.035  0.00  0.00    -0.255 NA
ENDBRANCH   1  13
BRANCH   6  17
ATOM     17  C   UNL     1      -0.881  -2.230  -2.295  0.00  0.00    +0.090 A 
ATOM     18  C   UNL     1      -1.575  -2.729  -3.398  0.00  0.00    +0.030 A 
ATOM     19  C   UNL     1      -1.549  -2.021  -4.586  0.00  0.00    +0.005 A 
ATOM     20  C   UNL     1      -0.830  -0.835  -4.635  0.00  0.00    +0.035 A 
ATOM     21  C   UNL     1      -0.164  -0.396  -3.504  0.00  0.00    +0.107 A 
ATOM     22  N   UNL     1      -0.208  -1.087  -2.382  0.00  0.00    -0.238 NA
ATOM     23 BR   UNL     1       0.817   1.219  -3.566  0.00  0.00    -0.029 Br
ENDBRANCH   6  17
TORSDOF 2
