REMARK  Name = CHEMBL585367
REMARK  8 active torsions:
REMARK  status: ('A' for Active; 'I' for Inactive)
REMARK    1  A    between atoms: C_1  and  C_2
REMARK    2  A    between atoms: C_5  and  O_9
REMARK    3  A    between atoms: C_6  and  C_8
REMARK    4  A    between atoms: O_9  and  C_10
REMARK    5  A    between atoms: C_14  and  N_16
REMARK    6  A    between atoms: N_16  and  C_17
REMARK    7  A    between atoms: C_20  and  S_23
REMARK    8  A    between atoms: S_23  and  N_26
REMARK                            x       y       z     vdW  Elec       q    Type
REMARK                         _______ _______ _______ _____ _____    ______ ____
ROOT
ATOM      1  C   UNL     1      -0.277  -4.844  -1.073  0.00  0.00    +0.133 A 
ATOM      2  C   UNL     1      -0.420  -4.274  -2.337  0.00  0.00    +0.066 A 
ATOM      3  C   UNL     1      -0.451  -5.092  -3.446  0.00  0.00    +0.116 A 
ATOM      4  N   UNL     1      -0.346  -6.403  -3.325  0.00  0.00    -0.240 NA
ATOM      5  C   UNL     1      -0.209  -6.985  -2.142  0.00  0.00    +0.126 A 
ATOM      6  C   UNL     1      -0.164  -6.226  -0.980  0.00  0.00    +0.090 A 
ENDROOT
BRANCH   5   7
ATOM      7  N   UNL     1      -0.102  -8.370  -2.065  0.00  0.00    -0.299 N 
ATOM      8  H   UNL     1      -0.078  -8.807  -1.199  0.00  0.00    +0.154 HD
BRANCH   7   9
ATOM      9  C   UNL     1      -0.030  -9.132  -3.234  0.00  0.00    +0.032 A 
ATOM     10  C   UNL     1       0.596  -8.618  -4.363  0.00  0.00    +0.025 A 
ATOM     11  C   UNL     1       0.665  -9.373  -5.516  0.00  0.00    +0.030 A 
ATOM     12  C   UNL     1       0.112 -10.640  -5.550  0.00  0.00    +0.105 A 
ATOM     13  C   UNL     1      -0.512 -11.155  -4.428  0.00  0.00    +0.030 A 
ATOM     14  C   UNL     1      -0.580 -10.407  -3.269  0.00  0.00    +0.025 A 
BRANCH  12  15
ATOM     15  S   UNL     1       0.202 -11.601  -7.024  0.00  0.00    +0.056 S 
ATOM     16  O   UNL     1      -0.868 -12.534  -6.967  0.00  0.00    -0.153 OA
ATOM     17  O   UNL     1       0.355 -10.682  -8.098  0.00  0.00    -0.153 OA
BRANCH  15  18
ATOM     18  N   UNL     1       1.603 -12.481  -6.950  0.00  0.00    -0.204 NA
ATOM     19  H   UNL     1       1.655 -13.346  -7.385  0.00  0.00    +0.144 HD
ATOM     20  H   UNL     1       2.371 -12.131  -6.472  0.00  0.00    +0.144 HD
ENDBRANCH  15  18
ENDBRANCH  12  15
ENDBRANCH   7   9
ENDBRANCH   5   7
BRANCH   1  21
ATOM     21  O   UNL     1      -0.242  -4.067   0.040  0.00  0.00    -0.454 OA
BRANCH  21  26
ATOM     22  C   UNL     1      -5.013  -2.058   2.141  0.00  0.00    +0.065 C 
ATOM     23  C   UNL     1      -3.739  -2.610   1.556  0.00  0.00    +0.039 A 
ATOM     24  C   UNL     1      -3.788  -3.341   0.383  0.00  0.00    +0.026 A 
ATOM     25  C   UNL     1      -2.612  -3.845  -0.149  0.00  0.00    +0.050 A 
ATOM     26  C   UNL     1      -1.421  -3.593   0.524  0.00  0.00    +0.149 A 
ATOM     27  C   UNL     1      -1.452  -2.851   1.695  0.00  0.00    +0.081 A 
ATOM     28  N   UNL     1      -2.592  -2.385   2.166  0.00  0.00    -0.253 NA
ATOM     29  C   UNL     1      -0.170  -2.570   2.435  0.00  0.00    +0.069 C 
ENDBRANCH  21  26
ENDBRANCH   1  21
TORSDOF 6
