REMARK  Name = CHEMBL585367
REMARK  8 active torsions:
REMARK  status: ('A' for Active; 'I' for Inactive)
REMARK    1  A    between atoms: C_1  and  C_2
REMARK    2  A    between atoms: C_5  and  O_9
REMARK    3  A    between atoms: C_6  and  C_8
REMARK    4  A    between atoms: O_9  and  C_10
REMARK    5  A    between atoms: C_14  and  N_16
REMARK    6  A    between atoms: N_16  and  C_17
REMARK    7  A    between atoms: C_20  and  S_23
REMARK    8  A    between atoms: S_23  and  N_26
REMARK                            x       y       z     vdW  Elec       q    Type
REMARK                         _______ _______ _______ _____ _____    ______ ____
ROOT
ATOM      1  C   UNL     1      -0.717  -4.872  -1.151  0.00  0.00    +0.133 A 
ATOM      2  C   UNL     1      -0.768  -4.323  -2.432  0.00  0.00    +0.064 A 
ATOM      3  C   UNL     1      -0.596  -5.145  -3.525  0.00  0.00    +0.088 A 
ATOM      4  N   UNL     1      -0.384  -6.439  -3.373  0.00  0.00    -0.349 N 
ATOM      5  C   UNL     1      -0.328  -7.001  -2.174  0.00  0.00    +0.104 A 
ATOM      6  C   UNL     1      -0.487  -6.237  -1.026  0.00  0.00    +0.088 A 
ATOM      7  H   UNL     1      -0.266  -6.994  -4.160  0.00  0.00    +0.167 HD
ENDROOT
BRANCH   5   8
ATOM      8  N   UNL     1      -0.103  -8.370  -2.065  0.00  0.00    -0.301 N 
ATOM      9  H   UNL     1       0.144  -8.885  -2.849  0.00  0.00    +0.154 HD
BRANCH   8  10
ATOM     10  C   UNL     1      -0.233  -9.003  -0.825  0.00  0.00    +0.032 A 
ATOM     11  C   UNL     1      -1.288  -8.675   0.016  0.00  0.00    +0.025 A 
ATOM     12  C   UNL     1      -1.414  -9.302   1.240  0.00  0.00    +0.030 A 
ATOM     13  C   UNL     1      -0.491 -10.256   1.628  0.00  0.00    +0.105 A 
ATOM     14  C   UNL     1       0.561 -10.585   0.793  0.00  0.00    +0.030 A 
ATOM     15  C   UNL     1       0.690  -9.965  -0.435  0.00  0.00    +0.025 A 
BRANCH  13  16
ATOM     16  S   UNL     1      -0.654 -11.053   3.191  0.00  0.00    +0.056 S 
ATOM     17  O   UNL     1       0.642 -11.510   3.551  0.00  0.00    -0.153 OA
ATOM     18  O   UNL     1      -1.410 -10.178   4.016  0.00  0.00    -0.153 OA
BRANCH  16  19
ATOM     19  N   UNL     1      -1.584 -12.403   2.957  0.00  0.00    -0.204 NA
ATOM     20  H   UNL     1      -1.921 -12.613   2.071  0.00  0.00    +0.144 HD
ATOM     21  H   UNL     1      -1.792 -12.985   3.705  0.00  0.00    +0.144 HD
ENDBRANCH  16  19
ENDBRANCH  13  16
ENDBRANCH   8  10
ENDBRANCH   5   8
BRANCH   1  22
ATOM     22  O   UNL     1      -0.882  -4.091  -0.053  0.00  0.00    -0.454 OA
BRANCH  22  27
ATOM     23  C   UNL     1      -6.024  -2.492   1.437  0.00  0.00    +0.065 C 
ATOM     24  C   UNL     1      -4.646  -2.934   1.016  0.00  0.00    +0.039 A 
ATOM     25  C   UNL     1      -4.491  -3.664  -0.148  0.00  0.00    +0.026 A 
ATOM     26  C   UNL     1      -3.222  -4.067  -0.530  0.00  0.00    +0.050 A 
ATOM     27  C   UNL     1      -2.146  -3.718   0.281  0.00  0.00    +0.149 A 
ATOM     28  C   UNL     1      -2.381  -2.984   1.434  0.00  0.00    +0.081 A 
ATOM     29  N   UNL     1      -3.605  -2.616   1.759  0.00  0.00    -0.253 NA
ATOM     30  C   UNL     1      -1.226  -2.599   2.322  0.00  0.00    +0.069 C 
ENDBRANCH  22  27
ENDBRANCH   1  22
TORSDOF 6
