REMARK  Name = CHEMBL519939
REMARK  5 active torsions:
REMARK  status: ('A' for Active; 'I' for Inactive)
REMARK    1  A    between atoms: C_1  and  C_2
REMARK    2  A    between atoms: C_6  and  C_8
REMARK    3  A    between atoms: C_9  and  C_18
REMARK    4  A    between atoms: N_14  and  C_15
REMARK    5  A    between atoms: C_15  and  C_17
REMARK                            x       y       z     vdW  Elec       q    Type
REMARK                         _______ _______ _______ _____ _____    ______ ____
ROOT
ATOM      1  C   UNL     1       1.008  -2.121   2.869  0.00  0.00    +0.092 A 
ATOM      2  C   UNL     1       0.887  -1.680   4.151  0.00  0.00    +0.075 A 
ATOM      3  N   UNL     1       0.723  -2.789   4.965  0.00  0.00    -0.325 N 
ATOM      4  H   UNL     1       0.612  -2.777   5.928  0.00  0.00    +0.169 HD
ATOM      5  C   UNL     1       0.745  -3.897   4.178  0.00  0.00    +0.198 A 
ATOM      6  N   UNL     1       0.912  -3.504   2.890  0.00  0.00    -0.324 N 
ATOM      7  N   UNL     1       0.618  -5.154   4.600  0.00  0.00    -0.151 NA
ATOM      8  H   UNL     1       0.960  -4.089   2.118  0.00  0.00    +0.169 HD
ENDROOT
BRANCH   2   9
ATOM      9  C   UNL     1       0.924  -0.273   4.595  0.00  0.00    +0.003 A 
ATOM     10  C   UNL     1       0.103   0.681   3.964  0.00  0.00    +0.012 A 
ATOM     11  C   UNL     1       0.120   1.980   4.354  0.00  0.00    +0.030 A 
ATOM     12  C   UNL     1       0.966   2.391   5.403  0.00  0.00    +0.089 A 
ATOM     13  C   UNL     1       1.798   1.439   6.047  0.00  0.00    +0.090 A 
ATOM     14  C   UNL     1       1.763   0.099   5.633  0.00  0.00    +0.040 A 
ATOM     15  N   UNL     1       2.601   1.831   7.044  0.00  0.00    -0.252 NA
ATOM     16  C   UNL     1       2.610   3.091   7.415  0.00  0.00    +0.131 A 
ATOM     17  C   UNL     1       1.791   4.027   6.781  0.00  0.00    +0.131 A 
ATOM     18  N   UNL     1       0.995   3.667   5.800  0.00  0.00    -0.252 NA
ENDBRANCH   2   9
BRANCH   1  24
ATOM     19  C   UNL     1       1.781   2.292   0.979  0.00  0.00    +0.068 C 
ATOM     20  C   UNL     1       1.565   0.816   0.769  0.00  0.00    +0.074 A 
ATOM     21  C   UNL     1       1.552   0.303  -0.518  0.00  0.00    +0.144 A 
ATOM     22  C   UNL     1       1.353  -1.060  -0.708  0.00  0.00    +0.042 A 
ATOM     23  C   UNL     1       1.174  -1.862   0.404  0.00  0.00    +0.033 A 
ATOM     24  C   UNL     1       1.198  -1.278   1.673  0.00  0.00    +0.090 A 
ATOM     25  N   UNL     1       1.397   0.029   1.812  0.00  0.00    -0.247 NA
ATOM     26  F   UNL     1       1.731   1.120  -1.579  0.00  0.00    -0.204 F 
ENDBRANCH   1  24
BRANCH   7  27
ATOM     27  C   UNL     1       0.550  -5.415   5.901  0.00  0.00    +0.176 C 
ATOM     28  O   UNL     1      -0.391  -5.009   6.554  0.00  0.00    -0.497 OA
ATOM     29  C   UNL     1       1.641  -6.215   6.566  0.00  0.00    +0.106 C 
ATOM     30  H   UNL     1      -1.241  -5.397   6.304  0.00  0.00    +0.293 HD
ENDBRANCH   7  27
TORSDOF 3
