REMARK  Name = CHEMBL6250
REMARK  4 active torsions:
REMARK  status: ('A' for Active; 'I' for Inactive)
REMARK    1  A    between atoms: C_5  and  C_7
REMARK    2  A    between atoms: C_8  and  C_22
REMARK    3  A    between atoms: C_10  and  C_13
REMARK    4  A    between atoms: C_16  and  C_19
REMARK                            x       y       z     vdW  Elec       q    Type
REMARK                         _______ _______ _______ _____ _____    ______ ____
ROOT
ATOM      1  C   UNL     1       1.268  -2.145  -0.022  0.00  0.00    +0.115 A 
ATOM      2  C   UNL     1       2.303  -2.934  -0.505  0.00  0.00    +0.076 A 
ATOM      3  N   UNL     1       1.917  -4.237  -0.315  0.00  0.00    -0.337 N 
ATOM      4  C   UNL     1       0.681  -4.212   0.269  0.00  0.00    +0.139 A 
ATOM      5  N   UNL     1       0.312  -2.963   0.441  0.00  0.00    -0.226 NA
ATOM      6  H   UNL     1       2.426  -5.029  -0.550  0.00  0.00    +0.167 HD
ENDROOT
BRANCH   2   7
ATOM      7  C   UNL     1       3.566  -2.465  -1.106  0.00  0.00    +0.004 A 
ATOM      8  C   UNL     1       3.553  -1.434  -2.048  0.00  0.00    +0.014 A 
ATOM      9  C   UNL     1       4.735  -0.997  -2.608  0.00  0.00    +0.050 A 
ATOM     10  C   UNL     1       5.940  -1.578  -2.239  0.00  0.00    +0.166 A 
ATOM     11  C   UNL     1       5.960  -2.608  -1.299  0.00  0.00    +0.167 A 
ATOM     12  C   UNL     1       4.779  -3.047  -0.730  0.00  0.00    +0.059 A 
ATOM     13  O   UNL     1       7.253  -3.004  -1.113  0.00  0.00    -0.453 OA
ATOM     14  C   UNL     1       7.979  -2.489  -2.245  0.00  0.00    +0.466 C 
ATOM     15  O   UNL     1       7.221  -1.330  -2.640  0.00  0.00    -0.453 OA
ENDBRANCH   2   7
BRANCH   1  20
ATOM     16  C   UNL     1      -0.017   1.379   0.010  0.00  0.00    +0.004 A 
ATOM     17  C   UNL     1       1.194   2.059   0.002  0.00  0.00    +0.020 A 
ATOM     18  C   UNL     1       2.375   1.341  -0.013  0.00  0.00    +0.111 A 
ATOM     19  N   UNL     1       2.366   0.023  -0.020  0.00  0.00    -0.253 NA
ATOM     20  C   UNL     1       1.231  -0.665  -0.013  0.00  0.00    +0.091 A 
ATOM     21  C   UNL     1       0.002  -0.004   0.002  0.00  0.00    +0.030 A 
ENDBRANCH   1  20
BRANCH   4  22
ATOM     22  C   UNL     1      -0.110  -5.399   0.650  0.00  0.00    +0.017 A 
ATOM     23  C   UNL     1       0.400  -6.681   0.423  0.00  0.00    +0.012 A 
ATOM     24  C   UNL     1      -0.332  -7.779   0.776  0.00  0.00    +0.016 A 
ATOM     25  C   UNL     1      -1.591  -7.621   1.364  0.00  0.00    +0.063 A 
ATOM     26  C   UNL     1      -2.101  -6.338   1.591  0.00  0.00    +0.016 A 
ATOM     27  C   UNL     1      -1.366  -5.240   1.242  0.00  0.00    +0.012 A 
BRANCH  25  28
ATOM     28  C   UNL     1      -2.381  -8.806   1.744  0.00  0.00    +0.387 C 
ATOM     29  O   UNL     1      -1.935  -9.928   1.546  0.00  0.00    -0.241 OA
ATOM     30  O   UNL     1      -3.482  -8.667   2.259  0.00  0.00    -0.241 OA
ENDBRANCH  25  28
ENDBRANCH   4  22
TORSDOF 4
