REMARK  Name = CHEMBL537968
REMARK  4 active torsions:
REMARK  status: ('A' for Active; 'I' for Inactive)
REMARK    1  A    between atoms: C_1  and  C_2
REMARK    2  A    between atoms: C_6  and  C_8
REMARK    3  A    between atoms: C_16  and  N_18
REMARK    4  A    between atoms: N_18  and  C_19
REMARK                            x       y       z     vdW  Elec       q    Type
REMARK                         _______ _______ _______ _____ _____    ______ ____
ROOT
ATOM      1  C   UNL     1       0.496  -2.705   2.531  0.00  0.00    +0.181 A 
ATOM      2  N   UNL     1       0.323  -4.013   2.530  0.00  0.00    -0.226 NA
ATOM      3  C   UNL     1       0.043  -4.662   3.668  0.00  0.00    +0.077 A 
ATOM      4  C   UNL     1      -0.147  -6.051   3.702  0.00  0.00    +0.028 A 
ATOM      5  C   UNL     1      -0.429  -6.663   4.888  0.00  0.00    +0.002 A 
ATOM      6  C   UNL     1      -0.532  -5.930   6.066  0.00  0.00    +0.001 A 
ATOM      7  C   UNL     1      -0.354  -4.577   6.069  0.00  0.00    +0.013 A 
ATOM      8  C   UNL     1      -0.062  -3.918   4.870  0.00  0.00    +0.040 A 
ATOM      9  C   UNL     1       0.134  -2.516   4.811  0.00  0.00    +0.135 A 
ATOM     10  N   UNL     1       0.411  -1.969   3.637  0.00  0.00    -0.210 NA
ENDROOT
BRANCH   1  16
ATOM     11  C   UNL     1       1.464   1.419   0.136  0.00  0.00    +0.065 C 
ATOM     12  C   UNL     1       1.264  -0.075   0.108  0.00  0.00    +0.039 A 
ATOM     13  C   UNL     1       1.373  -0.755  -1.092  0.00  0.00    +0.023 A 
ATOM     14  C   UNL     1       1.188  -2.130  -1.113  0.00  0.00    +0.004 A 
ATOM     15  C   UNL     1       0.899  -2.776   0.077  0.00  0.00    +0.031 A 
ATOM     16  C   UNL     1       0.805  -2.028   1.248  0.00  0.00    +0.108 A 
ATOM     17  N   UNL     1       0.994  -0.715   1.226  0.00  0.00    -0.249 NA
ENDBRANCH   1  16
BRANCH   9  18
ATOM     18  N   UNL     1       0.043  -1.741   5.949  0.00  0.00    -0.299 N 
ATOM     19  H   UNL     1      -0.076  -2.162   6.814  0.00  0.00    +0.154 HD
BRANCH  18  20
ATOM     20  C   UNL     1       0.124  -0.347   5.854  0.00  0.00    +0.033 A 
ATOM     21  C   UNL     1      -0.499   0.303   4.779  0.00  0.00    +0.025 A 
ATOM     22  C   UNL     1      -0.454   1.650   4.637  0.00  0.00    +0.032 A 
ATOM     23  C   UNL     1       0.236   2.431   5.590  0.00  0.00    +0.093 A 
ATOM     24  C   UNL     1       0.890   1.752   6.719  0.00  0.00    +0.021 A 
ATOM     25  C   UNL     1       0.801   0.346   6.812  0.00  0.00    +0.034 A 
ATOM     26  C   UNL     1       1.480   2.742   7.483  0.00  0.00    +0.113 A 
ATOM     27  N   UNL     1       1.224   3.921   6.897  0.00  0.00    -0.284 N 
ATOM     28  N   UNL     1       0.463   3.724   5.740  0.00  0.00    -0.174 NA
ATOM     29  H   UNL     1       1.523   4.783   7.228  0.00  0.00    +0.188 HD
ENDBRANCH  18  20
ENDBRANCH   9  18
TORSDOF 3
