REMARK  Name = CHEMBL567287
REMARK  6 active torsions:
REMARK  status: ('A' for Active; 'I' for Inactive)
REMARK    1  A    between atoms: C_5  and  C_7
REMARK    2  A    between atoms: C_8  and  C_13
REMARK    3  A    between atoms: C_17  and  C_19
REMARK    4  A    between atoms: C_22  and  N_25
REMARK    5  A    between atoms: C_26  and  C_28
REMARK    6  A    between atoms: C_28  and  N_29
REMARK                            x       y       z     vdW  Elec       q    Type
REMARK                         _______ _______ _______ _____ _____    ______ ____
ROOT
ATOM      1  C   UNL     1       3.578  -2.317  -0.973  0.00  0.00    -0.011 A 
ATOM      2  C   UNL     1       3.550  -1.498  -2.109  0.00  0.00    +0.028 A 
ATOM      3  C   UNL     1       4.731  -1.215  -2.764  0.00  0.00    +0.112 A 
ATOM      4  N   UNL     1       5.879  -1.704  -2.337  0.00  0.00    -0.255 NA
ATOM      5  C   UNL     1       5.955  -2.484  -1.266  0.00  0.00    +0.072 A 
ATOM      6  C   UNL     1       4.811  -2.812  -0.545  0.00  0.00    +0.037 A 
ENDROOT
BRANCH   1   8
ATOM      7  C   UNL     1       1.368  -1.741   0.189  0.00  0.00    +0.092 A 
ATOM      8  C   UNL     1       2.332  -2.644  -0.242  0.00  0.00    +0.029 A 
ATOM      9  C   UNL     1       1.905  -3.927   0.146  0.00  0.00    +0.143 A 
ATOM     10  N   UNL     1       0.762  -3.814   0.768  0.00  0.00    -0.181 NA
ATOM     11  H   UNL     1      -0.403  -2.103   1.228  0.00  0.00    +0.189 HD
ATOM     12  N   UNL     1       0.399  -2.463   0.818  0.00  0.00    -0.275 N 
BRANCH   7  17
ATOM     13  C   UNL     1       0.234   1.813  -0.177  0.00  0.00    +0.004 A 
ATOM     14  C   UNL     1       1.469   2.425  -0.339  0.00  0.00    +0.020 A 
ATOM     15  C   UNL     1       2.617   1.655  -0.322  0.00  0.00    +0.111 A 
ATOM     16  N   UNL     1       2.553   0.349  -0.154  0.00  0.00    -0.253 NA
ATOM     17  C   UNL     1       1.392  -0.276   0.004  0.00  0.00    +0.089 A 
ATOM     18  C   UNL     1       0.194   0.441  -0.003  0.00  0.00    +0.030 A 
ENDBRANCH   7  17
ENDBRANCH   1   8
BRANCH   5  19
ATOM     19  C   UNL     1       7.272  -3.006  -0.830  0.00  0.00    +0.000 A 
ATOM     20  C   UNL     1       7.360  -3.831   0.291  0.00  0.00    +0.012 A 
ATOM     21  C   UNL     1       8.586  -4.315   0.695  0.00  0.00    +0.024 A 
ATOM     22  C   UNL     1       9.734  -3.981  -0.014  0.00  0.00    +0.033 A 
ATOM     23  C   UNL     1       9.649  -3.159  -1.132  0.00  0.00    +0.024 A 
ATOM     24  C   UNL     1       8.425  -2.677  -1.543  0.00  0.00    +0.012 A 
BRANCH  22  25
ATOM     25  N   UNL     1      10.976  -4.473   0.397  0.00  0.00    -0.287 N 
ATOM     26  C   UNL     1      11.064  -5.694   0.959  0.00  0.00    +0.201 C 
ATOM     27  O   UNL     1      10.084  -6.406   1.022  0.00  0.00    -0.278 OA
ATOM     28  H   UNL     1      11.774  -3.935   0.277  0.00  0.00    +0.155 HD
BRANCH  26  29
ATOM     29  C   UNL     1      12.381  -6.177   1.511  0.00  0.00    +0.019 C 
BRANCH  29  30
ATOM     30  N   UNL     1      12.215  -7.527   2.065  0.00  0.00    +0.385 N 
ATOM     31  C   UNL     1      11.963  -8.502   0.973  0.00  0.00    -0.078 C 
ATOM     32  C   UNL     1      12.370  -9.856   1.605  0.00  0.00    -0.020 C 
ATOM     33  C   UNL     1      13.601  -9.481   2.462  0.00  0.00    -0.020 C 
ATOM     34  C   UNL     1      13.467  -7.968   2.717  0.00  0.00    -0.078 C 
ATOM     35  H   UNL     1      11.454  -7.540   2.727  0.00  0.00    -0.081 HD
ENDBRANCH  29  30
ENDBRANCH  26  29
ENDBRANCH  22  25
ENDBRANCH   5  19
TORSDOF 6
