REMARK  Name = CHEMBL205158
REMARK  7 active torsions:
REMARK  status: ('A' for Active; 'I' for Inactive)
REMARK    1  A    between atoms: C_5  and  C_7
REMARK    2  A    between atoms: C_8  and  C_13
REMARK    3  A    between atoms: C_17  and  C_19
REMARK    4  A    between atoms: C_22  and  O_25
REMARK    5  A    between atoms: O_25  and  C_26
REMARK    6  A    between atoms: C_26  and  C_27
REMARK    7  A    between atoms: C_27  and  N_28
REMARK                            x       y       z     vdW  Elec       q    Type
REMARK                         _______ _______ _______ _____ _____    ______ ____
ROOT
ATOM      1  C   UNL     1       3.592  -2.253  -0.782  0.00  0.00    -0.011 A 
ATOM      2  C   UNL     1       3.558  -1.365  -1.863  0.00  0.00    +0.028 A 
ATOM      3  C   UNL     1       4.738  -1.018  -2.487  0.00  0.00    +0.112 A 
ATOM      4  N   UNL     1       5.892  -1.508  -2.080  0.00  0.00    -0.255 NA
ATOM      5  C   UNL     1       5.974  -2.354  -1.059  0.00  0.00    +0.072 A 
ATOM      6  C   UNL     1       4.830  -2.750  -0.373  0.00  0.00    +0.037 A 
ENDROOT
BRANCH   1   8
ATOM      7  C   UNL     1       1.339  -1.777   0.401  0.00  0.00    +0.118 A 
ATOM      8  C   UNL     1       2.345  -2.651  -0.085  0.00  0.00    +0.029 A 
ATOM      9  C   UNL     1       1.955  -3.925   0.206  0.00  0.00    +0.114 A 
ATOM     10  N   UNL     1       0.768  -3.859   0.841  0.00  0.00    -0.284 N 
ATOM     11  H   UNL     1       0.256  -4.616   1.166  0.00  0.00    +0.188 HD
ATOM     12  N   UNL     1       0.402  -2.512   0.958  0.00  0.00    -0.172 NA
BRANCH   7  17
ATOM     13  C   UNL     1       0.164   1.783   0.238  0.00  0.00    +0.004 A 
ATOM     14  C   UNL     1       1.392   2.419   0.121  0.00  0.00    +0.020 A 
ATOM     15  C   UNL     1       2.549   1.663   0.101  0.00  0.00    +0.111 A 
ATOM     16  N   UNL     1       2.500   0.349   0.190  0.00  0.00    -0.253 NA
ATOM     17  C   UNL     1       1.346  -0.298   0.303  0.00  0.00    +0.091 A 
ATOM     18  C   UNL     1       0.142   0.403   0.331  0.00  0.00    +0.030 A 
ENDBRANCH   7  17
ENDBRANCH   1   8
BRANCH   5  19
ATOM     19  C   UNL     1       7.298  -2.876  -0.643  0.00  0.00    +0.001 A 
ATOM     20  C   UNL     1       7.393  -3.768   0.424  0.00  0.00    +0.013 A 
ATOM     21  C   UNL     1       8.625  -4.252   0.808  0.00  0.00    +0.046 A 
ATOM     22  C   UNL     1       9.771  -3.852   0.135  0.00  0.00    +0.121 A 
ATOM     23  C   UNL     1       9.680  -2.963  -0.929  0.00  0.00    +0.046 A 
ATOM     24  C   UNL     1       8.450  -2.480  -1.322  0.00  0.00    +0.013 A 
BRANCH  22  25
ATOM     25  O   UNL     1      10.984  -4.329   0.516  0.00  0.00    -0.491 OA
BRANCH  25  26
ATOM     26  C   UNL     1      12.121  -3.876  -0.221  0.00  0.00    +0.244 C 
BRANCH  26  27
ATOM     27  C   UNL     1      13.388  -4.516   0.350  0.00  0.00    +0.125 C 
BRANCH  27  28
ATOM     28  N   UNL     1      13.341  -5.969   0.135  0.00  0.00    -0.295 NA
ATOM     29  C   UNL     1      14.268  -6.665   1.040  0.00  0.00    +0.112 C 
ATOM     30  C   UNL     1      14.144  -8.176   0.824  0.00  0.00    +0.175 C 
ATOM     31  O   UNL     1      14.399  -8.479  -0.550  0.00  0.00    -0.377 OA
ATOM     32  C   UNL     1      13.514  -7.818  -1.459  0.00  0.00    +0.175 C 
ATOM     33  C   UNL     1      13.632  -6.304  -1.266  0.00  0.00    +0.112 C 
ENDBRANCH  27  28
ENDBRANCH  26  27
ENDBRANCH  25  26
ENDBRANCH  22  25
ENDBRANCH   5  19
TORSDOF 7
