REMARK  Name = CHEMBL330814
REMARK  4 active torsions:
REMARK  status: ('A' for Active; 'I' for Inactive)
REMARK    1  A    between atoms: C_1  and  C_2
REMARK    2  A    between atoms: C_6  and  C_8
REMARK    3  A    between atoms: C_9  and  C_16
REMARK    4  A    between atoms: C_19  and  O_22
REMARK                            x       y       z     vdW  Elec       q    Type
REMARK                         _______ _______ _______ _____ _____    ______ ____
ROOT
ATOM      1  C   UNL     1       0.050  -2.682   2.494  0.00  0.00    +0.119 A 
ATOM      2  C   UNL     1       0.528  -2.149   3.716  0.00  0.00    +0.032 A 
ATOM      3  C   UNL     1       0.365  -3.108   4.673  0.00  0.00    +0.048 A 
ATOM      4  N   UNL     1      -0.190  -4.189   4.090  0.00  0.00    -0.267 N 
ATOM      5  N   UNL     1      -0.381  -3.901   2.728  0.00  0.00    -0.169 NA
ATOM      6  C   UNL     1      -0.402  -5.266   5.071  0.00  0.00    +0.144 C 
ATOM      7  C   UNL     1       0.486  -4.905   6.281  0.00  0.00    +0.029 C 
ATOM      8  C   UNL     1       0.592  -3.369   6.147  0.00  0.00    +0.057 C 
ENDROOT
BRANCH   1  14
ATOM      9  C   UNL     1      -0.018   1.503   0.010  0.00  0.00    +0.065 C 
ATOM     10  C   UNL     1       0.002  -0.004   0.002  0.00  0.00    +0.039 A 
ATOM     11  C   UNL     1       0.005  -0.679  -1.204  0.00  0.00    +0.023 A 
ATOM     12  C   UNL     1       0.024  -2.067  -1.208  0.00  0.00    +0.004 A 
ATOM     13  C   UNL     1       0.039  -2.731   0.006  0.00  0.00    +0.030 A 
ATOM     14  C   UNL     1       0.035  -1.986   1.185  0.00  0.00    +0.092 A 
ATOM     15  N   UNL     1       0.022  -0.660   1.145  0.00  0.00    -0.250 NA
ENDBRANCH   1  14
BRANCH   2  16
ATOM     16  C   UNL     1       1.101  -0.795   3.919  0.00  0.00    -0.014 A 
ATOM     17  C   UNL     1       2.438  -0.650   4.283  0.00  0.00    +0.012 A 
ATOM     18  C   UNL     1       2.968   0.609   4.471  0.00  0.00    +0.046 A 
ATOM     19  C   UNL     1       2.170   1.732   4.298  0.00  0.00    +0.117 A 
ATOM     20  C   UNL     1       0.838   1.591   3.936  0.00  0.00    +0.046 A 
ATOM     21  C   UNL     1       0.304   0.334   3.740  0.00  0.00    +0.012 A 
BRANCH  19  22
ATOM     22  O   UNL     1       2.695   2.972   4.485  0.00  0.00    -0.507 OA
ATOM     23  H   UNL     1       3.076   3.362   3.687  0.00  0.00    +0.292 HD
ENDBRANCH  19  22
ENDBRANCH   2  16
TORSDOF 3
