REMARK  Name = CHEMBL202994
REMARK  7 active torsions:
REMARK  status: ('A' for Active; 'I' for Inactive)
REMARK    1  A    between atoms: C_5  and  C_7
REMARK    2  A    between atoms: C_8  and  C_13
REMARK    3  A    between atoms: C_17  and  C_19
REMARK    4  A    between atoms: C_22  and  O_25
REMARK    5  A    between atoms: O_25  and  C_26
REMARK    6  A    between atoms: C_26  and  C_27
REMARK    7  A    between atoms: C_27  and  N_28
REMARK                            x       y       z     vdW  Elec       q    Type
REMARK                         _______ _______ _______ _____ _____    ______ ____
ROOT
ATOM      1  C   UNL     1       3.589  -2.468  -1.119  0.00  0.00    -0.011 A 
ATOM      2  C   UNL     1       3.579  -1.504  -2.134  0.00  0.00    +0.028 A 
ATOM      3  C   UNL     1       4.776  -1.077  -2.670  0.00  0.00    +0.112 A 
ATOM      4  N   UNL     1       5.924  -1.562  -2.240  0.00  0.00    -0.255 NA
ATOM      5  C   UNL     1       5.984  -2.477  -1.280  0.00  0.00    +0.072 A 
ATOM      6  C   UNL     1       4.822  -2.956  -0.684  0.00  0.00    +0.037 A 
ENDROOT
BRANCH   1   8
ATOM      7  C   UNL     1       1.267  -2.146  -0.023  0.00  0.00    +0.118 A 
ATOM      8  C   UNL     1       2.324  -2.953  -0.517  0.00  0.00    +0.029 A 
ATOM      9  C   UNL     1       1.963  -4.255  -0.339  0.00  0.00    +0.114 A 
ATOM     10  N   UNL     1       0.744  -4.271   0.237  0.00  0.00    -0.284 N 
ATOM     11  H   UNL     1       0.242  -5.064   0.480  0.00  0.00    +0.188 HD
ATOM     12  N   UNL     1       0.328  -2.948   0.431  0.00  0.00    -0.172 NA
BRANCH   7  17
ATOM     13  C   UNL     1      -0.017   1.379   0.010  0.00  0.00    +0.004 A 
ATOM     14  C   UNL     1       1.194   2.059   0.002  0.00  0.00    +0.020 A 
ATOM     15  C   UNL     1       2.374   1.340  -0.013  0.00  0.00    +0.111 A 
ATOM     16  N   UNL     1       2.365   0.022  -0.021  0.00  0.00    -0.253 NA
ATOM     17  C   UNL     1       1.230  -0.665  -0.014  0.00  0.00    +0.091 A 
ATOM     18  C   UNL     1       0.002  -0.004   0.002  0.00  0.00    +0.030 A 
ENDBRANCH   7  17
ENDBRANCH   1   8
BRANCH   5  19
ATOM     19  C   UNL     1       7.303  -2.989  -0.835  0.00  0.00    +0.001 A 
ATOM     20  C   UNL     1       7.375  -3.954   0.169  0.00  0.00    +0.013 A 
ATOM     21  C   UNL     1       8.602  -4.428   0.581  0.00  0.00    +0.046 A 
ATOM     22  C   UNL     1       9.766  -3.945  -0.003  0.00  0.00    +0.120 A 
ATOM     23  C   UNL     1       9.697  -2.984  -1.003  0.00  0.00    +0.046 A 
ATOM     24  C   UNL     1       8.473  -2.511  -1.423  0.00  0.00    +0.013 A 
BRANCH  22  25
ATOM     25  O   UNL     1      10.974  -4.413   0.405  0.00  0.00    -0.494 OA
BRANCH  25  26
ATOM     26  C   UNL     1      12.130  -3.873  -0.238  0.00  0.00    +0.210 C 
BRANCH  26  27
ATOM     27  C   UNL     1      13.388  -4.516   0.350  0.00  0.00    -0.037 C 
BRANCH  27  28
ATOM     28  N   UNL     1      13.399  -5.950   0.031  0.00  0.00    +0.382 N 
ATOM     29  C   UNL     1      12.280  -6.623   0.724  0.00  0.00    -0.079 C 
ATOM     30  C   UNL     1      12.840  -8.012   1.123  0.00  0.00    -0.020 C 
ATOM     31  C   UNL     1      14.305  -7.663   1.498  0.00  0.00    -0.020 C 
ATOM     32  C   UNL     1      14.665  -6.551   0.491  0.00  0.00    -0.079 C 
ATOM     33  H   UNL     1      13.305  -6.078  -0.965  0.00  0.00    -0.082 HD
ENDBRANCH  27  28
ENDBRANCH  26  27
ENDBRANCH  25  26
ENDBRANCH  22  25
ENDBRANCH   5  19
TORSDOF 7
