REMARK  Name = CHEMBL380916
REMARK  4 active torsions:
REMARK  status: ('A' for Active; 'I' for Inactive)
REMARK    1  A    between atoms: C_5  and  C_7
REMARK    2  A    between atoms: C_8  and  C_13
REMARK    3  A    between atoms: C_17  and  C_19
REMARK    4  A    between atoms: C_22  and  C_25
REMARK                            x       y       z     vdW  Elec       q    Type
REMARK                         _______ _______ _______ _____ _____    ______ ____
ROOT
ATOM      1  C   UNL     1       3.559  -2.533  -1.177  0.00  0.00    -0.011 A 
ATOM      2  C   UNL     1       3.553  -1.530  -2.154  0.00  0.00    +0.028 A 
ATOM      3  C   UNL     1       4.754  -1.070  -2.653  0.00  0.00    +0.112 A 
ATOM      4  N   UNL     1       5.901  -1.559  -2.225  0.00  0.00    -0.255 NA
ATOM      5  C   UNL     1       5.956  -2.510  -1.301  0.00  0.00    +0.072 A 
ATOM      6  C   UNL     1       4.791  -3.025  -0.742  0.00  0.00    +0.037 A 
ENDROOT
BRANCH   1   8
ATOM      7  C   UNL     1       1.238  -2.297  -0.116  0.00  0.00    +0.092 A 
ATOM      8  C   UNL     1       2.290  -3.054  -0.616  0.00  0.00    +0.029 A 
ATOM      9  C   UNL     1       1.928  -4.407  -0.489  0.00  0.00    +0.143 A 
ATOM     10  N   UNL     1       0.739  -4.471   0.049  0.00  0.00    -0.181 NA
ATOM     11  H   UNL     1      -0.571  -2.937   0.699  0.00  0.00    +0.189 HD
ATOM     12  N   UNL     1       0.281  -3.172   0.300  0.00  0.00    -0.275 N 
BRANCH   7  17
ATOM     13  C   UNL     1      -0.113   1.195   0.042  0.00  0.00    +0.004 A 
ATOM     14  C   UNL     1       1.084   1.896   0.088  0.00  0.00    +0.020 A 
ATOM     15  C   UNL     1       2.279   1.200   0.066  0.00  0.00    +0.111 A 
ATOM     16  N   UNL     1       2.296  -0.115   0.001  0.00  0.00    -0.253 NA
ATOM     17  C   UNL     1       1.173  -0.824  -0.044  0.00  0.00    +0.089 A 
ATOM     18  C   UNL     1      -0.069  -0.185  -0.025  0.00  0.00    +0.030 A 
ENDBRANCH   7  17
ENDBRANCH   1   8
BRANCH   5  19
ATOM     19  C   UNL     1       7.274  -3.025  -0.855  0.00  0.00    +0.000 A 
ATOM     20  C   UNL     1       7.340  -4.028   0.112  0.00  0.00    +0.011 A 
ATOM     21  C   UNL     1       8.562  -4.507   0.526  0.00  0.00    +0.014 A 
ATOM     22  C   UNL     1       9.737  -3.987  -0.022  0.00  0.00    +0.037 A 
ATOM     23  C   UNL     1       9.670  -2.982  -0.990  0.00  0.00    +0.014 A 
ATOM     24  C   UNL     1       8.446  -2.509  -1.407  0.00  0.00    +0.011 A 
BRANCH  22  25
ATOM     25  C   UNL     1      11.050  -4.499   0.423  0.00  0.00    +0.247 C 
ATOM     26  O   UNL     1      11.117  -5.264   1.365  0.00  0.00    -0.270 OA
ATOM     27  N   UNL     1      12.174  -4.119  -0.217  0.00  0.00    -0.298 N 
ATOM     28  C   UNL     1      12.251  -3.116  -1.290  0.00  0.00    +0.108 C 
ATOM     29  C   UNL     1      13.728  -3.031  -1.732  0.00  0.00    +0.020 C 
ATOM     30  C   UNL     1      14.307  -4.396  -1.273  0.00  0.00    +0.020 C 
ATOM     31  C   UNL     1      13.530  -4.633   0.048  0.00  0.00    +0.108 C 
ENDBRANCH  22  25
ENDBRANCH   5  19
TORSDOF 4
