REMARK  Name = CHEMBL260015
REMARK  6 active torsions:
REMARK  status: ('A' for Active; 'I' for Inactive)
REMARK    1  A    between atoms: C_5  and  C_7
REMARK    2  A    between atoms: C_8  and  C_15
REMARK    3  A    between atoms: C_23  and  O_25
REMARK    4  A    between atoms: O_25  and  C_26
REMARK    5  A    between atoms: C_26  and  C_27
REMARK    6  A    between atoms: C_27  and  N_28
REMARK                            x       y       z     vdW  Elec       q    Type
REMARK                         _______ _______ _______ _____ _____    ______ ____
ROOT
ATOM      1  C   UNL     1       3.628  -2.275  -1.102  0.00  0.00    -0.003 A 
ATOM      2  C   UNL     1       4.721  -1.929  -0.315  0.00  0.00    +0.029 A 
ATOM      3  C   UNL     1       5.860  -1.408  -0.913  0.00  0.00    +0.112 A 
ATOM      4  N   UNL     1       5.941  -1.227  -2.210  0.00  0.00    -0.255 NA
ATOM      5  C   UNL     1       4.930  -1.536  -3.029  0.00  0.00    +0.075 A 
ATOM      6  C   UNL     1       3.733  -2.080  -2.503  0.00  0.00    +0.008 A 
ATOM      7  C   UNL     1       2.677  -2.408  -3.363  0.00  0.00    +0.014 A 
ATOM      8  C   UNL     1       2.808  -2.209  -4.703  0.00  0.00    +0.046 A 
ATOM      9  C   UNL     1       3.987  -1.679  -5.236  0.00  0.00    +0.123 A 
ATOM     10  C   UNL     1       5.037  -1.335  -4.415  0.00  0.00    +0.074 A 
ENDROOT
BRANCH   1  12
ATOM     11  C   UNL     1       1.238  -2.080  -0.024  0.00  0.00    +0.119 A 
ATOM     12  C   UNL     1       2.399  -2.833  -0.499  0.00  0.00    +0.033 A 
ATOM     13  C   UNL     1       2.125  -4.155  -0.276  0.00  0.00    +0.048 A 
ATOM     14  N   UNL     1       0.910  -4.246   0.292  0.00  0.00    -0.267 N 
ATOM     15  N   UNL     1       0.377  -2.954   0.443  0.00  0.00    -0.169 NA
ATOM     16  C   UNL     1       0.561  -5.652   0.565  0.00  0.00    +0.144 C 
ATOM     17  C   UNL     1       1.524  -6.493  -0.298  0.00  0.00    +0.029 C 
ATOM     18  C   UNL     1       2.726  -5.535  -0.452  0.00  0.00    +0.057 C 
BRANCH  11  23
ATOM     19  C   UNL     1      -0.354   1.317  -0.102  0.00  0.00    +0.004 A 
ATOM     20  C   UNL     1       0.792   2.101  -0.120  0.00  0.00    +0.020 A 
ATOM     21  C   UNL     1       2.032   1.490  -0.106  0.00  0.00    +0.111 A 
ATOM     22  N   UNL     1       2.139   0.177  -0.076  0.00  0.00    -0.253 NA
ATOM     23  C   UNL     1       1.069  -0.607  -0.058  0.00  0.00    +0.091 A 
ATOM     24  C   UNL     1      -0.212  -0.059  -0.070  0.00  0.00    +0.030 A 
ENDBRANCH  11  23
ENDBRANCH   1  12
BRANCH   9  25
ATOM     25  O   UNL     1       4.093  -1.491  -6.577  0.00  0.00    -0.491 OA
BRANCH  25  26
ATOM     26  C   UNL     1       2.965  -1.856  -7.374  0.00  0.00    +0.244 C 
BRANCH  26  27
ATOM     27  C   UNL     1       3.269  -1.574  -8.847  0.00  0.00    +0.125 C 
BRANCH  27  28
ATOM     28  N   UNL     1       4.361  -2.448  -9.298  0.00  0.00    -0.295 NA
ATOM     29  C   UNL     1       4.989  -1.920 -10.517  0.00  0.00    +0.112 C 
ATOM     30  C   UNL     1       6.157  -2.826 -10.917  0.00  0.00    +0.175 C 
ATOM     31  O   UNL     1       5.678  -4.163 -11.090  0.00  0.00    -0.377 OA
ATOM     32  C   UNL     1       5.061  -4.709  -9.921  0.00  0.00    +0.175 C 
ATOM     33  C   UNL     1       3.882  -3.822  -9.511  0.00  0.00    +0.112 C 
ENDBRANCH  27  28
ENDBRANCH  26  27
ENDBRANCH  25  26
ENDBRANCH   9  25
TORSDOF 6
