REMARK  Name = CHEMBL126676
REMARK  2 active torsions:
REMARK  status: ('A' for Active; 'I' for Inactive)
REMARK    1  A    between atoms: C_4  and  C_7
REMARK    2  A    between atoms: C_8  and  C_13
REMARK                            x       y       z     vdW  Elec       q    Type
REMARK                         _______ _______ _______ _____ _____    ______ ____
ROOT
ATOM      1  C   UNL     1       3.653  -0.770  -0.115  0.00  0.00    +0.073 A 
ATOM      2  C   UNL     1       4.077  -1.719   0.810  0.00  0.00    +0.028 A 
ATOM      3  C   UNL     1       5.423  -2.013   0.517  0.00  0.00    +0.143 A 
ATOM      4  N   UNL     1       5.790  -1.296  -0.511  0.00  0.00    -0.181 NA
ATOM      5  H   UNL     1       4.713   0.105  -1.681  0.00  0.00    +0.189 HD
ATOM      6  N   UNL     1       4.709  -0.514  -0.935  0.00  0.00    -0.276 N 
ENDROOT
BRANCH   2   7
ATOM      7  C   UNL     1       3.267  -2.307   1.897  0.00  0.00    -0.004 A 
ATOM      8  C   UNL     1       2.927  -3.656   1.891  0.00  0.00    +0.029 A 
ATOM      9  C   UNL     1       2.166  -4.176   2.928  0.00  0.00    +0.112 A 
ATOM     10  N   UNL     1       1.751  -3.431   3.925  0.00  0.00    -0.255 NA
ATOM     11  C   UNL     1       2.039  -2.127   3.999  0.00  0.00    +0.072 A 
ATOM     12  C   UNL     1       2.816  -1.516   2.985  0.00  0.00    +0.008 A 
ATOM     13  C   UNL     1       3.119  -0.152   3.070  0.00  0.00    +0.010 A 
ATOM     14  C   UNL     1       2.667   0.575   4.131  0.00  0.00    +0.001 A 
ATOM     15  C   UNL     1       1.906  -0.024   5.133  0.00  0.00    +0.002 A 
ATOM     16  C   UNL     1       1.585  -1.345   5.075  0.00  0.00    +0.028 A 
ENDBRANCH   2   7
BRANCH   1  20
ATOM     17  C   UNL     1      -0.210   0.978  -0.351  0.00  0.00    +0.000 A 
ATOM     18  C   UNL     1       0.915   1.781  -0.422  0.00  0.00    +0.001 A 
ATOM     19  C   UNL     1       2.173   1.219  -0.346  0.00  0.00    +0.010 A 
ATOM     20  C   UNL     1       2.309  -0.162  -0.197  0.00  0.00    +0.000 A 
ATOM     21  C   UNL     1       1.170  -0.966  -0.126  0.00  0.00    +0.010 A 
ATOM     22  C   UNL     1      -0.082  -0.392  -0.204  0.00  0.00    +0.001 A 
ENDBRANCH   1  20
TORSDOF 2
