REMARK  Name = CHEMBL565422
REMARK  7 active torsions:
REMARK  status: ('A' for Active; 'I' for Inactive)
REMARK    1  A    between atoms: C_1  and  C_2
REMARK    2  A    between atoms: C_6  and  C_8
REMARK    3  A    between atoms: C_9  and  C_25
REMARK    4  A    between atoms: C_11  and  C_14
REMARK    5  A    between atoms: C_14  and  N_15
REMARK    6  A    between atoms: N_15  and  C_16
REMARK    7  A    between atoms: C_19  and  C_22
REMARK                            x       y       z     vdW  Elec       q    Type
REMARK                         _______ _______ _______ _____ _____    ______ ____
ROOT
ATOM      1  C   UNL     1      -0.040  -2.638   2.516  0.00  0.00    +0.093 A 
ATOM      2  C   UNL     1       0.599  -2.217   3.670  0.00  0.00    +0.098 A 
ATOM      3  N   UNL     1       0.480  -3.204   4.577  0.00  0.00    -0.230 NA
ATOM      4  C   UNL     1      -0.185  -4.197   4.057  0.00  0.00    +0.125 A 
ATOM      5  N   UNL     1      -0.533  -3.894   2.789  0.00  0.00    -0.339 N 
ATOM      6  H   UNL     1      -1.037  -4.458   2.180  0.00  0.00    +0.167 HD
ENDROOT
BRANCH   2   7
ATOM      7  C   UNL     1       1.285  -0.920   3.869  0.00  0.00    +0.000 C 
ATOM      8  C   UNL     1       2.327  -0.584   3.094  0.00  0.00    +0.011 C 
ATOM      9  C   UNL     1       3.015   0.742   3.267  0.00  0.00    +0.149 C 
ATOM     10  C   UNL     1       2.976   1.189   4.722  0.00  0.00    +0.106 C 
ATOM     11  C   UNL     1       1.607   1.002   5.312  0.00  0.00    -0.005 C 
ATOM     12  C   UNL     1       0.822   0.011   4.917  0.00  0.00    +0.007 C 
ATOM     13  N   UNL     1       3.961   0.416   5.494  0.00  0.00    -0.303 NA
ATOM     14  C   UNL     1       5.322   0.740   5.045  0.00  0.00    +0.128 C 
ATOM     15  C   UNL     1       5.403   0.646   3.548  0.00  0.00    +0.093 C 
ATOM     16  N   UNL     1       4.390   0.653   2.790  0.00  0.00    -0.285 NA
ATOM     17  H   UNL     1       3.857   0.585   6.484  0.00  0.00    +0.123 HD
ENDBRANCH   2   7
BRANCH   1  23
ATOM     18  C   UNL     1      -0.188   1.647   0.223  0.00  0.00    +0.065 C 
ATOM     19  C   UNL     1      -0.242   0.143   0.156  0.00  0.00    +0.039 A 
ATOM     20  C   UNL     1      -0.409  -0.480  -1.068  0.00  0.00    +0.023 A 
ATOM     21  C   UNL     1      -0.458  -1.866  -1.127  0.00  0.00    +0.004 A 
ATOM     22  C   UNL     1      -0.337  -2.583   0.050  0.00  0.00    +0.030 A 
ATOM     23  C   UNL     1      -0.170  -1.890   1.251  0.00  0.00    +0.090 A 
ATOM     24  N   UNL     1      -0.123  -0.561   1.263  0.00  0.00    -0.250 NA
ENDBRANCH   1  23
BRANCH   4  25
ATOM     25  C   UNL     1      -0.520  -5.484   4.766  0.00  0.00    +0.175 C 
BRANCH  25  26
ATOM     26  N   UNL     1       0.605  -6.415   4.646  0.00  0.00    -0.337 N 
ATOM     27  H   UNL     1       1.403  -6.151   4.163  0.00  0.00    +0.147 HD
BRANCH  26  28
ATOM     28  C   UNL     1       0.528  -7.677   5.225  0.00  0.00    +0.027 A 
ATOM     29  C   UNL     1      -0.621  -8.057   5.913  0.00  0.00    +0.023 A 
ATOM     30  C   UNL     1      -0.700  -9.305   6.487  0.00  0.00    +0.015 A 
ATOM     31  C   UNL     1       0.374 -10.192   6.378  0.00  0.00    +0.037 A 
ATOM     32  C   UNL     1       1.527  -9.808   5.686  0.00  0.00    +0.015 A 
ATOM     33  C   UNL     1       1.598  -8.560   5.110  0.00  0.00    +0.023 A 
BRANCH  31  34
ATOM     34  C   UNL     1       0.293 -11.531   6.993  0.00  0.00    +0.242 C 
ATOM     35  O   UNL     1      -0.710 -11.863   7.595  0.00  0.00    -0.270 OA
ATOM     36  N   UNL     1       1.330 -12.385   6.887  0.00  0.00    -0.325 N 
ATOM     37  H   UNL     1       2.130 -12.120   6.407  0.00  0.00    +0.145 HD
ATOM     38  H   UNL     1       1.276 -13.265   7.291  0.00  0.00    +0.145 HD
ENDBRANCH  31  34
ENDBRANCH  26  28
ENDBRANCH  25  26
ENDBRANCH   4  25
TORSDOF 6
