REMARK  Name = CHEMBL409331
REMARK  7 active torsions:
REMARK  status: ('A' for Active; 'I' for Inactive)
REMARK    1  A    between atoms: C_1  and  N_2
REMARK    2  A    between atoms: N_5  and  C_8
REMARK    3  A    between atoms: C_8  and  C_9
REMARK    4  A    between atoms: C_9  and  O_10
REMARK    5  A    between atoms: O_10  and  C_11
REMARK    6  A    between atoms: C_15  and  C_21
REMARK    7  A    between atoms: C_25  and  C_26
REMARK                            x       y       z     vdW  Elec       q    Type
REMARK                         _______ _______ _______ _____ _____    ______ ____
ROOT
ATOM      1  C   UNL     1      -0.629  -4.420   4.857  0.00  0.00    +0.123 A 
ATOM      2  C   UNL     1       0.548  -5.140   5.084  0.00  0.00    +0.046 A 
ATOM      3  C   UNL     1       0.912  -5.498   6.346  0.00  0.00    +0.014 A 
ATOM      4  C   UNL     1       0.102  -5.143   7.433  0.00  0.00    +0.008 A 
ATOM      5  C   UNL     1       0.454  -5.500   8.760  0.00  0.00    -0.003 A 
ATOM      6  C   UNL     1      -0.401  -5.111   9.785  0.00  0.00    +0.029 A 
ATOM      7  C   UNL     1      -1.553  -4.397   9.485  0.00  0.00    +0.112 A 
ATOM      8  N   UNL     1      -1.867  -4.074   8.252  0.00  0.00    -0.255 NA
ATOM      9  C   UNL     1      -1.092  -4.413   7.215  0.00  0.00    +0.075 A 
ATOM     10  C   UNL     1      -1.442  -4.051   5.904  0.00  0.00    +0.074 A 
ENDROOT
BRANCH   5  11
ATOM     11  C   UNL     1       1.690  -6.262   9.043  0.00  0.00    +0.033 A 
ATOM     12  C   UNL     1       2.927  -5.743   9.311  0.00  0.00    +0.048 A 
ATOM     13  N   UNL     1       3.778  -6.763   9.518  0.00  0.00    -0.267 N 
ATOM     14  N   UNL     1       3.082  -7.976   9.377  0.00  0.00    -0.169 NA
ATOM     15  C   UNL     1       1.825  -7.718   9.098  0.00  0.00    +0.119 A 
ATOM     16  C   UNL     1       5.131  -6.264   9.821  0.00  0.00    +0.144 C 
ATOM     17  C   UNL     1       5.146  -4.794   9.354  0.00  0.00    +0.029 C 
ATOM     18  C   UNL     1       3.650  -4.419   9.450  0.00  0.00    +0.057 C 
BRANCH  15  19
ATOM     19  C   UNL     1       0.749  -8.712   8.877  0.00  0.00    +0.091 A 
ATOM     20  C   UNL     1       1.074 -10.000   8.452  0.00  0.00    +0.030 A 
ATOM     21  C   UNL     1       0.058 -10.917   8.250  0.00  0.00    +0.004 A 
ATOM     22  C   UNL     1      -1.252 -10.518   8.480  0.00  0.00    +0.020 A 
ATOM     23  C   UNL     1      -1.502  -9.225   8.900  0.00  0.00    +0.111 A 
ATOM     24  N   UNL     1      -0.516  -8.372   9.091  0.00  0.00    -0.253 NA
ENDBRANCH  15  19
ENDBRANCH   5  11
BRANCH   1  25
ATOM     25  O   UNL     1      -0.970  -4.074   3.588  0.00  0.00    -0.491 OA
BRANCH  25  26
ATOM     26  C   UNL     1      -0.086  -4.485   2.544  0.00  0.00    +0.244 C 
BRANCH  26  27
ATOM     27  C   UNL     1      -0.632  -4.009   1.196  0.00  0.00    +0.125 C 
BRANCH  27  32
ATOM     28  C   UNL     1      -0.018   1.465   0.010  0.00  0.00    -0.096 C 
ATOM     29  N   UNL     1       0.002  -0.004   0.002  0.00  0.00    +0.379 N 
ATOM     30  C   UNL     1      -1.376  -0.512   0.011  0.00  0.00    -0.064 C 
ATOM     31  C   UNL     1      -1.356  -2.042  -0.017  0.00  0.00    +0.066 C 
ATOM     32  N   UNL     1      -0.624  -2.541   1.156  0.00  0.00    -0.303 NA
ATOM     33  C   UNL     1       0.750  -2.020   1.175  0.00  0.00    +0.066 C 
ATOM     34  C   UNL     1       0.713  -0.490   1.192  0.00  0.00    -0.064 C 
ATOM     35  H   UNL     1       0.475  -0.329  -0.828  0.00  0.00    -0.082 HD
ENDBRANCH  27  32
ENDBRANCH  26  27
ENDBRANCH  25  26
ENDBRANCH   1  25
TORSDOF 6
