REMARK  Name = CHEMBL575721
REMARK  9 active torsions:
REMARK  status: ('A' for Active; 'I' for Inactive)
REMARK    1  A    between atoms: C_1  and  C_2
REMARK    2  A    between atoms: C_4  and  O_15
REMARK    3  A    between atoms: C_5  and  C_9
REMARK    4  A    between atoms: C_7  and  C_8
REMARK    5  A    between atoms: O_15  and  C_16
REMARK    6  A    between atoms: C_20  and  N_22
REMARK    7  A    between atoms: N_22  and  C_23
REMARK    8  A    between atoms: C_27  and  O_29
REMARK    9  A    between atoms: O_29  and  C_30
REMARK                            x       y       z     vdW  Elec       q    Type
REMARK                         _______ _______ _______ _____ _____    ______ ____
ROOT
ATOM      1  C   UNL     1      -0.327  -2.196  -3.538  0.00  0.00    +0.133 A 
ATOM      2  C   UNL     1      -0.477  -0.816  -3.672  0.00  0.00    +0.066 A 
ATOM      3  C   UNL     1      -0.528  -0.264  -4.934  0.00  0.00    +0.116 A 
ATOM      4  N   UNL     1      -0.436  -1.022  -6.011  0.00  0.00    -0.240 NA
ATOM      5  C   UNL     1      -0.293  -2.337  -5.927  0.00  0.00    +0.126 A 
ATOM      6  C   UNL     1      -0.228  -2.965  -4.691  0.00  0.00    +0.090 A 
ENDROOT
BRANCH   5   7
ATOM      7  N   UNL     1      -0.201  -3.095  -7.090  0.00  0.00    -0.299 N 
ATOM      8  H   UNL     1      -0.173  -4.063  -7.037  0.00  0.00    +0.154 HD
BRANCH   7   9
ATOM      9  C   UNL     1      -0.150  -2.461  -8.335  0.00  0.00    +0.036 A 
ATOM     10  C   UNL     1       0.471  -1.225  -8.461  0.00  0.00    +0.023 A 
ATOM     11  C   UNL     1       0.522  -0.599  -9.691  0.00  0.00    +0.005 A 
ATOM     12  C   UNL     1      -0.045  -1.200 -10.800  0.00  0.00    +0.046 A 
ATOM     13  C   UNL     1      -0.667  -2.435 -10.680  0.00  0.00    +0.122 A 
ATOM     14  C   UNL     1      -0.715  -3.069  -9.448  0.00  0.00    +0.069 A 
BRANCH  13  15
ATOM     15  O   UNL     1      -1.224  -3.024 -11.770  0.00  0.00    -0.495 OA
ATOM     16  C   UNL     1      -1.132  -2.317 -13.008  0.00  0.00    +0.277 C 
ENDBRANCH  13  15
ENDBRANCH   7   9
ENDBRANCH   5   7
BRANCH   1  17
ATOM     17  O   UNL     1      -0.273  -2.773  -2.310  0.00  0.00    -0.454 OA
BRANCH  17  21
ATOM     18  C   UNL     1      -5.131  -2.247  -2.000  0.00  0.00    +0.046 C 
ATOM     19  C   UNL     1      -3.807  -2.721  -1.459  0.00  0.00    -0.026 A 
ATOM     20  C   UNL     1      -2.641  -2.507  -2.177  0.00  0.00    +0.053 A 
ATOM     21  C   UNL     1      -1.441  -2.959  -1.641  0.00  0.00    +0.156 A 
ATOM     22  C   UNL     1      -1.454  -3.610  -0.404  0.00  0.00    +0.131 A 
ATOM     23  N   UNL     1      -2.595  -3.791   0.248  0.00  0.00    -0.246 NA
ATOM     24  C   UNL     1      -3.744  -3.367  -0.237  0.00  0.00    +0.042 A 
ATOM     25  C   UNL     1      -5.010  -3.594   0.548  0.00  0.00    +0.066 C 
BRANCH  22  26
ATOM     26  C   UNL     1      -0.184  -4.100   0.184  0.00  0.00    +0.093 A 
ATOM     27  C   UNL     1      -0.080  -4.265   1.565  0.00  0.00    +0.030 A 
ATOM     28  C   UNL     1       1.111  -4.723   2.099  0.00  0.00    +0.004 A 
ATOM     29  C   UNL     1       2.161  -5.003   1.235  0.00  0.00    +0.020 A 
ATOM     30  C   UNL     1       1.988  -4.816  -0.125  0.00  0.00    +0.111 A 
ATOM     31  N   UNL     1       0.842  -4.383  -0.608  0.00  0.00    -0.253 NA
ENDBRANCH  22  26
ENDBRANCH  17  21
ENDBRANCH   1  17
TORSDOF 6
