REMARK  Name = CHEMBL205158
REMARK  7 active torsions:
REMARK  status: ('A' for Active; 'I' for Inactive)
REMARK    1  A    between atoms: C_5  and  C_7
REMARK    2  A    between atoms: C_8  and  C_13
REMARK    3  A    between atoms: C_17  and  C_19
REMARK    4  A    between atoms: C_22  and  O_25
REMARK    5  A    between atoms: O_25  and  C_26
REMARK    6  A    between atoms: C_26  and  C_27
REMARK    7  A    between atoms: C_27  and  N_28
REMARK                            x       y       z     vdW  Elec       q    Type
REMARK                         _______ _______ _______ _____ _____    ______ ____
ROOT
ATOM      1  C   UNL     1       3.569  -2.250  -0.783  0.00  0.00    -0.011 A 
ATOM      2  C   UNL     1       3.536  -1.365  -1.867  0.00  0.00    +0.028 A 
ATOM      3  C   UNL     1       4.715  -1.029  -2.498  0.00  0.00    +0.112 A 
ATOM      4  N   UNL     1       5.868  -1.527  -2.095  0.00  0.00    -0.255 NA
ATOM      5  C   UNL     1       5.949  -2.369  -1.072  0.00  0.00    +0.072 A 
ATOM      6  C   UNL     1       4.806  -2.754  -0.378  0.00  0.00    +0.037 A 
ENDROOT
BRANCH   1   8
ATOM      7  C   UNL     1       1.346  -1.773   0.399  0.00  0.00    +0.092 A 
ATOM      8  C   UNL     1       2.324  -2.636  -0.079  0.00  0.00    +0.029 A 
ATOM      9  C   UNL     1       1.912  -3.945   0.230  0.00  0.00    +0.143 A 
ATOM     10  N   UNL     1       0.764  -3.884   0.851  0.00  0.00    -0.181 NA
ATOM     11  H   UNL     1      -0.426  -2.219   1.405  0.00  0.00    +0.189 HD
ATOM     12  N   UNL     1       0.384  -2.543   0.979  0.00  0.00    -0.275 N 
BRANCH   7  17
ATOM     13  C   UNL     1       0.167   1.782   0.239  0.00  0.00    +0.004 A 
ATOM     14  C   UNL     1       1.395   2.419   0.121  0.00  0.00    +0.020 A 
ATOM     15  C   UNL     1       2.553   1.663   0.100  0.00  0.00    +0.111 A 
ATOM     16  N   UNL     1       2.506   0.350   0.189  0.00  0.00    -0.253 NA
ATOM     17  C   UNL     1       1.352  -0.299   0.303  0.00  0.00    +0.089 A 
ATOM     18  C   UNL     1       0.145   0.402   0.331  0.00  0.00    +0.030 A 
ENDBRANCH   7  17
ENDBRANCH   1   8
BRANCH   5  19
ATOM     19  C   UNL     1       7.271  -2.899  -0.660  0.00  0.00    +0.001 A 
ATOM     20  C   UNL     1       7.365  -3.788   0.409  0.00  0.00    +0.013 A 
ATOM     21  C   UNL     1       8.596  -4.279   0.789  0.00  0.00    +0.046 A 
ATOM     22  C   UNL     1       9.742  -3.889   0.108  0.00  0.00    +0.121 A 
ATOM     23  C   UNL     1       9.651  -3.004  -0.958  0.00  0.00    +0.046 A 
ATOM     24  C   UNL     1       8.422  -2.514  -1.347  0.00  0.00    +0.013 A 
BRANCH  22  25
ATOM     25  O   UNL     1      10.953  -4.375   0.485  0.00  0.00    -0.491 OA
BRANCH  25  26
ATOM     26  C   UNL     1      12.089  -3.932  -0.260  0.00  0.00    +0.244 C 
BRANCH  26  27
ATOM     27  C   UNL     1      13.354  -4.580   0.307  0.00  0.00    +0.125 C 
BRANCH  27  28
ATOM     28  N   UNL     1      13.296  -6.033   0.098  0.00  0.00    -0.295 NA
ATOM     29  C   UNL     1      14.222  -6.733   1.000  0.00  0.00    +0.112 C 
ATOM     30  C   UNL     1      14.086  -8.243   0.791  0.00  0.00    +0.175 C 
ATOM     31  O   UNL     1      14.331  -8.553  -0.584  0.00  0.00    -0.377 OA
ATOM     32  C   UNL     1      13.447  -7.889  -1.490  0.00  0.00    +0.175 C 
ATOM     33  C   UNL     1      13.576  -6.375  -1.304  0.00  0.00    +0.112 C 
ENDBRANCH  27  28
ENDBRANCH  26  27
ENDBRANCH  25  26
ENDBRANCH  22  25
ENDBRANCH   5  19
TORSDOF 7
