REMARK  Name = CHEMBL480583
REMARK  5 active torsions:
REMARK  status: ('A' for Active; 'I' for Inactive)
REMARK    1  A    between atoms: C_1  and  C_2
REMARK    2  A    between atoms: C_6  and  C_8
REMARK    3  A    between atoms: C_9  and  C_24
REMARK    4  A    between atoms: N_17  and  S_20
REMARK    5  A    between atoms: S_20  and  C_23
REMARK                            x       y       z     vdW  Elec       q    Type
REMARK                         _______ _______ _______ _____ _____    ______ ____
ROOT
ATOM      1  C   UNL     1       0.051  -2.682   2.491  0.00  0.00    +0.117 A 
ATOM      2  C   UNL     1       0.516  -2.164   3.684  0.00  0.00    +0.078 A 
ATOM      3  N   UNL     1       0.338  -3.152   4.632  0.00  0.00    -0.325 N 
ATOM      4  H   UNL     1       0.567  -3.094   5.573  0.00  0.00    +0.169 HD
ATOM      5  C   UNL     1      -0.220  -4.222   4.000  0.00  0.00    +0.197 A 
ATOM      6  N   UNL     1      -0.392  -3.934   2.733  0.00  0.00    -0.212 NA
ATOM      7  N   UNL     1      -0.556  -5.421   4.602  0.00  0.00    -0.299 N 
ATOM      8  C   UNL     1      -0.327  -5.627   6.039  0.00  0.00    +0.125 C 
ATOM      9  C   UNL     1      -1.653  -6.038   6.692  0.00  0.00    +0.128 C 
ATOM     10  N   UNL     1      -2.246  -7.128   5.905  0.00  0.00    -0.178 NA
ATOM     11  C   UNL     1      -2.474  -6.922   4.468  0.00  0.00    +0.128 C 
ATOM     12  C   UNL     1      -1.154  -6.510   3.816  0.00  0.00    +0.125 C 
ENDROOT
BRANCH   2  13
ATOM     13  C   UNL     1       1.090  -0.821   3.902  0.00  0.00    +0.019 A 
ATOM     14  C   UNL     1       0.245   0.314   3.942  0.00  0.00    +0.015 A 
ATOM     15  C   UNL     1       0.787   1.543   4.144  0.00  0.00    +0.049 A 
ATOM     16  C   UNL     1       2.179   1.672   4.310  0.00  0.00    +0.156 A 
ATOM     17  N   UNL     1       2.966   2.723   4.518  0.00  0.00    -0.215 NA
ATOM     18  C   UNL     1       4.227   2.325   4.608  0.00  0.00    +0.246 A 
ATOM     19  N   UNL     1       4.290   1.022   4.463  0.00  0.00    -0.154 NA
ATOM     20  N   UNL     1       2.979   0.566   4.268  0.00  0.00    -0.220 N 
ATOM     21  C   UNL     1       2.447  -0.669   4.072  0.00  0.00    +0.124 A 
ENDBRANCH   2  13
BRANCH   1  27
ATOM     22  C   UNL     1      -0.018   1.503   0.010  0.00  0.00    +0.068 C 
ATOM     23  C   UNL     1       0.002  -0.004   0.002  0.00  0.00    +0.074 A 
ATOM     24  C   UNL     1       0.006  -0.681  -1.206  0.00  0.00    +0.144 A 
ATOM     25  C   UNL     1       0.025  -2.071  -1.209  0.00  0.00    +0.042 A 
ATOM     26  C   UNL     1       0.040  -2.733   0.005  0.00  0.00    +0.033 A 
ATOM     27  C   UNL     1       0.035  -1.988   1.185  0.00  0.00    +0.092 A 
ATOM     28  N   UNL     1       0.022  -0.660   1.144  0.00  0.00    -0.247 NA
ATOM     29  F   UNL     1      -0.010   0.003  -2.371  0.00  0.00    -0.204 F 
ENDBRANCH   1  27
BRANCH  10  30
ATOM     30  S   UNL     1      -2.648  -8.564   6.625  0.00  0.00    +0.029 S 
ATOM     31  O   UNL     1      -2.587  -9.524   5.580  0.00  0.00    -0.158 OA
ATOM     32  O   UNL     1      -1.784  -8.661   7.750  0.00  0.00    -0.158 OA
ATOM     33  C   UNL     1      -4.364  -8.346   7.173  0.00  0.00    +0.215 C 
ENDBRANCH  10  30
TORSDOF 3
