REMARK  Name = CHEMBL552232
REMARK  5 active torsions:
REMARK  status: ('A' for Active; 'I' for Inactive)
REMARK    1  A    between atoms: C_1  and  C_2
REMARK    2  A    between atoms: C_6  and  C_8
REMARK    3  A    between atoms: C_10  and  C_21
REMARK    4  A    between atoms: C_12  and  N_14
REMARK    5  A    between atoms: N_14  and  C_15
REMARK                            x       y       z     vdW  Elec       q    Type
REMARK                         _______ _______ _______ _____ _____    ______ ____
ROOT
ATOM      1  C   UNL     1       0.009  -2.680   2.495  0.00  0.00    +0.180 A 
ATOM      2  N   UNL     1      -0.185  -3.991   2.521  0.00  0.00    -0.231 NA
ATOM      3  C   UNL     1      -0.312  -4.638   3.670  0.00  0.00    +0.044 A 
ATOM      4  C   UNL     1      -0.240  -3.930   4.855  0.00  0.00    +0.067 A 
ATOM      5  C   UNL     1      -0.035  -2.550   4.796  0.00  0.00    +0.127 A 
ATOM      6  N   UNL     1       0.089  -1.967   3.609  0.00  0.00    -0.211 NA
ATOM      7  C   UNL     1      -0.532  -6.128   3.684  0.00  0.00    +0.066 C 
ENDROOT
BRANCH   1  13
ATOM      8  C   UNL     1       0.698   1.452   0.018  0.00  0.00    +0.065 C 
ATOM      9  C   UNL     1       0.473  -0.038   0.007  0.00  0.00    +0.039 A 
ATOM     10  C   UNL     1       0.402  -0.710  -1.201  0.00  0.00    +0.023 A 
ATOM     11  C   UNL     1       0.195  -2.081  -1.206  0.00  0.00    +0.004 A 
ATOM     12  C   UNL     1       0.065  -2.734   0.009  0.00  0.00    +0.031 A 
ATOM     13  C   UNL     1       0.147  -1.995   1.186  0.00  0.00    +0.108 A 
ATOM     14  N   UNL     1       0.351  -0.685   1.147  0.00  0.00    -0.249 NA
ENDBRANCH   1  13
BRANCH   5  15
ATOM     15  N   UNL     1       0.044  -1.800   5.960  0.00  0.00    -0.299 N 
ATOM     16  H   UNL     1       0.043  -2.242   6.824  0.00  0.00    +0.154 HD
BRANCH  15  17
ATOM     17  C   UNL     1       0.125  -0.410   5.890  0.00  0.00    +0.035 A 
ATOM     18  C   UNL     1      -0.483   0.289   4.848  0.00  0.00    +0.043 A 
ATOM     19  C   UNL     1      -0.379   1.664   4.814  0.00  0.00    +0.112 A 
ATOM     20  N   UNL     1       0.283   2.316   5.751  0.00  0.00    -0.263 NA
ATOM     21  C   UNL     1       0.872   1.690   6.753  0.00  0.00    +0.112 A 
ATOM     22  C   UNL     1       0.810   0.317   6.863  0.00  0.00    +0.043 A 
ENDBRANCH  15  17
ENDBRANCH   5  15
TORSDOF 3
