REMARK  Name = CHEMBL204170
REMARK  3 active torsions:
REMARK  status: ('A' for Active; 'I' for Inactive)
REMARK    1  A    between atoms: C_1  and  N_2
REMARK    2  A    between atoms: C_8  and  C_11
REMARK    3  A    between atoms: C_15  and  C_16
REMARK                            x       y       z     vdW  Elec       q    Type
REMARK                         _______ _______ _______ _____ _____    ______ ____
ROOT
ATOM      1  C   UNL     1       0.067  -1.455   4.816  0.00  0.00    +0.032 A 
ATOM      2  C   UNL     1       1.079  -1.770   5.675  0.00  0.00    +0.048 A 
ATOM      3  N   UNL     1       0.704  -1.397   6.915  0.00  0.00    -0.267 N 
ATOM      4  N   UNL     1      -0.582  -0.836   6.833  0.00  0.00    -0.169 NA
ATOM      5  C   UNL     1      -0.969  -0.860   5.578  0.00  0.00    +0.119 A 
ATOM      6  C   UNL     1       1.757  -1.701   7.897  0.00  0.00    +0.144 C 
ATOM      7  C   UNL     1       2.689  -2.718   7.204  0.00  0.00    +0.029 C 
ATOM      8  C   UNL     1       2.461  -2.387   5.711  0.00  0.00    +0.057 C 
ENDROOT
BRANCH   1  16
ATOM      9  C   UNL     1      -0.018   1.461   0.010  0.00  0.00    +0.150 C 
ATOM     10  N   UNL     1       0.002  -0.004   0.002  0.00  0.00    -0.333 N 
ATOM     11  C   UNL     1       0.009  -0.805  -1.098  0.00  0.00    +0.200 A 
ATOM     12  N   UNL     1       0.027  -2.056  -0.741  0.00  0.00    -0.236 NA
ATOM     13  C   UNL     1       0.034  -2.144   0.614  0.00  0.00    +0.089 A 
ATOM     14  C   UNL     1       0.024  -0.829   1.110  0.00  0.00    +0.069 A 
ATOM     15  C   UNL     1       0.033  -0.605   2.477  0.00  0.00    +0.036 A 
ATOM     16  C   UNL     1       0.056  -1.687   3.350  0.00  0.00    -0.012 A 
ATOM     17  C   UNL     1       0.069  -2.992   2.851  0.00  0.00    +0.011 A 
ATOM     18  C   UNL     1       0.051  -3.221   1.506  0.00  0.00    +0.030 A 
ENDBRANCH   1  16
BRANCH   5  19
ATOM     19  C   UNL     1      -2.262  -0.359   5.053  0.00  0.00    +0.091 A 
ATOM     20  C   UNL     1      -3.368  -0.281   5.898  0.00  0.00    +0.030 A 
ATOM     21  C   UNL     1      -4.567   0.189   5.394  0.00  0.00    +0.004 A 
ATOM     22  C   UNL     1      -4.622   0.567   4.059  0.00  0.00    +0.020 A 
ATOM     23  C   UNL     1      -3.487   0.464   3.277  0.00  0.00    +0.111 A 
ATOM     24  N   UNL     1      -2.355   0.018   3.784  0.00  0.00    -0.253 NA
ENDBRANCH   5  19
TORSDOF 2
