REMARK  Name = CHEMBL202887
REMARK  5 active torsions:
REMARK  status: ('A' for Active; 'I' for Inactive)
REMARK    1  A    between atoms: C_5  and  C_7
REMARK    2  A    between atoms: C_8  and  C_13
REMARK    3  A    between atoms: C_17  and  C_19
REMARK    4  A    between atoms: C_22  and  C_25
REMARK    5  A    between atoms: N_27  and  C_28
REMARK                            x       y       z     vdW  Elec       q    Type
REMARK                         _______ _______ _______ _____ _____    ______ ____
ROOT
ATOM      1  C   UNL     1       3.564  -2.466  -1.116  0.00  0.00    -0.011 A 
ATOM      2  C   UNL     1       3.556  -1.507  -2.135  0.00  0.00    +0.028 A 
ATOM      3  C   UNL     1       4.755  -1.091  -2.678  0.00  0.00    +0.112 A 
ATOM      4  N   UNL     1       5.901  -1.582  -2.251  0.00  0.00    -0.255 NA
ATOM      5  C   UNL     1       5.958  -2.493  -1.287  0.00  0.00    +0.072 A 
ATOM      6  C   UNL     1       4.796  -2.962  -0.684  0.00  0.00    +0.037 A 
ENDROOT
BRANCH   1   8
ATOM      7  C   UNL     1       1.270  -2.142  -0.022  0.00  0.00    +0.092 A 
ATOM      8  C   UNL     1       2.298  -2.939  -0.508  0.00  0.00    +0.029 A 
ATOM      9  C   UNL     1       1.915  -4.278  -0.315  0.00  0.00    +0.143 A 
ATOM     10  N   UNL     1       0.736  -4.296   0.248  0.00  0.00    -0.181 NA
ATOM     11  H   UNL     1      -0.534  -2.712   0.856  0.00  0.00    +0.189 HD
ATOM     12  N   UNL     1       0.306  -2.980   0.451  0.00  0.00    -0.275 N 
BRANCH   7  17
ATOM     13  C   UNL     1      -0.017   1.379   0.010  0.00  0.00    +0.004 A 
ATOM     14  C   UNL     1       1.194   2.059   0.002  0.00  0.00    +0.020 A 
ATOM     15  C   UNL     1       2.376   1.341  -0.013  0.00  0.00    +0.111 A 
ATOM     16  N   UNL     1       2.368   0.024  -0.020  0.00  0.00    -0.253 NA
ATOM     17  C   UNL     1       1.232  -0.665  -0.013  0.00  0.00    +0.089 A 
ATOM     18  C   UNL     1       0.002  -0.004   0.002  0.00  0.00    +0.030 A 
ENDBRANCH   7  17
ENDBRANCH   1   8
BRANCH   5  19
ATOM     19  C   UNL     1       7.275  -3.012  -0.845  0.00  0.00    +0.000 A 
ATOM     20  C   UNL     1       7.343  -3.974   0.163  0.00  0.00    +0.011 A 
ATOM     21  C   UNL     1       8.565  -4.456   0.575  0.00  0.00    +0.014 A 
ATOM     22  C   UNL     1       9.738  -3.982  -0.018  0.00  0.00    +0.037 A 
ATOM     23  C   UNL     1       9.669  -3.020  -1.028  0.00  0.00    +0.014 A 
ATOM     24  C   UNL     1       8.445  -2.542  -1.441  0.00  0.00    +0.011 A 
BRANCH  22  25
ATOM     25  C   UNL     1      11.050  -4.499   0.423  0.00  0.00    +0.244 C 
ATOM     26  O   UNL     1      11.110  -5.337   1.302  0.00  0.00    -0.270 OA
ATOM     27  N   UNL     1      12.181  -4.042  -0.150  0.00  0.00    -0.308 N 
ATOM     28  H   UNL     1      12.134  -3.374  -0.852  0.00  0.00    +0.149 HD
BRANCH  27  29
ATOM     29  C   UNL     1      13.482  -4.554   0.287  0.00  0.00    +0.078 C 
ATOM     30  C   UNL     1      13.964  -3.759   1.504  0.00  0.00    +0.050 C 
ATOM     31  C   UNL     1      15.358  -4.248   1.905  0.00  0.00    +0.161 C 
ATOM     32  O   UNL     1      16.249  -4.104   0.797  0.00  0.00    -0.380 OA
ATOM     33  C   UNL     1      15.875  -4.864  -0.354  0.00  0.00    +0.161 C 
ATOM     34  C   UNL     1      14.501  -4.399  -0.846  0.00  0.00    +0.050 C 
ENDBRANCH  27  29
ENDBRANCH  22  25
ENDBRANCH   5  19
TORSDOF 5
