REMARK  Name = CHEMBL6252
REMARK  4 active torsions:
REMARK  status: ('A' for Active; 'I' for Inactive)
REMARK    1  A    between atoms: C_3  and  C_26
REMARK    2  A    between atoms: C_6  and  C_7
REMARK    3  A    between atoms: C_10  and  C_20
REMARK    4  A    between atoms: C_11  and  C_13
REMARK                            x       y       z     vdW  Elec       q    Type
REMARK                         _______ _______ _______ _____ _____    ______ ____
ROOT
ATOM      1  C   UNL     1      -1.267  -0.759   0.010  0.00  0.00    +0.139 A 
ATOM      2  N   UNL     1      -2.469  -0.229   0.024  0.00  0.00    -0.227 NA
ATOM      3  H   UNL     1      -0.647  -2.759  -0.016  0.00  0.00    +0.167 HD
ATOM      4  C   UNL     1      -3.389  -1.205   0.027  0.00  0.00    +0.097 A 
ATOM      5  C   UNL     1      -2.718  -2.419   0.015  0.00  0.00    +0.074 A 
ATOM      6  N   UNL     1      -1.378  -2.122  -0.002  0.00  0.00    -0.337 N 
ENDROOT
BRANCH   5   7
ATOM      7  C   UNL     1      -3.325  -3.765   0.013  0.00  0.00    +0.001 A 
ATOM      8  C   UNL     1      -4.387  -4.055   0.872  0.00  0.00    +0.013 A 
ATOM      9  C   UNL     1      -4.950  -5.314   0.866  0.00  0.00    +0.039 A 
ATOM     10  C   UNL     1      -4.464  -6.290   0.010  0.00  0.00    +0.123 A 
ATOM     11  C   UNL     1      -3.409  -6.007  -0.844  0.00  0.00    +0.039 A 
ATOM     12  C   UNL     1      -2.842  -4.751  -0.851  0.00  0.00    +0.013 A 
ATOM     13  F   UNL     1      -5.020  -7.521   0.009  0.00  0.00    -0.205 F 
ENDBRANCH   5   7
BRANCH   1  19
ATOM     14  C   UNL     1      -0.017   1.394   0.010  0.00  0.00    +0.012 A 
ATOM     15  C   UNL     1       1.156   2.093   0.002  0.00  0.00    +0.016 A 
ATOM     16  C   UNL     1       2.377   1.410  -0.013  0.00  0.00    +0.063 A 
ATOM     17  C   UNL     1       2.396   0.011  -0.021  0.00  0.00    +0.016 A 
ATOM     18  C   UNL     1       1.222  -0.687  -0.013  0.00  0.00    +0.012 A 
ATOM     19  C   UNL     1       0.002  -0.004   0.002  0.00  0.00    +0.017 A 
BRANCH  16  20
ATOM     20  C   UNL     1       3.644   2.164  -0.022  0.00  0.00    +0.387 C 
ATOM     21  O   UNL     1       3.627   3.387  -0.015  0.00  0.00    -0.241 OA
ATOM     22  O   UNL     1       4.711   1.566  -0.035  0.00  0.00    -0.241 OA
ENDBRANCH  16  20
ENDBRANCH   1  19
BRANCH   4  23
ATOM     23  C   UNL     1      -4.858  -1.019   0.042  0.00  0.00    +0.005 A 
ATOM     24  C   UNL     1      -5.702  -1.905  -0.638  0.00  0.00    +0.030 A 
ATOM     25  C   UNL     1      -7.064  -1.694  -0.598  0.00  0.00    +0.111 A 
ATOM     26  N   UNL     1      -7.573  -0.676   0.070  0.00  0.00    -0.263 NA
ATOM     27  C   UNL     1      -6.813   0.182   0.725  0.00  0.00    +0.111 A 
ATOM     28  C   UNL     1      -5.441   0.043   0.742  0.00  0.00    +0.030 A 
ENDBRANCH   4  23
TORSDOF 4
