REMARK  Name = CHEMBL550482
REMARK  5 active torsions:
REMARK  status: ('A' for Active; 'I' for Inactive)
REMARK    1  A    between atoms: C_1  and  C_2
REMARK    2  A    between atoms: C_6  and  C_8
REMARK    3  A    between atoms: C_16  and  N_18
REMARK    4  A    between atoms: N_18  and  C_19
REMARK    5  A    between atoms: N_27  and  C_28
REMARK                            x       y       z     vdW  Elec       q    Type
REMARK                         _______ _______ _______ _____ _____    ______ ____
ROOT
ATOM      1  C   UNL     1       0.313  -2.696   2.510  0.00  0.00    +0.181 A 
ATOM      2  N   UNL     1       0.132  -4.004   2.513  0.00  0.00    -0.226 NA
ATOM      3  C   UNL     1      -0.092  -4.654   3.662  0.00  0.00    +0.077 A 
ATOM      4  C   UNL     1      -0.289  -6.042   3.702  0.00  0.00    +0.028 A 
ATOM      5  C   UNL     1      -0.513  -6.656   4.898  0.00  0.00    +0.002 A 
ATOM      6  C   UNL     1      -0.551  -5.926   6.083  0.00  0.00    +0.001 A 
ATOM      7  C   UNL     1      -0.364  -4.575   6.080  0.00  0.00    +0.013 A 
ATOM      8  C   UNL     1      -0.131  -3.914   4.870  0.00  0.00    +0.040 A 
ATOM      9  C   UNL     1       0.070  -2.513   4.806  0.00  0.00    +0.135 A 
ATOM     10  N   UNL     1       0.290  -1.963   3.620  0.00  0.00    -0.210 NA
ENDROOT
BRANCH   1  16
ATOM     11  C   UNL     1       1.181   1.430   0.080  0.00  0.00    +0.065 C 
ATOM     12  C   UNL     1       0.971  -0.062   0.058  0.00  0.00    +0.039 A 
ATOM     13  C   UNL     1       1.013  -0.740  -1.148  0.00  0.00    +0.023 A 
ATOM     14  C   UNL     1       0.819  -2.113  -1.164  0.00  0.00    +0.004 A 
ATOM     15  C   UNL     1       0.588  -2.761   0.038  0.00  0.00    +0.031 A 
ATOM     16  C   UNL     1       0.559  -2.016   1.214  0.00  0.00    +0.108 A 
ATOM     17  N   UNL     1       0.755  -0.704   1.187  0.00  0.00    -0.249 NA
ENDBRANCH   1  16
BRANCH   9  18
ATOM     18  N   UNL     1       0.043  -1.741   5.949  0.00  0.00    -0.299 N 
ATOM     19  H   UNL     1      -0.032  -2.164   6.818  0.00  0.00    +0.154 HD
BRANCH  18  20
ATOM     20  C   UNL     1       0.124  -0.346   5.854  0.00  0.00    +0.033 A 
ATOM     21  C   UNL     1      -0.491   0.314   4.790  0.00  0.00    +0.025 A 
ATOM     22  C   UNL     1      -0.425   1.673   4.679  0.00  0.00    +0.030 A 
ATOM     23  C   UNL     1       0.264   2.418   5.634  0.00  0.00    +0.069 A 
ATOM     24  C   UNL     1       0.888   1.762   6.712  0.00  0.00    +0.021 A 
ATOM     25  C   UNL     1       0.807   0.369   6.817  0.00  0.00    +0.034 A 
ATOM     26  C   UNL     1       1.513   2.804   7.520  0.00  0.00    +0.143 A 
ATOM     27  N   UNL     1       1.266   3.950   6.953  0.00  0.00    -0.179 NA
ATOM     28  N   UNL     1       0.504   3.759   5.796  0.00  0.00    -0.267 N 
ATOM     29  C   UNL     1       0.038   4.821   4.900  0.00  0.00    +0.173 C 
ENDBRANCH  18  20
ENDBRANCH   9  18
TORSDOF 3
