REMARK  Name = CHEMBL1165694
REMARK  6 active torsions:
REMARK  status: ('A' for Active; 'I' for Inactive)
REMARK    1  A    between atoms: C_1  and  C_2
REMARK    2  A    between atoms: C_6  and  C_8
REMARK    3  A    between atoms: C_9  and  C_22
REMARK    4  A    between atoms: N_11  and  C_13
REMARK    5  A    between atoms: C_13  and  C_14
REMARK    6  A    between atoms: C_18  and  C_20
REMARK                            x       y       z     vdW  Elec       q    Type
REMARK                         _______ _______ _______ _____ _____    ______ ____
ROOT
ATOM      1  C   UNL     1       0.139  -2.640   2.526  0.00  0.00    +0.120 A 
ATOM      2  C   UNL     1       0.760  -2.112   3.687  0.00  0.00    +0.047 A 
ATOM      3  C   UNL     1       0.838  -3.119   4.604  0.00  0.00    +0.119 A 
ATOM      4  N   UNL     1       0.296  -4.222   4.051  0.00  0.00    -0.266 N 
ATOM      5  N   UNL     1      -0.139  -3.904   2.759  0.00  0.00    -0.169 NA
ENDROOT
BRANCH   2   6
ATOM      6  C   UNL     1       1.236  -0.721   3.871  0.00  0.00    +0.075 A 
ATOM      7  C   UNL     1       0.914  -0.034   5.054  0.00  0.00    +0.030 A 
ATOM      8  C   UNL     1       1.346   1.245   5.235  0.00  0.00    +0.032 A 
ATOM      9  C   UNL     1       2.114   1.845   4.214  0.00  0.00    +0.089 A 
ATOM     10  C   UNL     1       2.403   1.097   3.046  0.00  0.00    +0.090 A 
ATOM     11  N   UNL     1       1.959  -0.156   2.923  0.00  0.00    -0.245 NA
ATOM     12  C   UNL     1       3.170   1.700   2.029  0.00  0.00    +0.031 A 
ATOM     13  C   UNL     1       3.600   2.982   2.218  0.00  0.00    +0.022 A 
ATOM     14  C   UNL     1       3.277   3.659   3.392  0.00  0.00    +0.111 A 
ATOM     15  N   UNL     1       2.564   3.095   4.337  0.00  0.00    -0.253 NA
ENDBRANCH   2   6
BRANCH   1  21
ATOM     16  C   UNL     1      -0.754   1.607   0.324  0.00  0.00    +0.065 C 
ATOM     17  C   UNL     1      -0.575   0.114   0.227  0.00  0.00    +0.039 A 
ATOM     18  C   UNL     1      -0.685  -0.507  -1.004  0.00  0.00    +0.023 A 
ATOM     19  C   UNL     1      -0.520  -1.883  -1.090  0.00  0.00    +0.004 A 
ATOM     20  C   UNL     1      -0.248  -2.589   0.069  0.00  0.00    +0.030 A 
ATOM     21  C   UNL     1      -0.151  -1.898   1.276  0.00  0.00    +0.092 A 
ATOM     22  N   UNL     1      -0.311  -0.581   1.314  0.00  0.00    -0.250 NA
ENDBRANCH   1  21
BRANCH   4  23
ATOM     23  C   UNL     1       0.177  -5.532   4.696  0.00  0.00    +0.178 C 
BRANCH  23  24
ATOM     24  C   UNL     1      -1.262  -5.978   4.667  0.00  0.00    -0.025 A 
ATOM     25  C   UNL     1      -2.110  -5.640   5.708  0.00  0.00    +0.005 A 
ATOM     26  C   UNL     1      -3.433  -6.045   5.690  0.00  0.00    +0.002 A 
ATOM     27  C   UNL     1      -3.916  -6.788   4.633  0.00  0.00    +0.019 A 
ATOM     28  C   UNL     1      -3.066  -7.131   3.579  0.00  0.00    +0.052 A 
ATOM     29  C   UNL     1      -1.733  -6.716   3.602  0.00  0.00    +0.024 A 
BRANCH  28  30
ATOM     30  C   UNL     1      -3.561  -7.903   2.479  0.00  0.00    +0.099 C 
ATOM     31  N   UNL     1      -3.953  -8.515   1.606  0.00  0.00    -0.191 NA
ENDBRANCH  28  30
ENDBRANCH  23  24
ENDBRANCH   4  23
TORSDOF 5
