REMARK  Name = CHEMBL500149
REMARK  10 active torsions:
REMARK  status: ('A' for Active; 'I' for Inactive)
REMARK    1  A    between atoms: C_1  and  C_2
REMARK    2  A    between atoms: C_4  and  C_24
REMARK    3  A    between atoms: C_5  and  O_9
REMARK    4  A    between atoms: C_7  and  C_8
REMARK    5  A    between atoms: O_9  and  C_10
REMARK    6  A    between atoms: C_17  and  O_22
REMARK    7  A    between atoms: C_18  and  O_20
REMARK    8  A    between atoms: O_20  and  C_21
REMARK    9  A    between atoms: O_22  and  C_23
REMARK   10  A    between atoms: C_24  and  C_26
REMARK                            x       y       z     vdW  Elec       q    Type
REMARK                         _______ _______ _______ _____ _____    ______ ____
ROOT
ATOM      1  C   UNL     1       0.064  -4.676   1.263  0.00  0.00    +0.139 A 
ATOM      2  C   UNL     1      -0.006  -3.872   2.387  0.00  0.00    +0.066 A 
ATOM      3  C   UNL     1       0.001  -4.451   3.650  0.00  0.00    +0.115 A 
ATOM      4  N   UNL     1       0.073  -5.751   3.814  0.00  0.00    -0.255 NA
ATOM      5  C   UNL     1       0.143  -6.587   2.772  0.00  0.00    +0.078 A 
ATOM      6  C   UNL     1       0.135  -6.074   1.452  0.00  0.00    +0.046 A 
ATOM      7  C   UNL     1       0.203  -6.954   0.361  0.00  0.00    +0.063 A 
ATOM      8  C   UNL     1       0.271  -8.299   0.581  0.00  0.00    +0.162 A 
ATOM      9  C   UNL     1       0.274  -8.811   1.887  0.00  0.00    +0.164 A 
ATOM     10  C   UNL     1       0.220  -7.977   2.966  0.00  0.00    +0.077 A 
ENDROOT
BRANCH   9  11
ATOM     11  O   UNL     1       0.343 -10.154   2.081  0.00  0.00    -0.491 OA
ATOM     12  C   UNL     1       0.342 -10.615   3.433  0.00  0.00    +0.277 C 
ENDBRANCH   9  11
BRANCH   8  13
ATOM     13  O   UNL     1       0.337  -9.152  -0.476  0.00  0.00    -0.491 OA
ATOM     14  C   UNL     1       0.330  -8.569  -1.780  0.00  0.00    +0.277 C 
ENDBRANCH   8  13
BRANCH   1  15
ATOM     15  O   UNL     1       0.058  -4.139   0.018  0.00  0.00    -0.455 OA
BRANCH  15  20
ATOM     16  C   UNL     1      -4.898  -3.713  -2.644  0.00  0.00    +0.044 C 
ATOM     17  C   UNL     1      -3.570  -3.823  -1.942  0.00  0.00    -0.047 A 
ATOM     18  C   UNL     1      -2.412  -3.487  -2.608  0.00  0.00    +0.018 A 
ATOM     19  C   UNL     1      -1.177  -3.589  -1.957  0.00  0.00    +0.060 A 
ATOM     20  C   UNL     1      -1.131  -4.035  -0.625  0.00  0.00    +0.139 A 
ATOM     21  C   UNL     1      -2.308  -4.368   0.028  0.00  0.00    +0.050 A 
ATOM     22  C   UNL     1      -3.519  -4.257  -0.626  0.00  0.00    -0.044 A 
ATOM     23  C   UNL     1      -4.794  -4.614   0.093  0.00  0.00    +0.044 C 
BRANCH  19  24
ATOM     24  C   UNL     1       0.061  -3.234  -2.660  0.00  0.00    +0.164 C 
ATOM     25  O   UNL     1       1.129  -3.324  -2.092  0.00  0.00    -0.292 OA
ATOM     26  C   UNL     1       0.005  -2.757  -4.089  0.00  0.00    +0.092 C 
ENDBRANCH  19  24
ENDBRANCH  15  20
ENDBRANCH   1  15
TORSDOF 5
