REMARK  Name = CHEMBL541777
REMARK  4 active torsions:
REMARK  status: ('A' for Active; 'I' for Inactive)
REMARK    1  A    between atoms: C_1  and  C_2
REMARK    2  A    between atoms: C_5  and  C_7
REMARK    3  A    between atoms: C_15  and  N_17
REMARK    4  A    between atoms: N_17  and  C_18
REMARK                            x       y       z     vdW  Elec       q    Type
REMARK                         _______ _______ _______ _____ _____    ______ ____
ROOT
ATOM      1  C   UNL     1       0.151  -2.910   2.306  0.00  0.00    +0.188 A 
ATOM      2  N   UNL     1       0.357  -2.398   3.506  0.00  0.00    -0.225 NA
ATOM      3  C   UNL     1       0.497  -3.199   4.570  0.00  0.00    +0.077 A 
ATOM      4  C   UNL     1       0.716  -2.688   5.858  0.00  0.00    +0.028 A 
ATOM      5  C   UNL     1       0.852  -3.547   6.908  0.00  0.00    +0.002 A 
ATOM      6  C   UNL     1       0.777  -4.925   6.723  0.00  0.00    +0.001 A 
ATOM      7  C   UNL     1       0.566  -5.454   5.483  0.00  0.00    +0.013 A 
ATOM      8  C   UNL     1       0.422  -4.601   4.384  0.00  0.00    +0.040 A 
ATOM      9  C   UNL     1       0.199  -5.096   3.075  0.00  0.00    +0.135 A 
ATOM     10  N   UNL     1       0.068  -4.223   2.088  0.00  0.00    -0.210 NA
ENDROOT
BRANCH   1  15
ATOM     11  C   UNL     1      -0.052   1.504   0.015  0.00  0.00    +0.066 C 
ATOM     12  C   UNL     1      -0.108  -0.002   0.013  0.00  0.00    +0.046 A 
ATOM     13  C   UNL     1      -0.320  -0.676  -1.152  0.00  0.00    +0.070 A 
ATOM     14  S   UNL     1      -0.289  -2.365  -0.566  0.00  0.00    -0.072 S 
ATOM     15  C   UNL     1       0.002  -1.991   1.159  0.00  0.00    +0.145 A 
ATOM     16  N   UNL     1       0.052  -0.666   1.130  0.00  0.00    -0.241 NA
ENDBRANCH   1  15
BRANCH   9  17
ATOM     17  N   UNL     1       0.117  -6.453   2.835  0.00  0.00    -0.299 N 
ATOM     18  H   UNL     1       0.128  -7.078   3.576  0.00  0.00    +0.154 HD
BRANCH  17  19
ATOM     19  C   UNL     1       0.017  -6.925   1.527  0.00  0.00    +0.035 A 
ATOM     20  C   UNL     1       0.595  -6.225   0.468  0.00  0.00    +0.043 A 
ATOM     21  C   UNL     1       0.474  -6.726  -0.811  0.00  0.00    +0.112 A 
ATOM     22  N   UNL     1      -0.177  -7.851  -1.039  0.00  0.00    -0.263 NA
ATOM     23  C   UNL     1      -0.738  -8.542  -0.064  0.00  0.00    +0.112 A 
ATOM     24  C   UNL     1      -0.657  -8.112   1.244  0.00  0.00    +0.043 A 
ENDBRANCH  17  19
ENDBRANCH   9  17
TORSDOF 3
