REMARK  Name = CHEMBL226734
REMARK  6 active torsions:
REMARK  status: ('A' for Active; 'I' for Inactive)
REMARK    1  A    between atoms: C_1  and  C_2
REMARK    2  A    between atoms: C_6  and  C_8
REMARK    3  A    between atoms: C_9  and  C_23
REMARK    4  A    between atoms: N_13  and  C_14
REMARK    5  A    between atoms: C_14  and  C_15
REMARK    6  A    between atoms: C_19  and  C_21
REMARK                            x       y       z     vdW  Elec       q    Type
REMARK                         _______ _______ _______ _____ _____    ______ ____
ROOT
ATOM      1  C   UNL     1       0.051  -2.683   2.491  0.00  0.00    +0.117 A 
ATOM      2  C   UNL     1       0.516  -2.165   3.684  0.00  0.00    +0.077 A 
ATOM      3  N   UNL     1       0.337  -3.153   4.632  0.00  0.00    -0.326 N 
ATOM      4  C   UNL     1      -0.220  -4.223   3.999  0.00  0.00    +0.194 A 
ATOM      5  N   UNL     1      -0.392  -3.934   2.732  0.00  0.00    -0.212 NA
ATOM      6  N   UNL     1      -0.557  -5.422   4.600  0.00  0.00    -0.311 N 
ATOM      7  H   UNL     1      -0.952  -6.134   4.073  0.00  0.00    +0.149 HD
ATOM      8  H   UNL     1       0.567  -3.097   5.573  0.00  0.00    +0.169 HD
ENDROOT
BRANCH   2   9
ATOM      9  C   UNL     1       1.090  -0.823   3.903  0.00  0.00    +0.004 A 
ATOM     10  C   UNL     1       2.027  -0.307   3.005  0.00  0.00    +0.014 A 
ATOM     11  C   UNL     1       2.561   0.947   3.211  0.00  0.00    +0.050 A 
ATOM     12  C   UNL     1       2.172   1.701   4.309  0.00  0.00    +0.166 A 
ATOM     13  C   UNL     1       1.237   1.192   5.210  0.00  0.00    +0.167 A 
ATOM     14  C   UNL     1       0.693  -0.063   5.006  0.00  0.00    +0.059 A 
ATOM     15  O   UNL     1       1.027   2.118   6.191  0.00  0.00    -0.453 OA
ATOM     16  C   UNL     1       2.142   3.025   6.107  0.00  0.00    +0.466 C 
ATOM     17  O   UNL     1       2.546   2.945   4.728  0.00  0.00    -0.453 OA
ENDBRANCH   2   9
BRANCH   1  23
ATOM     18  C   UNL     1      -0.018   1.503   0.010  0.00  0.00    +0.065 C 
ATOM     19  C   UNL     1       0.002  -0.004   0.002  0.00  0.00    +0.039 A 
ATOM     20  C   UNL     1       0.006  -0.679  -1.204  0.00  0.00    +0.023 A 
ATOM     21  C   UNL     1       0.025  -2.067  -1.209  0.00  0.00    +0.004 A 
ATOM     22  C   UNL     1       0.040  -2.732   0.004  0.00  0.00    +0.030 A 
ATOM     23  C   UNL     1       0.035  -1.988   1.185  0.00  0.00    +0.092 A 
ATOM     24  N   UNL     1       0.022  -0.660   1.145  0.00  0.00    -0.250 NA
ENDBRANCH   1  23
BRANCH   6  25
ATOM     25  C   UNL     1      -0.319  -5.616   6.032  0.00  0.00    +0.139 C 
BRANCH  25  26
ATOM     26  C   UNL     1      -0.770  -6.997   6.434  0.00  0.00    -0.029 A 
ATOM     27  C   UNL     1      -2.073  -7.202   6.853  0.00  0.00    +0.005 A 
ATOM     28  C   UNL     1      -2.497  -8.466   7.224  0.00  0.00    +0.002 A 
ATOM     29  C   UNL     1      -1.621  -9.531   7.177  0.00  0.00    +0.019 A 
ATOM     30  C   UNL     1      -0.305  -9.331   6.755  0.00  0.00    +0.052 A 
ATOM     31  C   UNL     1       0.114  -8.054   6.378  0.00  0.00    +0.024 A 
BRANCH  30  32
ATOM     32  C   UNL     1       0.609 -10.432   6.704  0.00  0.00    +0.099 C 
ATOM     33  N   UNL     1       1.334 -11.306   6.664  0.00  0.00    -0.191 NA
ENDBRANCH  30  32
ENDBRANCH  25  26
ENDBRANCH   6  25
TORSDOF 5
