REMARK  Name = CHEMBL567706
REMARK  9 active torsions:
REMARK  status: ('A' for Active; 'I' for Inactive)
REMARK    1  A    between atoms: C_1  and  N_2
REMARK    2  A    between atoms: N_2  and  C_3
REMARK    3  A    between atoms: N_2  and  C_4
REMARK    4  A    between atoms: C_4  and  C_5
REMARK    5  A    between atoms: C_5  and  C_6
REMARK    6  A    between atoms: C_6  and  C_7
REMARK    7  A    between atoms: C_11  and  C_13
REMARK    8  A    between atoms: C_15  and  C_19
REMARK    9  A    between atoms: C_24  and  C_25
REMARK                            x       y       z     vdW  Elec       q    Type
REMARK                         _______ _______ _______ _____ _____    ______ ____
ROOT
ATOM      1  C   UNL     1      -2.796  -1.651   7.128  0.00  0.00    +0.072 A 
ATOM      2  C   UNL     1      -3.579  -1.243   8.203  0.00  0.00    +0.037 A 
ATOM      3  C   UNL     1      -4.540  -2.120   8.710  0.00  0.00    -0.011 A 
ATOM      4  C   UNL     1      -4.673  -3.377   8.108  0.00  0.00    +0.028 A 
ATOM      5  C   UNL     1      -3.858  -3.704   7.045  0.00  0.00    +0.112 A 
ATOM      6  N   UNL     1      -2.963  -2.851   6.587  0.00  0.00    -0.255 NA
ENDROOT
BRANCH   1  11
ATOM      7  C   UNL     1      -0.103  -0.229   4.924  0.00  0.00    -0.047 A 
ATOM      8  C   UNL     1       0.146   0.981   5.548  0.00  0.00    +0.003 A 
ATOM      9  C   UNL     1      -0.559   1.337   6.683  0.00  0.00    +0.001 A 
ATOM     10  C   UNL     1      -1.515   0.487   7.200  0.00  0.00    +0.010 A 
ATOM     11  C   UNL     1      -1.770  -0.733   6.576  0.00  0.00    +0.001 A 
ATOM     12  C   UNL     1      -1.061  -1.084   5.429  0.00  0.00    +0.013 A 
BRANCH   7  13
ATOM     13  C   UNL     1       0.669  -0.610   3.687  0.00  0.00    +0.033 C 
BRANCH  13  14
ATOM     14  C   UNL     1      -0.071  -0.103   2.448  0.00  0.00    -0.014 C 
BRANCH  14  15
ATOM     15  C   UNL     1       0.713  -0.491   1.192  0.00  0.00    -0.079 C 
BRANCH  15  17
ATOM     16  C   UNL     1      -0.018   1.465   0.010  0.00  0.00    -0.097 C 
ATOM     17  N   UNL     1       0.002  -0.004   0.002  0.00  0.00    +0.376 N 
ATOM     18  C   UNL     1       0.690  -0.478  -1.207  0.00  0.00    -0.097 C 
ATOM     19  H   UNL     1      -0.945  -0.353   0.009  0.00  0.00    -0.083 HD
ENDBRANCH  15  17
ENDBRANCH  14  15
ENDBRANCH  13  14
ENDBRANCH   7  13
ENDBRANCH   1  11
BRANCH   3  20
ATOM     20  C   UNL     1      -5.396  -1.730   9.855  0.00  0.00    +0.029 A 
ATOM     21  C   UNL     1      -4.959  -1.189  11.077  0.00  0.00    +0.143 A 
ATOM     22  N   UNL     1      -6.003  -0.975  11.833  0.00  0.00    -0.181 NA
ATOM     23  H   UNL     1      -8.065  -1.311  11.477  0.00  0.00    +0.189 HD
ATOM     24  N   UNL     1      -7.156  -1.364  11.143  0.00  0.00    -0.275 N 
ATOM     25  C   UNL     1      -6.781  -1.826   9.918  0.00  0.00    +0.092 A 
BRANCH  25  26
ATOM     26  C   UNL     1      -7.676  -2.335   8.858  0.00  0.00    +0.089 A 
ATOM     27  C   UNL     1      -8.925  -2.855   9.198  0.00  0.00    +0.030 A 
ATOM     28  C   UNL     1      -9.752  -3.328   8.194  0.00  0.00    +0.004 A 
ATOM     29  C   UNL     1      -9.303  -3.265   6.882  0.00  0.00    +0.020 A 
ATOM     30  C   UNL     1      -8.053  -2.737   6.616  0.00  0.00    +0.111 A 
ATOM     31  N   UNL     1      -7.287  -2.288   7.588  0.00  0.00    -0.253 NA
ENDBRANCH  25  26
ENDBRANCH   3  20
TORSDOF 7
