REMARK  Name = CHEMBL560815
REMARK  4 active torsions:
REMARK  status: ('A' for Active; 'I' for Inactive)
REMARK    1  A    between atoms: C_1  and  C_2
REMARK    2  A    between atoms: C_6  and  C_8
REMARK    3  A    between atoms: C_10  and  N_18
REMARK    4  A    between atoms: N_18  and  C_19
REMARK                            x       y       z     vdW  Elec       q    Type
REMARK                         _______ _______ _______ _____ _____    ______ ____
ROOT
ATOM      1  C   UNL     1      -1.184  -2.610   2.695  0.00  0.00    +0.092 A 
ATOM      2  C   UNL     1      -0.699  -1.882   3.787  0.00  0.00    +0.053 A 
ATOM      3  C   UNL     1      -0.437  -2.532   4.979  0.00  0.00    +0.043 A 
ATOM      4  C   UNL     1      -0.676  -3.927   5.043  0.00  0.00    +0.022 A 
ATOM      5  C   UNL     1      -0.435  -4.653   6.217  0.00  0.00    +0.012 A 
ATOM      6  C   UNL     1      -0.676  -5.994   6.242  0.00  0.00    +0.001 A 
ATOM      7  C   UNL     1      -1.159  -6.654   5.115  0.00  0.00    +0.002 A 
ATOM      8  C   UNL     1      -1.403  -5.979   3.958  0.00  0.00    +0.028 A 
ATOM      9  C   UNL     1      -1.168  -4.594   3.895  0.00  0.00    +0.073 A 
ATOM     10  N   UNL     1      -1.406  -3.909   2.773  0.00  0.00    -0.245 NA
ENDROOT
BRANCH   1  16
ATOM     11  C   UNL     1      -1.210   1.550   0.168  0.00  0.00    +0.065 C 
ATOM     12  C   UNL     1      -1.476   0.067   0.218  0.00  0.00    +0.039 A 
ATOM     13  C   UNL     1      -1.962  -0.578  -0.906  0.00  0.00    +0.023 A 
ATOM     14  C   UNL     1      -2.205  -1.942  -0.856  0.00  0.00    +0.004 A 
ATOM     15  C   UNL     1      -1.950  -2.615   0.328  0.00  0.00    +0.030 A 
ATOM     16  C   UNL     1      -1.462  -1.903   1.420  0.00  0.00    +0.089 A 
ATOM     17  N   UNL     1      -1.238  -0.598   1.329  0.00  0.00    -0.250 NA
ENDBRANCH   1  16
BRANCH   3  18
ATOM     18  N   UNL     1       0.045  -1.839   6.081  0.00  0.00    -0.314 N 
ATOM     19  H   UNL     1       0.326  -2.322   6.874  0.00  0.00    +0.152 HD
BRANCH  18  20
ATOM     20  C   UNL     1       0.126  -0.449   6.048  0.00  0.00    +0.034 A 
ATOM     21  C   UNL     1      -0.897   0.314   5.484  0.00  0.00    +0.043 A 
ATOM     22  C   UNL     1      -0.778   1.688   5.472  0.00  0.00    +0.112 A 
ATOM     23  N   UNL     1       0.285   2.280   5.983  0.00  0.00    -0.263 NA
ATOM     24  C   UNL     1       1.273   1.594   6.525  0.00  0.00    +0.112 A 
ATOM     25  C   UNL     1       1.229   0.216   6.583  0.00  0.00    +0.043 A 
ENDBRANCH  18  20
ENDBRANCH   3  18
TORSDOF 3
