REMARK  Name = CHEMBL564660
REMARK  3 active torsions:
REMARK  status: ('A' for Active; 'I' for Inactive)
REMARK    1  A    between atoms: C_4  and  C_7
REMARK    2  A    between atoms: C_15  and  N_17
REMARK    3  A    between atoms: N_17  and  C_18
REMARK                            x       y       z     vdW  Elec       q    Type
REMARK                         _______ _______ _______ _____ _____    ______ ____
ROOT
ATOM      1  C   UNL     1       4.162  -1.521  -2.274  0.00  0.00    +0.162 A 
ATOM      2  N   UNL     1       5.245  -0.767  -2.247  0.00  0.00    -0.227 NA
ATOM      3  C   UNL     1       6.259  -1.065  -1.423  0.00  0.00    +0.077 A 
ATOM      4  C   UNL     1       7.423  -0.286  -1.368  0.00  0.00    +0.028 A 
ATOM      5  C   UNL     1       8.425  -0.634  -0.511  0.00  0.00    +0.002 A 
ATOM      6  C   UNL     1       8.311  -1.751   0.311  0.00  0.00    +0.001 A 
ATOM      7  C   UNL     1       7.192  -2.531   0.282  0.00  0.00    +0.013 A 
ATOM      8  C   UNL     1       6.145  -2.202  -0.585  0.00  0.00    +0.040 A 
ATOM      9  C   UNL     1       4.959  -2.975  -0.657  0.00  0.00    +0.135 A 
ATOM     10  N   UNL     1       4.012  -2.594  -1.500  0.00  0.00    -0.212 NA
ENDROOT
BRANCH   1  14
ATOM     11  C   UNL     1       1.015  -0.469  -4.933  0.00  0.00    +0.000 A 
ATOM     12  C   UNL     1       2.141   0.331  -4.846  0.00  0.00    +0.001 A 
ATOM     13  C   UNL     1       3.165  -0.005  -3.985  0.00  0.00    +0.011 A 
ATOM     14  C   UNL     1       3.064  -1.153  -3.201  0.00  0.00    +0.019 A 
ATOM     15  C   UNL     1       1.928  -1.956  -3.292  0.00  0.00    +0.011 A 
ATOM     16  C   UNL     1       0.910  -1.609  -4.157  0.00  0.00    +0.001 A 
ENDBRANCH   1  14
BRANCH   9  17
ATOM     17  N   UNL     1       4.793  -4.093   0.136  0.00  0.00    -0.299 N 
ATOM     18  H   UNL     1       5.524  -4.406   0.692  0.00  0.00    +0.154 HD
BRANCH  17  19
ATOM     19  C   UNL     1       3.576  -4.772   0.137  0.00  0.00    +0.035 A 
ATOM     20  C   UNL     1       2.377  -4.090  -0.065  0.00  0.00    +0.043 A 
ATOM     21  C   UNL     1       1.194  -4.799  -0.056  0.00  0.00    +0.112 A 
ATOM     22  N   UNL     1       1.188  -6.104   0.139  0.00  0.00    -0.263 NA
ATOM     23  C   UNL     1       2.302  -6.785   0.333  0.00  0.00    +0.112 A 
ATOM     24  C   UNL     1       3.527  -6.152   0.333  0.00  0.00    +0.043 A 
ENDBRANCH  17  19
ENDBRANCH   9  17
TORSDOF 3
