REMARK  Name = CHEMBL571451
REMARK  3 active torsions:
REMARK  status: ('A' for Active; 'I' for Inactive)
REMARK    1  A    between atoms: C_7  and  N_18
REMARK    2  A    between atoms: C_9  and  C_11
REMARK    3  A    between atoms: N_18  and  C_19
REMARK                            x       y       z     vdW  Elec       q    Type
REMARK                         _______ _______ _______ _____ _____    ______ ____
ROOT
ATOM      1  C   UNL     1      -0.281   1.244   0.215  0.00  0.00    +0.001 A 
ATOM      2  C   UNL     1       0.619   2.132  -0.367  0.00  0.00    +0.002 A 
ATOM      3  C   UNL     1       1.705   1.680  -1.057  0.00  0.00    +0.028 A 
ATOM      4  C   UNL     1       1.919   0.300  -1.183  0.00  0.00    +0.077 A 
ATOM      5  C   UNL     1       1.001  -0.602  -0.590  0.00  0.00    +0.040 A 
ATOM      6  C   UNL     1      -0.102  -0.104   0.111  0.00  0.00    +0.013 A 
ATOM      7  C   UNL     1       1.238  -1.992  -0.730  0.00  0.00    +0.135 A 
ATOM      8  N   UNL     1       2.307  -2.381  -1.408  0.00  0.00    -0.212 NA
ATOM      9  C   UNL     1       3.144  -1.499  -1.950  0.00  0.00    +0.162 A 
ATOM     10  N   UNL     1       2.970  -0.195  -1.850  0.00  0.00    -0.227 NA
ENDROOT
BRANCH   9  11
ATOM     11  C   UNL     1       4.322  -2.004  -2.698  0.00  0.00    +0.021 A 
ATOM     12  C   UNL     1       4.481  -3.372  -2.912  0.00  0.00    +0.011 A 
ATOM     13  C   UNL     1       5.577  -3.837  -3.608  0.00  0.00    +0.002 A 
ATOM     14  C   UNL     1       6.519  -2.947  -4.094  0.00  0.00    +0.020 A 
ATOM     15  C   UNL     1       6.367  -1.588  -3.885  0.00  0.00    +0.042 A 
ATOM     16  C   UNL     1       5.270  -1.111  -3.193  0.00  0.00    +0.031 A 
ATOM     17 CL   UNL     1       7.554  -0.479  -4.497  0.00  0.00    -0.084 Cl
ENDBRANCH   9  11
BRANCH   7  18
ATOM     18  N   UNL     1       0.378  -2.916  -0.172  0.00  0.00    -0.299 N 
ATOM     19  H   UNL     1      -0.375  -2.618   0.361  0.00  0.00    +0.154 HD
BRANCH  18  20
ATOM     20  C   UNL     1       0.592  -4.278  -0.375  0.00  0.00    +0.035 A 
ATOM     21  C   UNL     1       1.885  -4.798  -0.436  0.00  0.00    +0.043 A 
ATOM     22  C   UNL     1       2.054  -6.152  -0.638  0.00  0.00    +0.112 A 
ATOM     23  N   UNL     1       1.012  -6.951  -0.773  0.00  0.00    -0.263 NA
ATOM     24  C   UNL     1      -0.227  -6.497  -0.722  0.00  0.00    +0.112 A 
ATOM     25  C   UNL     1      -0.481  -5.157  -0.517  0.00  0.00    +0.043 A 
ENDBRANCH  18  20
ENDBRANCH   7  18
TORSDOF 3
