REMARK  Name = CHEMBL410456
REMARK  4 active torsions:
REMARK  status: ('A' for Active; 'I' for Inactive)
REMARK    1  A    between atoms: C_5  and  C_7
REMARK    2  A    between atoms: C_8  and  C_22
REMARK    3  A    between atoms: C_10  and  C_13
REMARK    4  A    between atoms: C_16  and  C_19
REMARK                            x       y       z     vdW  Elec       q    Type
REMARK                         _______ _______ _______ _____ _____    ______ ____
ROOT
ATOM      1  C   UNL     1       1.268  -2.145  -0.022  0.00  0.00    +0.115 A 
ATOM      2  C   UNL     1       2.302  -2.934  -0.506  0.00  0.00    +0.076 A 
ATOM      3  N   UNL     1       1.916  -4.237  -0.316  0.00  0.00    -0.337 N 
ATOM      4  C   UNL     1       0.680  -4.212   0.268  0.00  0.00    +0.139 A 
ATOM      5  N   UNL     1       0.311  -2.964   0.441  0.00  0.00    -0.226 NA
ATOM      6  H   UNL     1       2.425  -5.029  -0.551  0.00  0.00    +0.167 HD
ENDROOT
BRANCH   2   7
ATOM      7  C   UNL     1       3.566  -2.465  -1.105  0.00  0.00    +0.004 A 
ATOM      8  C   UNL     1       3.555  -1.433  -2.046  0.00  0.00    +0.014 A 
ATOM      9  C   UNL     1       4.738  -0.998  -2.605  0.00  0.00    +0.050 A 
ATOM     10  C   UNL     1       5.943  -1.581  -2.236  0.00  0.00    +0.162 A 
ATOM     11  C   UNL     1       5.962  -2.608  -1.297  0.00  0.00    +0.163 A 
ATOM     12  C   UNL     1       4.779  -3.047  -0.729  0.00  0.00    +0.059 A 
ATOM     13  O   UNL     1       7.136  -3.185  -0.919  0.00  0.00    -0.485 OA
ATOM     14  C   UNL     1       8.262  -2.973  -1.776  0.00  0.00    +0.270 C 
ATOM     15  C   UNL     1       8.317  -1.482  -2.138  0.00  0.00    +0.270 C 
ATOM     16  O   UNL     1       7.098  -1.138  -2.804  0.00  0.00    -0.485 OA
ENDBRANCH   2   7
BRANCH   1  21
ATOM     17  C   UNL     1      -0.017   1.379   0.010  0.00  0.00    +0.004 A 
ATOM     18  C   UNL     1       1.194   2.059   0.002  0.00  0.00    +0.020 A 
ATOM     19  C   UNL     1       2.375   1.341  -0.013  0.00  0.00    +0.111 A 
ATOM     20  N   UNL     1       2.366   0.023  -0.021  0.00  0.00    -0.253 NA
ATOM     21  C   UNL     1       1.231  -0.665  -0.014  0.00  0.00    +0.091 A 
ATOM     22  C   UNL     1       0.002  -0.004   0.002  0.00  0.00    +0.030 A 
ENDBRANCH   1  21
BRANCH   4  23
ATOM     23  C   UNL     1      -0.112  -5.399   0.648  0.00  0.00    +0.017 A 
ATOM     24  C   UNL     1       0.398  -6.681   0.421  0.00  0.00    +0.012 A 
ATOM     25  C   UNL     1      -0.338  -7.783   0.774  0.00  0.00    +0.014 A 
ATOM     26  C   UNL     1      -1.596  -7.625   1.360  0.00  0.00    +0.037 A 
ATOM     27  C   UNL     1      -2.105  -6.344   1.587  0.00  0.00    +0.014 A 
ATOM     28  C   UNL     1      -1.368  -5.241   1.240  0.00  0.00    +0.012 A 
BRANCH  26  29
ATOM     29  C   UNL     1      -2.388  -8.812   1.740  0.00  0.00    +0.242 C 
ATOM     30  O   UNL     1      -1.946  -9.927   1.542  0.00  0.00    -0.270 OA
ATOM     31  N   UNL     1      -3.602  -8.660   2.306  0.00  0.00    -0.325 N 
ATOM     32  H   UNL     1      -3.955  -7.771   2.464  0.00  0.00    +0.145 HD
ATOM     33  H   UNL     1      -4.122  -9.440   2.555  0.00  0.00    +0.145 HD
ENDBRANCH  26  29
ENDBRANCH   4  23
TORSDOF 4
