REMARK  Name = CHEMBL436944
REMARK  4 active torsions:
REMARK  status: ('A' for Active; 'I' for Inactive)
REMARK    1  A    between atoms: C_5  and  C_7
REMARK    2  A    between atoms: C_8  and  C_13
REMARK    3  A    between atoms: C_17  and  C_19
REMARK    4  A    between atoms: C_22  and  C_25
REMARK                            x       y       z     vdW  Elec       q    Type
REMARK                         _______ _______ _______ _____ _____    ______ ____
ROOT
ATOM      1  C   UNL     1       3.601  -2.277  -1.036  0.00  0.00    -0.011 A 
ATOM      2  C   UNL     1       3.571  -1.560  -2.237  0.00  0.00    +0.028 A 
ATOM      3  C   UNL     1       4.745  -1.360  -2.933  0.00  0.00    +0.112 A 
ATOM      4  N   UNL     1       5.890  -1.835  -2.484  0.00  0.00    -0.255 NA
ATOM      5  C   UNL     1       5.969  -2.522  -1.351  0.00  0.00    +0.072 A 
ATOM      6  C   UNL     1       4.832  -2.762  -0.587  0.00  0.00    +0.037 A 
ENDROOT
BRANCH   1   8
ATOM      7  C   UNL     1       1.425  -1.554   0.107  0.00  0.00    +0.092 A 
ATOM      8  C   UNL     1       2.362  -2.512  -0.259  0.00  0.00    +0.029 A 
ATOM      9  C   UNL     1       1.915  -3.747   0.245  0.00  0.00    +0.143 A 
ATOM     10  N   UNL     1       0.786  -3.555   0.873  0.00  0.00    -0.181 NA
ATOM     11  H   UNL     1      -0.334  -1.785   1.203  0.00  0.00    +0.189 HD
ATOM     12  N   UNL     1       0.453  -2.197   0.813  0.00  0.00    -0.275 N 
BRANCH   7  17
ATOM     13  C   UNL     1       0.360   1.980  -0.546  0.00  0.00    +0.004 A 
ATOM     14  C   UNL     1       1.605   2.549  -0.780  0.00  0.00    +0.020 A 
ATOM     15  C   UNL     1       2.736   1.756  -0.715  0.00  0.00    +0.111 A 
ATOM     16  N   UNL     1       2.648   0.472  -0.434  0.00  0.00    -0.253 NA
ATOM     17  C   UNL     1       1.477  -0.111  -0.204  0.00  0.00    +0.089 A 
ATOM     18  C   UNL     1       0.295   0.630  -0.254  0.00  0.00    +0.030 A 
ENDBRANCH   7  17
ENDBRANCH   1   8
BRANCH   5  19
ATOM     19  C   UNL     1       7.283  -3.033  -0.892  0.00  0.00    +0.000 A 
ATOM     20  C   UNL     1       7.372  -3.761   0.295  0.00  0.00    +0.011 A 
ATOM     21  C   UNL     1       8.592  -4.236   0.722  0.00  0.00    +0.014 A 
ATOM     22  C   UNL     1       9.741  -3.990  -0.035  0.00  0.00    +0.037 A 
ATOM     23  C   UNL     1       9.650  -3.262  -1.223  0.00  0.00    +0.014 A 
ATOM     24  C   UNL     1       8.428  -2.792  -1.651  0.00  0.00    +0.011 A 
BRANCH  22  25
ATOM     25  C   UNL     1      11.050  -4.499   0.423  0.00  0.00    +0.247 C 
ATOM     26  O   UNL     1      11.128  -5.595   0.944  0.00  0.00    -0.270 OA
ATOM     27  N   UNL     1      12.159  -3.749   0.261  0.00  0.00    -0.293 N 
ATOM     28  C   UNL     1      12.073  -2.370  -0.244  0.00  0.00    +0.136 C 
ATOM     29  C   UNL     1      12.860  -1.458   0.704  0.00  0.00    +0.179 C 
ATOM     30  O   UNL     1      14.176  -1.988   0.882  0.00  0.00    -0.377 OA
ATOM     31  C   UNL     1      14.208  -3.280   1.493  0.00  0.00    +0.179 C 
ATOM     32  C   UNL     1      13.489  -4.284   0.591  0.00  0.00    +0.136 C 
ENDBRANCH  22  25
ENDBRANCH   5  19
TORSDOF 4
