REMARK  Name = CHEMBL234655
REMARK  8 active torsions:
REMARK  status: ('A' for Active; 'I' for Inactive)
REMARK    1  A    between atoms: C_4  and  C_8
REMARK    2  A    between atoms: C_12  and  N_14
REMARK    3  A    between atoms: N_14  and  C_15
REMARK    4  A    between atoms: C_20  and  C_21
REMARK    5  A    between atoms: N_23  and  C_24
REMARK    6  A    between atoms: C_24  and  C_25
REMARK    7  A    between atoms: C_25  and  C_26
REMARK    8  A    between atoms: C_26  and  N_27
REMARK                            x       y       z     vdW  Elec       q    Type
REMARK                         _______ _______ _______ _____ _____    ______ ____
ROOT
ATOM      1  N   UNL     1       4.834  -4.193   0.108  0.00  0.00    -0.297 N 
ATOM      2  H   UNL     1       5.631  -4.625  -0.237  0.00  0.00    +0.154 HD
ENDROOT
BRANCH   1   7
ATOM      3  C   UNL     1       3.927  -1.094   1.658  0.00  0.00    +0.167 A 
ATOM      4  N   UNL     1       5.013  -0.347   1.591  0.00  0.00    -0.206 NA
ATOM      5  C   UNL     1       6.135  -0.808   1.028  0.00  0.00    +0.184 A 
ATOM      6  C   UNL     1       6.139  -2.124   0.499  0.00  0.00    +0.148 A 
ATOM      7  C   UNL     1       4.906  -2.906   0.601  0.00  0.00    +0.155 A 
ATOM      8  N   UNL     1       3.862  -2.337   1.187  0.00  0.00    -0.210 NA
ATOM      9  N   UNL     1       7.239  -2.611  -0.068  0.00  0.00    -0.247 NA
ATOM     10  C   UNL     1       8.320  -1.863  -0.132  0.00  0.00    +0.131 A 
ATOM     11  C   UNL     1       8.321  -0.568   0.387  0.00  0.00    +0.133 A 
ATOM     12  N   UNL     1       7.244  -0.067   0.951  0.00  0.00    -0.233 NA
BRANCH   3  16
ATOM     13  C   UNL     1       0.459   0.552   3.488  0.00  0.00    +0.018 A 
ATOM     14  C   UNL     1       1.642   1.268   3.490  0.00  0.00    +0.040 A 
ATOM     15  C   UNL     1       2.774   0.739   2.897  0.00  0.00    +0.134 A 
ATOM     16  C   UNL     1       2.719  -0.521   2.296  0.00  0.00    +0.055 A 
ATOM     17  C   UNL     1       1.522  -1.236   2.297  0.00  0.00    +0.029 A 
ATOM     18  C   UNL     1       0.400  -0.696   2.893  0.00  0.00    +0.019 A 
ATOM     19 BR   UNL     1      -1.224  -1.666   2.895  0.00  0.00    -0.050 Br
ATOM     20  F   UNL     1       3.930   1.438   2.900  0.00  0.00    -0.205 F 
ENDBRANCH   3  16
ENDBRANCH   1   7
BRANCH   1  21
ATOM     21  C   UNL     1       3.623  -4.869   0.108  0.00  0.00    +0.048 A 
ATOM     22  C   UNL     1       2.422  -4.189  -0.094  0.00  0.00    +0.044 A 
ATOM     23  C   UNL     1       1.239  -4.896  -0.088  0.00  0.00    +0.112 A 
ATOM     24  N   UNL     1       1.224  -6.203   0.106  0.00  0.00    -0.262 NA
ATOM     25  C   UNL     1       2.327  -6.894   0.301  0.00  0.00    +0.125 A 
ATOM     26  C   UNL     1       3.571  -6.263   0.305  0.00  0.00    +0.076 A 
BRANCH  26  27
ATOM     27  C   UNL     1       4.807  -7.038   0.518  0.00  0.00    +0.247 C 
ATOM     28  O   UNL     1       5.890  -6.491   0.434  0.00  0.00    -0.270 OA
ATOM     29  N   UNL     1       4.737  -8.353   0.806  0.00  0.00    -0.311 N 
ATOM     30  H   UNL     1       3.873  -8.789   0.873  0.00  0.00    +0.149 HD
BRANCH  29  31
ATOM     31  C   UNL     1       5.965  -9.123   1.017  0.00  0.00    +0.106 C 
BRANCH  31  32
ATOM     32  C   UNL     1       5.607 -10.579   1.326  0.00  0.00    +0.038 C 
BRANCH  32  33
ATOM     33  C   UNL     1       6.890 -11.383   1.547  0.00  0.00    +0.109 C 
BRANCH  33  34
ATOM     34  N   UNL     1       6.547 -12.776   1.842  0.00  0.00    -0.301 N 
ATOM     35  C   UNL     1       6.308 -13.302   3.192  0.00  0.00    +0.108 C 
ATOM     36  C   UNL     1       5.573 -14.645   2.986  0.00  0.00    +0.028 C 
ATOM     37  C   UNL     1       6.045 -15.050   1.571  0.00  0.00    +0.097 C 
ATOM     38  C   UNL     1       6.406 -13.737   0.912  0.00  0.00    +0.216 C 
ATOM     39  O   UNL     1       6.550 -13.574  -0.281  0.00  0.00    -0.276 OA
ENDBRANCH  33  34
ENDBRANCH  32  33
ENDBRANCH  31  32
ENDBRANCH  29  31
ENDBRANCH  26  27
ENDBRANCH   1  21
TORSDOF 8
