REMARK  Name = CHEMBL387747
REMARK  7 active torsions:
REMARK  status: ('A' for Active; 'I' for Inactive)
REMARK    1  A    between atoms: C_1  and  C_2
REMARK    2  A    between atoms: C_6  and  C_8
REMARK    3  A    between atoms: C_9  and  C_24
REMARK    4  A    between atoms: C_11  and  C_14
REMARK    5  A    between atoms: C_14  and  N_15
REMARK    6  A    between atoms: N_15  and  C_16
REMARK    7  A    between atoms: C_20  and  C_22
REMARK                            x       y       z     vdW  Elec       q    Type
REMARK                         _______ _______ _______ _____ _____    ______ ____
ROOT
ATOM      1  C   UNL     1       0.050  -2.682   2.486  0.00  0.00    +0.090 A 
ATOM      2  C   UNL     1       0.512  -2.180   3.690  0.00  0.00    +0.074 A 
ATOM      3  N   UNL     1       0.340  -3.139   4.618  0.00  0.00    -0.342 N 
ATOM      4  C   UNL     1      -0.194  -4.192   4.064  0.00  0.00    +0.103 A 
ATOM      5  N   UNL     1      -0.397  -3.958   2.750  0.00  0.00    -0.340 N 
ATOM      6  H   UNL     1      -0.784  -4.575   2.109  0.00  0.00    +0.167 HD
ATOM      7  H   UNL     1       0.577  -3.060   5.555  0.00  0.00    +0.167 HD
ENDROOT
BRANCH   2   8
ATOM      8  C   UNL     1       1.089  -0.834   3.916  0.00  0.00    +0.004 A 
ATOM      9  C   UNL     1       2.026  -0.317   3.022  0.00  0.00    +0.014 A 
ATOM     10  C   UNL     1       2.562   0.937   3.234  0.00  0.00    +0.050 A 
ATOM     11  C   UNL     1       2.172   1.686   4.334  0.00  0.00    +0.166 A 
ATOM     12  C   UNL     1       1.235   1.174   5.230  0.00  0.00    +0.167 A 
ATOM     13  C   UNL     1       0.691  -0.080   5.020  0.00  0.00    +0.059 A 
ATOM     14  O   UNL     1       1.024   2.096   6.215  0.00  0.00    -0.453 OA
ATOM     15  C   UNL     1       2.140   3.003   6.137  0.00  0.00    +0.466 C 
ATOM     16  O   UNL     1       2.547   2.929   4.758  0.00  0.00    -0.453 OA
ENDBRANCH   2   8
BRANCH   1  22
ATOM     17  C   UNL     1      -0.018   1.503   0.010  0.00  0.00    +0.065 C 
ATOM     18  C   UNL     1       0.002  -0.004   0.002  0.00  0.00    +0.039 A 
ATOM     19  C   UNL     1       0.005  -0.679  -1.205  0.00  0.00    +0.023 A 
ATOM     20  C   UNL     1       0.024  -2.067  -1.210  0.00  0.00    +0.004 A 
ATOM     21  C   UNL     1       0.039  -2.733   0.002  0.00  0.00    +0.030 A 
ATOM     22  C   UNL     1       0.035  -1.989   1.184  0.00  0.00    +0.089 A 
ATOM     23  N   UNL     1       0.022  -0.660   1.145  0.00  0.00    -0.250 NA
ENDBRANCH   1  22
BRANCH   4  24
ATOM     24  C   UNL     1      -0.537  -5.472   4.781  0.00  0.00    +0.173 C 
BRANCH  24  25
ATOM     25  N   UNL     1      -1.521  -6.223   3.997  0.00  0.00    -0.337 N 
ATOM     26  H   UNL     1      -1.844  -5.867   3.155  0.00  0.00    +0.147 HD
BRANCH  25  27
ATOM     27  C   UNL     1      -1.994  -7.452   4.463  0.00  0.00    +0.029 A 
ATOM     28  C   UNL     1      -1.536  -7.960   5.674  0.00  0.00    +0.023 A 
ATOM     29  C   UNL     1      -2.001  -9.175   6.139  0.00  0.00    +0.003 A 
ATOM     30  C   UNL     1      -2.924  -9.893   5.406  0.00  0.00    +0.019 A 
ATOM     31  C   UNL     1      -3.391  -9.392   4.189  0.00  0.00    +0.054 A 
ATOM     32  C   UNL     1      -2.926  -8.162   3.722  0.00  0.00    +0.041 A 
BRANCH  31  33
ATOM     33  C   UNL     1      -4.348 -10.135   3.426  0.00  0.00    +0.099 C 
ATOM     34  N   UNL     1      -5.108 -10.724   2.821  0.00  0.00    -0.191 NA
ENDBRANCH  31  33
ENDBRANCH  25  27
ENDBRANCH  24  25
ENDBRANCH   4  24
TORSDOF 6
