REMARK  Name = CHEMBL129677
REMARK  3 active torsions:
REMARK  status: ('A' for Active; 'I' for Inactive)
REMARK    1  A    between atoms: C_1  and  C_2
REMARK    2  A    between atoms: C_6  and  C_8
REMARK    3  A    between atoms: C_9  and  C_14
REMARK                            x       y       z     vdW  Elec       q    Type
REMARK                         _______ _______ _______ _____ _____    ______ ____
ROOT
ATOM      1  C   UNL     1       0.051  -2.681   2.488  0.00  0.00    +0.092 A 
ATOM      2  C   UNL     1       0.517  -2.167   3.694  0.00  0.00    +0.029 A 
ATOM      3  C   UNL     1       0.340  -3.167   4.669  0.00  0.00    +0.143 A 
ATOM      4  N   UNL     1      -0.195  -4.213   4.098  0.00  0.00    -0.181 NA
ATOM      5  N   UNL     1      -0.394  -3.943   2.740  0.00  0.00    -0.275 N 
ATOM      6  H   UNL     1      -0.779  -4.551   2.089  0.00  0.00    +0.189 HD
ENDROOT
BRANCH   2   7
ATOM      7  C   UNL     1       1.092  -0.822   3.910  0.00  0.00    -0.004 A 
ATOM      8  C   UNL     1       2.422  -0.661   4.281  0.00  0.00    +0.029 A 
ATOM      9  C   UNL     1       2.930   0.616   4.476  0.00  0.00    +0.112 A 
ATOM     10  N   UNL     1       2.190   1.688   4.320  0.00  0.00    -0.255 NA
ATOM     11  C   UNL     1       0.903   1.610   3.964  0.00  0.00    +0.072 A 
ATOM     12  C   UNL     1       0.306   0.346   3.740  0.00  0.00    +0.008 A 
ATOM     13  C   UNL     1      -1.041   0.272   3.363  0.00  0.00    +0.010 A 
ATOM     14  C   UNL     1      -1.763   1.417   3.211  0.00  0.00    +0.001 A 
ATOM     15  C   UNL     1      -1.178   2.663   3.425  0.00  0.00    +0.002 A 
ATOM     16  C   UNL     1       0.126   2.771   3.803  0.00  0.00    +0.028 A 
ENDBRANCH   2   7
BRANCH   1  22
ATOM     17  C   UNL     1      -0.018   1.503   0.010  0.00  0.00    +0.065 C 
ATOM     18  C   UNL     1       0.002  -0.004   0.002  0.00  0.00    +0.039 A 
ATOM     19  C   UNL     1       0.006  -0.679  -1.205  0.00  0.00    +0.023 A 
ATOM     20  C   UNL     1       0.025  -2.067  -1.210  0.00  0.00    +0.004 A 
ATOM     21  C   UNL     1       0.040  -2.732   0.004  0.00  0.00    +0.030 A 
ATOM     22  C   UNL     1       0.035  -1.988   1.184  0.00  0.00    +0.089 A 
ATOM     23  N   UNL     1       0.022  -0.659   1.144  0.00  0.00    -0.250 NA
ENDBRANCH   1  22
TORSDOF 2
