REMARK  Name = CHEMBL575492
REMARK  9 active torsions:
REMARK  status: ('A' for Active; 'I' for Inactive)
REMARK    1  A    between atoms: C_1  and  C_2
REMARK    2  A    between atoms: C_4  and  O_15
REMARK    3  A    between atoms: C_5  and  C_9
REMARK    4  A    between atoms: C_7  and  C_8
REMARK    5  A    between atoms: O_15  and  C_16
REMARK    6  A    between atoms: C_20  and  N_22
REMARK    7  A    between atoms: N_22  and  C_23
REMARK    8  A    between atoms: C_28  and  O_29
REMARK    9  A    between atoms: O_29  and  C_30
REMARK                            x       y       z     vdW  Elec       q    Type
REMARK                         _______ _______ _______ _____ _____    ______ ____
ROOT
ATOM      1  C   UNL     1      -0.251  -2.200  -3.534  0.00  0.00    +0.133 A 
ATOM      2  C   UNL     1       0.022  -0.838  -3.654  0.00  0.00    +0.064 A 
ATOM      3  C   UNL     1       0.207  -0.295  -4.907  0.00  0.00    +0.088 A 
ATOM      4  N   UNL     1       0.128  -1.046  -5.990  0.00  0.00    -0.349 N 
ATOM      5  C   UNL     1      -0.129  -2.344  -5.921  0.00  0.00    +0.104 A 
ATOM      6  C   UNL     1      -0.321  -2.964  -4.694  0.00  0.00    +0.088 A 
ATOM      7  H   UNL     1       0.262  -0.637  -6.859  0.00  0.00    +0.167 HD
ENDROOT
BRANCH   5   8
ATOM      8  N   UNL     1      -0.201  -3.095  -7.090  0.00  0.00    -0.298 N 
ATOM      9  H   UNL     1       0.245  -2.785  -7.894  0.00  0.00    +0.154 HD
BRANCH   8  10
ATOM     10  C   UNL     1      -0.918  -4.297  -7.107  0.00  0.00    +0.075 A 
ATOM     11  C   UNL     1      -1.954  -4.502  -6.206  0.00  0.00    +0.027 A 
ATOM     12  C   UNL     1      -2.660  -5.690  -6.225  0.00  0.00    +0.002 A 
ATOM     13  C   UNL     1      -2.338  -6.676  -7.139  0.00  0.00    +0.004 A 
ATOM     14  C   UNL     1      -1.307  -6.479  -8.039  0.00  0.00    +0.047 A 
ATOM     15  C   UNL     1      -0.598  -5.289  -8.031  0.00  0.00    +0.141 A 
BRANCH  15  16
ATOM     16  O   UNL     1       0.412  -5.091  -8.921  0.00  0.00    -0.493 OA
ATOM     17  C   UNL     1       0.685  -6.151  -9.839  0.00  0.00    +0.277 C 
ENDBRANCH  15  16
ENDBRANCH   8  10
ENDBRANCH   5   8
BRANCH   1  18
ATOM     18  O   UNL     1      -0.438  -2.768  -2.316  0.00  0.00    -0.454 OA
BRANCH  18  22
ATOM     19  C   UNL     1      -5.225  -1.849  -2.778  0.00  0.00    +0.046 C 
ATOM     20  C   UNL     1      -4.040  -2.382  -2.014  0.00  0.00    -0.026 A 
ATOM     21  C   UNL     1      -2.768  -2.312  -2.559  0.00  0.00    +0.053 A 
ATOM     22  C   UNL     1      -1.702  -2.815  -1.822  0.00  0.00    +0.156 A 
ATOM     23  C   UNL     1      -1.953  -3.372  -0.564  0.00  0.00    +0.131 A 
ATOM     24  N   UNL     1      -3.188  -3.418  -0.083  0.00  0.00    -0.246 NA
ATOM     25  C   UNL     1      -4.212  -2.942  -0.760  0.00  0.00    +0.042 A 
ATOM     26  C   UNL     1      -5.594  -3.014  -0.164  0.00  0.00    +0.066 C 
BRANCH  23  27
ATOM     27  C   UNL     1      -0.830  -3.914   0.238  0.00  0.00    +0.093 A 
ATOM     28  C   UNL     1      -0.944  -3.988   1.625  0.00  0.00    +0.030 A 
ATOM     29  C   UNL     1       0.113  -4.497   2.360  0.00  0.00    +0.004 A 
ATOM     30  C   UNL     1       1.249  -4.917   1.683  0.00  0.00    +0.020 A 
ATOM     31  C   UNL     1       1.294  -4.816   0.305  0.00  0.00    +0.111 A 
ATOM     32  N   UNL     1       0.272  -4.332  -0.371  0.00  0.00    -0.253 NA
ENDBRANCH  23  27
ENDBRANCH  18  22
ENDBRANCH   1  18
TORSDOF 6
