REMARK  Name = CHEMBL361237
REMARK  2 active torsions:
REMARK  status: ('A' for Active; 'I' for Inactive)
REMARK    1  A    between atoms: C_7  and  C_9
REMARK    2  A    between atoms: C_10  and  C_15
REMARK                            x       y       z     vdW  Elec       q    Type
REMARK                         _______ _______ _______ _____ _____    ______ ____
ROOT
ATOM      1  C   UNL     1       5.958   2.038  -0.070  0.00  0.00    +0.067 A 
ATOM      2  C   UNL     1       6.197   3.410  -0.127  0.00  0.00    +0.089 A 
ATOM      3  N   UNL     1       7.467   3.778  -0.086  0.00  0.00    -0.224 NA
ATOM      4  C   UNL     1       8.435   2.891   0.003  0.00  0.00    +0.157 A 
ATOM      5  S   UNL     1       7.627   1.416   0.045  0.00  0.00    -0.050 S 
ATOM      6  N   UNL     1       9.797   3.119   0.055  0.00  0.00    -0.337 N 
ATOM      7  H   UNL     1      10.138   4.026   0.026  0.00  0.00    +0.144 HD
ATOM      8  H   UNL     1      10.411   2.371   0.120  0.00  0.00    +0.144 HD
ENDROOT
BRANCH   1  15
ATOM      9  C   UNL     1       0.010   1.349  -0.578  0.00  0.00    +0.022 A 
ATOM     10  C   UNL     1       1.183   2.049  -0.560  0.00  0.00    +0.031 A 
ATOM     11  C   UNL     1       2.379   1.340  -0.334  0.00  0.00    +0.090 A 
ATOM     12  C   UNL     1       2.313  -0.061  -0.134  0.00  0.00    +0.089 A 
ATOM     13  C   UNL     1       3.509  -0.777   0.094  0.00  0.00    +0.032 A 
ATOM     14  C   UNL     1       4.682  -0.089   0.112  0.00  0.00    +0.031 A 
ATOM     15  C   UNL     1       4.682   1.305  -0.093  0.00  0.00    +0.081 A 
ATOM     16  N   UNL     1       3.556   1.968  -0.306  0.00  0.00    -0.245 NA
ATOM     17  N   UNL     1       1.134  -0.685  -0.163  0.00  0.00    -0.253 NA
ATOM     18  C   UNL     1       0.019  -0.028  -0.374  0.00  0.00    +0.111 A 
ENDBRANCH   1  15
BRANCH   2  19
ATOM     19  C   UNL     1       5.096   4.396  -0.227  0.00  0.00    +0.002 A 
ATOM     20  C   UNL     1       3.981   4.287   0.605  0.00  0.00    +0.013 A 
ATOM     21  C   UNL     1       2.959   5.207   0.507  0.00  0.00    +0.039 A 
ATOM     22  C   UNL     1       3.038   6.239  -0.414  0.00  0.00    +0.123 A 
ATOM     23  C   UNL     1       4.143   6.352  -1.242  0.00  0.00    +0.039 A 
ATOM     24  C   UNL     1       5.174   5.440  -1.149  0.00  0.00    +0.013 A 
ATOM     25  F   UNL     1       2.033   7.138  -0.506  0.00  0.00    -0.205 F 
ENDBRANCH   2  19
TORSDOF 2
