REMARK  Name = CHEMBL409356
REMARK  6 active torsions:
REMARK  status: ('A' for Active; 'I' for Inactive)
REMARK    1  A    between atoms: C_1  and  N_2
REMARK    2  A    between atoms: C_8  and  C_10
REMARK    3  A    between atoms: C_10  and  O_11
REMARK    4  A    between atoms: O_11  and  C_12
REMARK    5  A    between atoms: C_16  and  C_22
REMARK    6  A    between atoms: C_26  and  C_27
REMARK                            x       y       z     vdW  Elec       q    Type
REMARK                         _______ _______ _______ _____ _____    ______ ____
ROOT
ATOM      1  C   UNL     1       4.186  -5.680   2.037  0.00  0.00    +0.123 A 
ATOM      2  C   UNL     1       3.822  -5.300   3.332  0.00  0.00    +0.046 A 
ATOM      3  C   UNL     1       4.398  -5.887   4.417  0.00  0.00    +0.014 A 
ATOM      4  C   UNL     1       5.368  -6.882   4.239  0.00  0.00    +0.008 A 
ATOM      5  C   UNL     1       5.987  -7.513   5.348  0.00  0.00    -0.003 A 
ATOM      6  C   UNL     1       6.940  -8.492   5.091  0.00  0.00    +0.029 A 
ATOM      7  C   UNL     1       7.252  -8.817   3.778  0.00  0.00    +0.112 A 
ATOM      8  N   UNL     1       6.671  -8.226   2.760  0.00  0.00    -0.255 NA
ATOM      9  C   UNL     1       5.745  -7.275   2.932  0.00  0.00    +0.075 A 
ATOM     10  C   UNL     1       5.131  -6.658   1.830  0.00  0.00    +0.074 A 
ENDROOT
BRANCH   5  11
ATOM     11  C   UNL     1       5.631  -7.140   6.735  0.00  0.00    +0.033 A 
ATOM     12  C   UNL     1       4.651  -7.704   7.507  0.00  0.00    +0.048 A 
ATOM     13  N   UNL     1       4.649  -7.090   8.703  0.00  0.00    -0.267 N 
ATOM     14  N   UNL     1       5.646  -6.099   8.711  0.00  0.00    -0.169 NA
ATOM     15  C   UNL     1       6.261  -6.102   7.551  0.00  0.00    +0.119 A 
ATOM     16  C   UNL     1       3.616  -7.661   9.585  0.00  0.00    +0.144 C 
ATOM     17  C   UNL     1       2.656  -8.433   8.655  0.00  0.00    +0.029 C 
ATOM     18  C   UNL     1       3.581  -8.775   7.465  0.00  0.00    +0.057 C 
BRANCH  15  19
ATOM     19  C   UNL     1       7.380  -5.220   7.143  0.00  0.00    +0.091 A 
ATOM     20  C   UNL     1       7.545  -3.982   7.764  0.00  0.00    +0.030 A 
ATOM     21  C   UNL     1       8.594  -3.169   7.372  0.00  0.00    +0.004 A 
ATOM     22  C   UNL     1       9.445  -3.620   6.373  0.00  0.00    +0.020 A 
ATOM     23  C   UNL     1       9.222  -4.858   5.800  0.00  0.00    +0.111 A 
ATOM     24  N   UNL     1       8.219  -5.616   6.195  0.00  0.00    -0.253 NA
ENDBRANCH  15  19
ENDBRANCH   5  11
BRANCH   1  25
ATOM     25  O   UNL     1       3.596  -5.080   0.971  0.00  0.00    -0.483 OA
BRANCH  25  26
ATOM     26  C   UNL     1       2.623  -4.072   1.250  0.00  0.00    +0.324 C 
BRANCH  26  34
ATOM     27  C   UNL     1      -0.018   1.465   0.010  0.00  0.00    -0.096 C 
ATOM     28  N   UNL     1       0.002  -0.004   0.002  0.00  0.00    +0.380 N 
ATOM     29  C   UNL     1       0.680  -0.476  -1.212  0.00  0.00    -0.060 C 
ATOM     30  C   UNL     1       0.601  -2.005  -1.279  0.00  0.00    +0.089 C 
ATOM     31  N   UNL     1       1.144  -2.555  -0.027  0.00  0.00    -0.302 N 
ATOM     32  C   UNL     1       0.635  -2.018   1.245  0.00  0.00    +0.089 C 
ATOM     33  C   UNL     1       0.713  -0.489   1.192  0.00  0.00    -0.060 C 
ATOM     34  C   UNL     1       2.081  -3.523  -0.045  0.00  0.00    +0.253 C 
ATOM     35  O   UNL     1       2.489  -3.954  -1.103  0.00  0.00    -0.272 OA
ATOM     36  H   UNL     1      -0.945  -0.352   0.012  0.00  0.00    -0.082 HD
ENDBRANCH  26  34
ENDBRANCH  25  26
ENDBRANCH   1  25
TORSDOF 5
