REMARK  Name = CHEMBL260015
REMARK  6 active torsions:
REMARK  status: ('A' for Active; 'I' for Inactive)
REMARK    1  A    between atoms: C_5  and  C_7
REMARK    2  A    between atoms: C_8  and  C_15
REMARK    3  A    between atoms: C_23  and  O_25
REMARK    4  A    between atoms: O_25  and  C_26
REMARK    5  A    between atoms: C_26  and  C_27
REMARK    6  A    between atoms: C_27  and  N_28
REMARK                            x       y       z     vdW  Elec       q    Type
REMARK                         _______ _______ _______ _____ _____    ______ ____
ROOT
ATOM      1  C   UNL     1       3.242  -2.791  -1.158  0.00  0.00    -0.003 A 
ATOM      2  C   UNL     1       4.312  -2.550  -0.304  0.00  0.00    +0.029 A 
ATOM      3  C   UNL     1       5.499  -2.045  -0.816  0.00  0.00    +0.112 A 
ATOM      4  N   UNL     1       5.647  -1.784  -2.094  0.00  0.00    -0.255 NA
ATOM      5  C   UNL     1       4.662  -1.991  -2.974  0.00  0.00    +0.075 A 
ATOM      6  C   UNL     1       3.419  -2.511  -2.537  0.00  0.00    +0.008 A 
ATOM      7  C   UNL     1       2.390  -2.733  -3.462  0.00  0.00    +0.014 A 
ATOM      8  C   UNL     1       2.591  -2.454  -4.779  0.00  0.00    +0.046 A 
ATOM      9  C   UNL     1       3.816  -1.947  -5.223  0.00  0.00    +0.122 A 
ATOM     10  C   UNL     1       4.841  -1.706  -4.338  0.00  0.00    +0.074 A 
ENDROOT
BRANCH   1  12
ATOM     11  C   UNL     1       0.816  -2.555  -0.173  0.00  0.00    +0.119 A 
ATOM     12  C   UNL     1       1.962  -3.329  -0.646  0.00  0.00    +0.033 A 
ATOM     13  C   UNL     1       1.621  -4.649  -0.524  0.00  0.00    +0.048 A 
ATOM     14  N   UNL     1       0.378  -4.719  -0.017  0.00  0.00    -0.267 N 
ATOM     15  N   UNL     1      -0.104  -3.416   0.197  0.00  0.00    -0.169 NA
ATOM     16  C   UNL     1      -0.045  -6.122   0.147  0.00  0.00    +0.144 C 
ATOM     17  C   UNL     1       0.919  -6.950  -0.729  0.00  0.00    +0.029 C 
ATOM     18  C   UNL     1       2.168  -6.041  -0.767  0.00  0.00    +0.057 C 
BRANCH  11  23
ATOM     19  C   UNL     1      -0.620   0.911  -0.091  0.00  0.00    +0.004 A 
ATOM     20  C   UNL     1       0.559   1.640  -0.008  0.00  0.00    +0.020 A 
ATOM     21  C   UNL     1       1.769   0.972   0.018  0.00  0.00    +0.111 A 
ATOM     22  N   UNL     1       1.816  -0.344  -0.035  0.00  0.00    -0.253 NA
ATOM     23  C   UNL     1       0.713  -1.077  -0.115  0.00  0.00    +0.091 A 
ATOM     24  C   UNL     1      -0.541  -0.469  -0.146  0.00  0.00    +0.030 A 
ENDBRANCH  11  23
ENDBRANCH   1  12
BRANCH   9  25
ATOM     25  O   UNL     1       3.991  -1.677  -6.543  0.00  0.00    -0.494 OA
BRANCH  25  26
ATOM     26  C   UNL     1       2.886  -1.936  -7.411  0.00  0.00    +0.210 C 
BRANCH  26  27
ATOM     27  C   UNL     1       3.269  -1.574  -8.847  0.00  0.00    -0.037 C 
BRANCH  27  28
ATOM     28  N   UNL     1       4.361  -2.448  -9.298  0.00  0.00    +0.385 N 
ATOM     29  C   UNL     1       4.826  -2.009 -10.620  0.00  0.00    -0.050 C 
ATOM     30  C   UNL     1       5.964  -2.920 -11.087  0.00  0.00    +0.141 C 
ATOM     31  O   UNL     1       5.502  -4.274 -11.116  0.00  0.00    -0.383 OA
ATOM     32  C   UNL     1       5.015  -4.741  -9.855  0.00  0.00    +0.141 C 
ATOM     33  C   UNL     1       3.876  -3.832  -9.385  0.00  0.00    -0.050 C 
ATOM     34  H   UNL     1       5.124  -2.400  -8.639  0.00  0.00    -0.081 HD
ENDBRANCH  27  28
ENDBRANCH  26  27
ENDBRANCH  25  26
ENDBRANCH   9  25
TORSDOF 6
