REMARK  Name = CHEMBL575720
REMARK  7 active torsions:
REMARK  status: ('A' for Active; 'I' for Inactive)
REMARK    1  A    between atoms: C_1  and  C_2
REMARK    2  A    between atoms: C_4  and  O_15
REMARK    3  A    between atoms: C_5  and  C_9
REMARK    4  A    between atoms: C_7  and  C_8
REMARK    5  A    between atoms: O_15  and  C_16
REMARK    6  A    between atoms: N_22  and  C_23
REMARK    7  A    between atoms: C_28  and  N_29
REMARK                            x       y       z     vdW  Elec       q    Type
REMARK                         _______ _______ _______ _____ _____    ______ ____
ROOT
ATOM      1  C   UNL     1       0.859  -1.987  -3.453  0.00  0.00    +0.133 A 
ATOM      2  C   UNL     1       0.892  -2.672  -4.687  0.00  0.00    +0.064 A 
ATOM      3  C   UNL     1       0.769  -1.992  -5.844  0.00  0.00    +0.088 A 
ATOM      4  N   UNL     1       0.613  -0.638  -5.847  0.00  0.00    -0.346 N 
ATOM      5  C   UNL     1       0.576   0.065  -4.667  0.00  0.00    +0.135 A 
ATOM      6  C   UNL     1       0.696  -0.618  -3.444  0.00  0.00    +0.092 A 
ATOM      7  N   UNL     1       0.423   1.384  -4.682  0.00  0.00    -0.228 NA
ATOM      8  H   UNL     1       0.527  -0.167  -6.691  0.00  0.00    +0.167 HD
ENDROOT
BRANCH   7   9
ATOM      9  C   UNL     1       0.524   2.096  -3.520  0.00  0.00    +0.087 A 
ATOM     10  C   UNL     1       1.605   1.890  -2.661  0.00  0.00    +0.030 A 
ATOM     11  C   UNL     1       1.700   2.613  -1.489  0.00  0.00    +0.002 A 
ATOM     12  C   UNL     1       0.729   3.542  -1.162  0.00  0.00    +0.002 A 
ATOM     13  C   UNL     1      -0.348   3.757  -2.005  0.00  0.00    +0.025 A 
ATOM     14  C   UNL     1      -0.456   3.044  -3.187  0.00  0.00    +0.056 A 
BRANCH  14  15
ATOM     15  N   UNL     1      -1.542   3.263  -4.043  0.00  0.00    -0.324 N 
ATOM     16  C   UNL     1      -2.788   2.495  -3.898  0.00  0.00    +0.133 C 
ATOM     17  C   UNL     1      -3.962   3.480  -3.859  0.00  0.00    +0.178 C 
ATOM     18  O   UNL     1      -3.882   4.352  -4.989  0.00  0.00    -0.377 OA
ATOM     19  C   UNL     1      -2.709   5.169  -5.015  0.00  0.00    +0.178 C 
ATOM     20  C   UNL     1      -1.473   4.274  -5.110  0.00  0.00    +0.133 C 
ENDBRANCH  14  15
ENDBRANCH   7   9
BRANCH   1  21
ATOM     21  O   UNL     1       0.982  -2.669  -2.289  0.00  0.00    -0.454 OA
BRANCH  21  25
ATOM     22  C   UNL     1       5.662  -3.530  -3.438  0.00  0.00    +0.046 C 
ATOM     23  C   UNL     1       4.457  -3.702  -2.550  0.00  0.00    -0.026 A 
ATOM     24  C   UNL     1       3.261  -3.077  -2.865  0.00  0.00    +0.053 A 
ATOM     25  C   UNL     1       2.174  -3.262  -2.019  0.00  0.00    +0.156 A 
ATOM     26  C   UNL     1       2.327  -4.067  -0.886  0.00  0.00    +0.131 A 
ATOM     27  N   UNL     1       3.492  -4.645  -0.624  0.00  0.00    -0.246 NA
ATOM     28  C   UNL     1       4.534  -4.489  -1.414  0.00  0.00    +0.042 A 
ATOM     29  C   UNL     1       5.832  -5.174  -1.073  0.00  0.00    +0.066 C 
BRANCH  26  30
ATOM     30  C   UNL     1       1.179  -4.277   0.028  0.00  0.00    +0.093 A 
ATOM     31  C   UNL     1       1.129  -5.420   0.824  0.00  0.00    +0.030 A 
ATOM     32  C   UNL     1       0.051  -5.601   1.673  0.00  0.00    +0.004 A 
ATOM     33  C   UNL     1      -0.942  -4.632   1.699  0.00  0.00    +0.020 A 
ATOM     34  C   UNL     1      -0.828  -3.522   0.883  0.00  0.00    +0.111 A 
ATOM     35  N   UNL     1       0.211  -3.371   0.087  0.00  0.00    -0.253 NA
ENDBRANCH  26  30
ENDBRANCH  21  25
ENDBRANCH   1  21
TORSDOF 5
