REMARK  Name = CHEMBL585505
REMARK  9 active torsions:
REMARK  status: ('A' for Active; 'I' for Inactive)
REMARK    1  A    between atoms: C_1  and  C_2
REMARK    2  A    between atoms: C_6  and  C_8
REMARK    3  A    between atoms: C_9  and  C_17
REMARK    4  A    between atoms: C_12  and  C_14
REMARK    5  A    between atoms: C_14  and  C_15
REMARK    6  A    between atoms: C_14  and  C_16
REMARK    7  A    between atoms: C_21  and  C_23
REMARK    8  A    between atoms: C_26  and  C_29
REMARK    9  A    between atoms: N_31  and  C_32
REMARK                            x       y       z     vdW  Elec       q    Type
REMARK                         _______ _______ _______ _____ _____    ______ ____
ROOT
ATOM      1  C   UNL     1       1.101  -0.838   3.914  0.00  0.00    +0.006 A 
ATOM      2  C   UNL     1       1.879  -0.219   2.928  0.00  0.00    +0.030 A 
ATOM      3  C   UNL     1       2.405   1.033   3.173  0.00  0.00    +0.112 A 
ATOM      4  N   UNL     1       2.186   1.651   4.316  0.00  0.00    -0.255 NA
ATOM      5  C   UNL     1       1.455   1.104   5.281  0.00  0.00    +0.072 A 
ATOM      6  C   UNL     1       0.884  -0.153   5.112  0.00  0.00    +0.038 A 
ENDROOT
BRANCH   1   8
ATOM      7  C   UNL     1       0.051  -2.682   2.487  0.00  0.00    +0.092 A 
ATOM      8  C   UNL     1       0.518  -2.181   3.690  0.00  0.00    +0.098 A 
ATOM      9  N   UNL     1       0.345  -3.139   4.618  0.00  0.00    -0.232 NA
ATOM     10  H   UNL     1      -0.791  -4.569   2.111  0.00  0.00    +0.167 HD
ATOM     11  C   UNL     1      -0.195  -4.190   4.065  0.00  0.00    +0.111 A 
ATOM     12  N   UNL     1      -0.400  -3.954   2.751  0.00  0.00    -0.340 N 
BRANCH   7  18
ATOM     13  C   UNL     1      -0.018   1.503   0.010  0.00  0.00    +0.065 C 
ATOM     14  C   UNL     1       0.002  -0.004   0.002  0.00  0.00    +0.039 A 
ATOM     15  C   UNL     1       0.006  -0.679  -1.205  0.00  0.00    +0.023 A 
ATOM     16  C   UNL     1       0.025  -2.067  -1.210  0.00  0.00    +0.004 A 
ATOM     17  C   UNL     1       0.040  -2.732   0.003  0.00  0.00    +0.030 A 
ATOM     18  C   UNL     1       0.035  -1.988   1.184  0.00  0.00    +0.090 A 
ATOM     19  N   UNL     1       0.022  -0.659   1.144  0.00  0.00    -0.250 NA
ENDBRANCH   7  18
BRANCH  11  20
ATOM     20  C   UNL     1      -0.542  -5.468   4.782  0.00  0.00    +0.049 C 
ATOM     21  C   UNL     1      -2.011  -5.432   5.209  0.00  0.00    +0.015 C 
ATOM     22  C   UNL     1      -0.312  -6.657   3.847  0.00  0.00    +0.015 C 
ENDBRANCH  11  20
ENDBRANCH   1   8
BRANCH   5  23
ATOM     23  C   UNL     1       1.240   1.844   6.548  0.00  0.00    +0.000 A 
ATOM     24  C   UNL     1       0.478   1.273   7.567  0.00  0.00    +0.011 A 
ATOM     25  C   UNL     1       0.279   1.959   8.745  0.00  0.00    +0.014 A 
ATOM     26  C   UNL     1       0.840   3.226   8.918  0.00  0.00    +0.037 A 
ATOM     27  C   UNL     1       1.603   3.797   7.897  0.00  0.00    +0.014 A 
ATOM     28  C   UNL     1       1.806   3.107   6.722  0.00  0.00    +0.011 A 
BRANCH  26  29
ATOM     29  C   UNL     1       0.626   3.963  10.181  0.00  0.00    +0.244 C 
ATOM     30  O   UNL     1      -0.038   3.466  11.070  0.00  0.00    -0.270 OA
ATOM     31  N   UNL     1       1.168   5.186  10.348  0.00  0.00    -0.308 N 
ATOM     32  H   UNL     1       1.698   5.582   9.639  0.00  0.00    +0.149 HD
BRANCH  31  33
ATOM     33  C   UNL     1       0.956   5.917  11.600  0.00  0.00    +0.078 C 
ATOM     34  C   UNL     1      -0.367   6.686  11.527  0.00  0.00    +0.050 C 
ATOM     35  C   UNL     1      -0.541   7.507  12.807  0.00  0.00    +0.161 C 
ATOM     36  O   UNL     1       0.572   8.390  12.960  0.00  0.00    -0.380 OA
ATOM     37  C   UNL     1       1.831   7.724  13.082  0.00  0.00    +0.161 C 
ATOM     38  C   UNL     1       2.101   6.911  11.813  0.00  0.00    +0.050 C 
ENDBRANCH  31  33
ENDBRANCH  26  29
ENDBRANCH   5  23
TORSDOF 6
