REMARK  Name = CHEMBL183354
REMARK  2 active torsions:
REMARK  status: ('A' for Active; 'I' for Inactive)
REMARK    1  A    between atoms: C_5  and  C_7
REMARK    2  A    between atoms: C_8  and  C_13
REMARK                            x       y       z     vdW  Elec       q    Type
REMARK                         _______ _______ _______ _____ _____    ______ ____
ROOT
ATOM      1  C   UNL     1       1.270  -2.142  -0.022  0.00  0.00    +0.093 A 
ATOM      2  C   UNL     1       2.299  -2.940  -0.508  0.00  0.00    +0.047 A 
ATOM      3  C   UNL     1       1.914  -4.279  -0.315  0.00  0.00    +0.144 A 
ATOM      4  N   UNL     1       0.736  -4.296   0.248  0.00  0.00    -0.181 NA
ATOM      5  H   UNL     1      -0.533  -2.711   0.856  0.00  0.00    +0.189 HD
ATOM      6  N   UNL     1       0.306  -2.980   0.451  0.00  0.00    -0.275 N 
ENDROOT
BRANCH   2   7
ATOM      7  C   UNL     1       3.563  -2.468  -1.116  0.00  0.00    +0.075 A 
ATOM      8  C   UNL     1       4.504  -3.410  -1.566  0.00  0.00    +0.030 A 
ATOM      9  C   UNL     1       5.671  -2.989  -2.127  0.00  0.00    +0.032 A 
ATOM     10  C   UNL     1       5.900  -1.601  -2.240  0.00  0.00    +0.089 A 
ATOM     11  C   UNL     1       4.910  -0.704  -1.767  0.00  0.00    +0.090 A 
ATOM     12  N   UNL     1       3.781  -1.171  -1.230  0.00  0.00    -0.245 NA
ATOM     13  C   UNL     1       5.142   0.681  -1.882  0.00  0.00    +0.031 A 
ATOM     14  C   UNL     1       6.315   1.096  -2.446  0.00  0.00    +0.022 A 
ATOM     15  C   UNL     1       7.244   0.157  -2.889  0.00  0.00    +0.111 A 
ATOM     16  N   UNL     1       7.025  -1.131  -2.782  0.00  0.00    -0.253 NA
ENDBRANCH   2   7
BRANCH   1  21
ATOM     17  C   UNL     1      -0.017   1.379   0.010  0.00  0.00    +0.004 A 
ATOM     18  C   UNL     1       1.194   2.059   0.002  0.00  0.00    +0.020 A 
ATOM     19  C   UNL     1       2.376   1.341  -0.013  0.00  0.00    +0.111 A 
ATOM     20  N   UNL     1       2.368   0.024  -0.020  0.00  0.00    -0.253 NA
ATOM     21  C   UNL     1       1.232  -0.665  -0.013  0.00  0.00    +0.089 A 
ATOM     22  C   UNL     1       0.002  -0.004   0.002  0.00  0.00    +0.030 A 
ENDBRANCH   1  21
TORSDOF 2
