REMARK  Name = CHEMBL571452
REMARK  3 active torsions:
REMARK  status: ('A' for Active; 'I' for Inactive)
REMARK    1  A    between atoms: C_1  and  C_2
REMARK    2  A    between atoms: C_6  and  C_8
REMARK    3  A    between atoms: C_16  and  N_18
REMARK                            x       y       z     vdW  Elec       q    Type
REMARK                         _______ _______ _______ _____ _____    ______ ____
ROOT
ATOM      1  C   UNL     1       0.056  -2.682   2.495  0.00  0.00    +0.181 A 
ATOM      2  N   UNL     1       0.084  -4.001   2.511  0.00  0.00    -0.226 NA
ATOM      3  C   UNL     1       0.101  -4.665   3.673  0.00  0.00    +0.077 A 
ATOM      4  C   UNL     1       0.131  -6.066   3.727  0.00  0.00    +0.028 A 
ATOM      5  C   UNL     1       0.147  -6.694   4.937  0.00  0.00    +0.002 A 
ATOM      6  C   UNL     1       0.134  -5.965   6.123  0.00  0.00    +0.001 A 
ATOM      7  C   UNL     1       0.104  -4.601   6.107  0.00  0.00    +0.013 A 
ATOM      8  C   UNL     1       0.087  -3.926   4.882  0.00  0.00    +0.041 A 
ATOM      9  C   UNL     1       0.057  -2.511   4.805  0.00  0.00    +0.136 A 
ATOM     10  N   UNL     1       0.048  -1.949   3.606  0.00  0.00    -0.210 NA
ENDROOT
BRANCH   9  11
ATOM     11  N   UNL     1       0.042  -1.739   5.950  0.00  0.00    -0.284 N 
ATOM     12  C   UNL     1       0.122  -0.357   5.856  0.00  0.00    +0.127 A 
ATOM     13  C   UNL     1       0.217   0.428   7.007  0.00  0.00    +0.063 A 
ATOM     14  C   UNL     1       0.294   1.799   6.861  0.00  0.00    +0.116 A 
ATOM     15  N   UNL     1       0.277   2.322   5.643  0.00  0.00    -0.244 NA
ATOM     16  C   UNL     1       0.187   1.553   4.576  0.00  0.00    +0.223 A 
ATOM     17  N   UNL     1       0.116   0.241   4.669  0.00  0.00    -0.221 NA
ATOM     18  H   UNL     1      -0.024  -2.163   6.820  0.00  0.00    +0.155 HD
ENDBRANCH   9  11
BRANCH   1  24
ATOM     19  C   UNL     1      -0.026   1.501   0.010  0.00  0.00    +0.065 C 
ATOM     20  C   UNL     1      -0.000  -0.005   0.002  0.00  0.00    +0.039 A 
ATOM     21  C   UNL     1       0.006  -0.682  -1.206  0.00  0.00    +0.023 A 
ATOM     22  C   UNL     1       0.030  -2.068  -1.208  0.00  0.00    +0.004 A 
ATOM     23  C   UNL     1       0.047  -2.731   0.008  0.00  0.00    +0.031 A 
ATOM     24  C   UNL     1       0.039  -1.987   1.184  0.00  0.00    +0.108 A 
ATOM     25  N   UNL     1       0.021  -0.661   1.143  0.00  0.00    -0.249 NA
ENDBRANCH   1  24
TORSDOF 2
