REMARK  Name = CHEMBL565644
REMARK  8 active torsions:
REMARK  status: ('A' for Active; 'I' for Inactive)
REMARK    1  A    between atoms: C_1  and  N_2
REMARK    2  A    between atoms: N_2  and  C_3
REMARK    3  A    between atoms: N_2  and  C_4
REMARK    4  A    between atoms: C_4  and  C_5
REMARK    5  A    between atoms: C_5  and  C_6
REMARK    6  A    between atoms: C_6  and  N_7
REMARK    7  A    between atoms: C_14  and  C_16
REMARK    8  A    between atoms: C_20  and  C_21
REMARK                            x       y       z     vdW  Elec       q    Type
REMARK                         _______ _______ _______ _____ _____    ______ ____
ROOT
ATOM      1  N   UNL     1      -0.082  -0.239   4.890  0.00  0.00    -0.330 N 
ATOM      2  C   UNL     1       0.120   0.866   5.657  0.00  0.00    +0.200 A 
ATOM      3  N   UNL     1      -0.724   0.883   6.647  0.00  0.00    -0.236 NA
ATOM      4  C   UNL     1      -1.526  -0.211   6.583  0.00  0.00    +0.090 A 
ATOM      5  C   UNL     1      -1.129  -0.944   5.451  0.00  0.00    +0.069 A 
ATOM      6  C   UNL     1      -1.780  -2.126   5.122  0.00  0.00    +0.028 A 
ATOM      7  C   UNL     1      -2.812  -2.578   5.896  0.00  0.00    +0.011 A 
ATOM      8  C   UNL     1      -3.221  -1.859   7.023  0.00  0.00    -0.012 A 
ATOM      9  C   UNL     1      -2.577  -0.680   7.372  0.00  0.00    +0.038 A 
ENDROOT
BRANCH   8  10
ATOM     10  C   UNL     1      -4.342  -2.362   7.854  0.00  0.00    +0.032 A 
ATOM     11  C   UNL     1      -5.642  -2.495   7.460  0.00  0.00    +0.048 A 
ATOM     12  N   UNL     1      -6.344  -2.987   8.500  0.00  0.00    -0.267 N 
ATOM     13  N   UNL     1      -5.462  -3.164   9.579  0.00  0.00    -0.169 NA
ATOM     14  C   UNL     1      -4.259  -2.799   9.199  0.00  0.00    +0.119 A 
ATOM     15  C   UNL     1      -7.761  -3.165   8.141  0.00  0.00    +0.144 C 
ATOM     16  C   UNL     1      -7.976  -2.315   6.870  0.00  0.00    +0.029 C 
ATOM     17  C   UNL     1      -6.553  -2.281   6.270  0.00  0.00    +0.057 C 
BRANCH  14  18
ATOM     18  C   UNL     1      -3.033  -2.833  10.031  0.00  0.00    +0.091 A 
ATOM     19  C   UNL     1      -3.138  -2.778  11.420  0.00  0.00    +0.030 A 
ATOM     20  C   UNL     1      -1.984  -2.811  12.184  0.00  0.00    +0.004 A 
ATOM     21  C   UNL     1      -0.761  -2.898  11.533  0.00  0.00    +0.020 A 
ATOM     22  C   UNL     1      -0.730  -2.949  10.152  0.00  0.00    +0.111 A 
ATOM     23  N   UNL     1      -1.844  -2.921   9.448  0.00  0.00    -0.253 NA
ENDBRANCH  14  18
ENDBRANCH   8  10
BRANCH   1  24
ATOM     24  C   UNL     1       0.669  -0.610   3.687  0.00  0.00    +0.121 C 
BRANCH  24  25
ATOM     25  C   UNL     1      -0.071  -0.103   2.448  0.00  0.00    +0.003 C 
BRANCH  25  26
ATOM     26  C   UNL     1       0.713  -0.491   1.192  0.00  0.00    -0.078 C 
BRANCH  26  28
ATOM     27  C   UNL     1      -0.018   1.465   0.010  0.00  0.00    -0.097 C 
ATOM     28  N   UNL     1       0.002  -0.004   0.002  0.00  0.00    +0.376 N 
ATOM     29  C   UNL     1       0.690  -0.478  -1.207  0.00  0.00    -0.097 C 
ATOM     30  H   UNL     1      -0.945  -0.353   0.009  0.00  0.00    -0.083 HD
ENDBRANCH  26  28
ENDBRANCH  25  26
ENDBRANCH  24  25
ENDBRANCH   1  24
TORSDOF 6
