REMARK  Name = CHEMBL565422
REMARK  7 active torsions:
REMARK  status: ('A' for Active; 'I' for Inactive)
REMARK    1  A    between atoms: C_1  and  C_2
REMARK    2  A    between atoms: C_6  and  C_8
REMARK    3  A    between atoms: C_9  and  C_25
REMARK    4  A    between atoms: C_11  and  C_14
REMARK    5  A    between atoms: C_14  and  N_15
REMARK    6  A    between atoms: N_15  and  C_16
REMARK    7  A    between atoms: C_19  and  C_22
REMARK                            x       y       z     vdW  Elec       q    Type
REMARK                         _______ _______ _______ _____ _____    ______ ____
ROOT
ATOM      1  C   UNL     1      -0.038  -2.639   2.515  0.00  0.00    +0.093 A 
ATOM      2  C   UNL     1       0.599  -2.217   3.670  0.00  0.00    +0.098 A 
ATOM      3  N   UNL     1       0.479  -3.203   4.577  0.00  0.00    -0.230 NA
ATOM      4  C   UNL     1      -0.186  -4.197   4.058  0.00  0.00    +0.125 A 
ATOM      5  N   UNL     1      -0.532  -3.894   2.788  0.00  0.00    -0.339 N 
ATOM      6  H   UNL     1      -1.035  -4.459   2.180  0.00  0.00    +0.167 HD
ENDROOT
BRANCH   2   7
ATOM      7  C   UNL     1       1.285  -0.920   3.869  0.00  0.00    -0.000 C 
ATOM      8  C   UNL     1       2.334  -0.580   3.089  0.00  0.00    +0.004 C 
ATOM      9  C   UNL     1       3.002   0.742   3.344  0.00  0.00    +0.106 C 
ATOM     10  C   UNL     1       3.060   0.979   4.856  0.00  0.00    +0.148 C 
ATOM     11  C   UNL     1       1.666   0.925   5.412  0.00  0.00    +0.002 C 
ATOM     12  C   UNL     1       0.822   0.015   4.919  0.00  0.00    +0.008 C 
ATOM     13  N   UNL     1       3.736   2.238   5.120  0.00  0.00    -0.285 NA
ATOM     14  C   UNL     1       4.547   2.752   4.289  0.00  0.00    +0.093 C 
ATOM     15  C   UNL     1       4.889   2.163   2.953  0.00  0.00    +0.128 C 
ATOM     16  N   UNL     1       4.373   0.790   2.827  0.00  0.00    -0.303 NA
ATOM     17  H   UNL     1       4.966   0.134   3.313  0.00  0.00    +0.123 HD
ENDBRANCH   2   7
BRANCH   1  23
ATOM     18  C   UNL     1      -0.180   1.644   0.218  0.00  0.00    +0.065 C 
ATOM     19  C   UNL     1      -0.235   0.140   0.152  0.00  0.00    +0.039 A 
ATOM     20  C   UNL     1      -0.400  -0.484  -1.071  0.00  0.00    +0.023 A 
ATOM     21  C   UNL     1      -0.450  -1.870  -1.129  0.00  0.00    +0.004 A 
ATOM     22  C   UNL     1      -0.331  -2.586   0.049  0.00  0.00    +0.030 A 
ATOM     23  C   UNL     1      -0.166  -1.892   1.250  0.00  0.00    +0.090 A 
ATOM     24  N   UNL     1      -0.119  -0.563   1.260  0.00  0.00    -0.250 NA
ENDBRANCH   1  23
BRANCH   4  25
ATOM     25  C   UNL     1      -0.523  -5.483   4.767  0.00  0.00    +0.175 C 
BRANCH  25  26
ATOM     26  N   UNL     1       0.602  -6.414   4.650  0.00  0.00    -0.337 N 
ATOM     27  H   UNL     1       1.401  -6.151   4.168  0.00  0.00    +0.147 HD
BRANCH  26  28
ATOM     28  C   UNL     1       0.524  -7.676   5.230  0.00  0.00    +0.027 A 
ATOM     29  C   UNL     1      -0.627  -8.054   5.916  0.00  0.00    +0.023 A 
ATOM     30  C   UNL     1      -0.707  -9.302   6.491  0.00  0.00    +0.015 A 
ATOM     31  C   UNL     1       0.368 -10.190   6.385  0.00  0.00    +0.037 A 
ATOM     32  C   UNL     1       1.521  -9.806   5.695  0.00  0.00    +0.015 A 
ATOM     33  C   UNL     1       1.593  -8.559   5.117  0.00  0.00    +0.023 A 
BRANCH  31  34
ATOM     34  C   UNL     1       0.285 -11.528   7.001  0.00  0.00    +0.242 C 
ATOM     35  O   UNL     1      -0.719 -11.859   7.601  0.00  0.00    -0.270 OA
ATOM     36  N   UNL     1       1.322 -12.382   6.898  0.00  0.00    -0.325 N 
ATOM     37  H   UNL     1       2.123 -12.117   6.419  0.00  0.00    +0.145 HD
ATOM     38  H   UNL     1       1.267 -13.262   7.302  0.00  0.00    +0.145 HD
ENDBRANCH  31  34
ENDBRANCH  26  28
ENDBRANCH  25  26
ENDBRANCH   4  25
TORSDOF 6
