REMARK  Name = CHEMBL1165374
REMARK  6 active torsions:
REMARK  status: ('A' for Active; 'I' for Inactive)
REMARK    1  A    between atoms: C_1  and  C_2
REMARK    2  A    between atoms: C_6  and  C_8
REMARK    3  A    between atoms: C_9  and  C_23
REMARK    4  A    between atoms: C_11  and  C_14
REMARK    5  A    between atoms: C_14  and  C_15
REMARK    6  A    between atoms: C_19  and  C_21
REMARK                            x       y       z     vdW  Elec       q    Type
REMARK                         _______ _______ _______ _____ _____    ______ ____
ROOT
ATOM      1  C   UNL     1       0.051  -2.682   2.486  0.00  0.00    +0.092 A 
ATOM      2  C   UNL     1       0.512  -2.179   3.691  0.00  0.00    +0.098 A 
ATOM      3  N   UNL     1       0.341  -3.139   4.618  0.00  0.00    -0.231 NA
ATOM      4  C   UNL     1      -0.193  -4.192   4.064  0.00  0.00    +0.113 A 
ATOM      5  N   UNL     1      -0.396  -3.957   2.750  0.00  0.00    -0.340 N 
ATOM      6  H   UNL     1      -0.783  -4.574   2.109  0.00  0.00    +0.167 HD
ENDROOT
BRANCH   2   7
ATOM      7  C   UNL     1       1.089  -0.834   3.917  0.00  0.00    +0.003 A 
ATOM      8  C   UNL     1       1.866  -0.230   2.914  0.00  0.00    +0.012 A 
ATOM      9  C   UNL     1       2.406   1.002   3.096  0.00  0.00    +0.029 A 
ATOM     10  C   UNL     1       2.190   1.696   4.301  0.00  0.00    +0.071 A 
ATOM     11  C   UNL     1       1.407   1.095   5.319  0.00  0.00    +0.001 A 
ATOM     12  C   UNL     1       0.853  -0.177   5.112  0.00  0.00    +0.020 A 
ATOM     13  C   UNL     1       1.196   1.795   6.522  0.00  0.00    +0.011 A 
ATOM     14  C   UNL     1       1.761   3.032   6.655  0.00  0.00    +0.020 A 
ATOM     15  C   UNL     1       2.520   3.565   5.616  0.00  0.00    +0.111 A 
ATOM     16  N   UNL     1       2.713   2.910   4.497  0.00  0.00    -0.255 NA
ENDBRANCH   2   7
BRANCH   1  22
ATOM     17  C   UNL     1      -0.018   1.503   0.010  0.00  0.00    +0.065 C 
ATOM     18  C   UNL     1       0.002  -0.004   0.002  0.00  0.00    +0.039 A 
ATOM     19  C   UNL     1       0.006  -0.679  -1.205  0.00  0.00    +0.023 A 
ATOM     20  C   UNL     1       0.025  -2.067  -1.210  0.00  0.00    +0.004 A 
ATOM     21  C   UNL     1       0.040  -2.733   0.003  0.00  0.00    +0.030 A 
ATOM     22  C   UNL     1       0.035  -1.988   1.184  0.00  0.00    +0.090 A 
ATOM     23  N   UNL     1       0.022  -0.659   1.144  0.00  0.00    -0.250 NA
ENDBRANCH   1  22
BRANCH   4  24
ATOM     24  C   UNL     1      -0.535  -5.472   4.781  0.00  0.00    +0.109 C 
BRANCH  24  25
ATOM     25  C   UNL     1       0.690  -5.997   5.484  0.00  0.00    -0.039 A 
ATOM     26  C   UNL     1       1.547  -6.860   4.825  0.00  0.00    +0.004 A 
ATOM     27  C   UNL     1       2.674  -7.347   5.463  0.00  0.00    +0.002 A 
ATOM     28  C   UNL     1       2.950  -6.974   6.762  0.00  0.00    +0.019 A 
ATOM     29  C   UNL     1       2.090  -6.104   7.433  0.00  0.00    +0.052 A 
ATOM     30  C   UNL     1       0.956  -5.612   6.781  0.00  0.00    +0.023 A 
BRANCH  29  31
ATOM     31  C   UNL     1       2.370  -5.712   8.782  0.00  0.00    +0.099 C 
ATOM     32  N   UNL     1       2.592  -5.402   9.851  0.00  0.00    -0.191 NA
ENDBRANCH  29  31
ENDBRANCH  24  25
ENDBRANCH   4  24
TORSDOF 5
