REMARK  Name = CHEMBL130025
REMARK  2 active torsions:
REMARK  status: ('A' for Active; 'I' for Inactive)
REMARK    1  A    between atoms: C_7  and  C_11
REMARK    2  A    between atoms: C_16  and  C_17
REMARK                            x       y       z     vdW  Elec       q    Type
REMARK                         _______ _______ _______ _____ _____    ______ ____
ROOT
ATOM      1  C   UNL     1       0.061  -2.916  -0.013  0.00  0.00    +0.028 A 
ATOM      2  C   UNL     1      -0.360  -3.782   1.014  0.00  0.00    +0.143 A 
ATOM      3  N   UNL     1      -1.492  -4.328   0.660  0.00  0.00    -0.181 NA
ATOM      4  H   UNL     1      -2.660  -4.095  -1.093  0.00  0.00    +0.189 HD
ATOM      5  N   UNL     1      -1.861  -3.848  -0.602  0.00  0.00    -0.276 N 
ATOM      6  C   UNL     1      -0.905  -2.970  -1.018  0.00  0.00    +0.080 A 
ENDROOT
BRANCH   1  13
ATOM      7  C   UNL     1      -0.016   1.359   0.009  0.00  0.00    +0.001 A 
ATOM      8  C   UNL     1       1.170   2.088   0.002  0.00  0.00    +0.002 A 
ATOM      9  C   UNL     1       2.379   1.462  -0.013  0.00  0.00    +0.028 A 
ATOM     10  C   UNL     1       2.436   0.057  -0.021  0.00  0.00    +0.072 A 
ATOM     11  C   UNL     1       1.228  -0.680  -0.013  0.00  0.00    +0.008 A 
ATOM     12  C   UNL     1       0.002  -0.004   0.002  0.00  0.00    +0.010 A 
ATOM     13  C   UNL     1       1.291  -2.098  -0.021  0.00  0.00    -0.004 A 
ATOM     14  C   UNL     1       2.549  -2.692  -0.037  0.00  0.00    +0.029 A 
ATOM     15  C   UNL     1       3.684  -1.894  -0.044  0.00  0.00    +0.112 A 
ATOM     16  N   UNL     1       3.611  -0.583  -0.036  0.00  0.00    -0.255 NA
ENDBRANCH   1  13
BRANCH   6  17
ATOM     17  C   UNL     1      -0.892  -2.225  -2.285  0.00  0.00    +0.038 A 
ATOM     18  C   UNL     1      -1.173  -2.674  -3.563  0.00  0.00    +0.017 A 
ATOM     19  C   UNL     1      -1.093  -1.776  -4.603  0.00  0.00    +0.008 A 
ATOM     20  C   UNL     1      -0.744  -0.489  -4.345  0.00  0.00    +0.046 A 
ATOM     21  S   UNL     1      -0.519  -0.503  -2.575  0.00  0.00    -0.095 S 
ENDBRANCH   6  17
TORSDOF 2
