REMARK  Name = CHEMBL226734
REMARK  6 active torsions:
REMARK  status: ('A' for Active; 'I' for Inactive)
REMARK    1  A    between atoms: C_1  and  C_2
REMARK    2  A    between atoms: C_6  and  C_8
REMARK    3  A    between atoms: C_9  and  C_24
REMARK    4  A    between atoms: N_14  and  C_15
REMARK    5  A    between atoms: C_15  and  C_16
REMARK    6  A    between atoms: C_20  and  C_22
REMARK                            x       y       z     vdW  Elec       q    Type
REMARK                         _______ _______ _______ _____ _____    ______ ____
ROOT
ATOM      1  C   UNL     1       0.050  -2.682   2.485  0.00  0.00    +0.092 A 
ATOM      2  C   UNL     1       0.511  -2.180   3.687  0.00  0.00    +0.075 A 
ATOM      3  N   UNL     1       0.342  -3.135   4.620  0.00  0.00    -0.327 N 
ATOM      4  C   UNL     1      -0.195  -4.199   4.071  0.00  0.00    +0.172 A 
ATOM      5  N   UNL     1      -0.401  -3.965   2.747  0.00  0.00    -0.326 N 
ATOM      6  H   UNL     1      -0.788  -4.582   2.107  0.00  0.00    +0.169 HD
ATOM      7  N   UNL     1      -0.507  -5.369   4.734  0.00  0.00    -0.312 N 
ATOM      8  H   UNL     1      -0.330  -5.451   5.685  0.00  0.00    +0.149 HD
ATOM      9  H   UNL     1       0.582  -3.050   5.557  0.00  0.00    +0.169 HD
ENDROOT
BRANCH   2  10
ATOM     10  C   UNL     1       1.087  -0.833   3.908  0.00  0.00    +0.004 A 
ATOM     11  C   UNL     1       2.023  -0.318   3.011  0.00  0.00    +0.014 A 
ATOM     12  C   UNL     1       2.559   0.936   3.219  0.00  0.00    +0.050 A 
ATOM     13  C   UNL     1       2.170   1.689   4.317  0.00  0.00    +0.166 A 
ATOM     14  C   UNL     1       1.234   1.179   5.216  0.00  0.00    +0.167 A 
ATOM     15  C   UNL     1       0.691  -0.076   5.010  0.00  0.00    +0.059 A 
ATOM     16  O   UNL     1       1.024   2.104   6.197  0.00  0.00    -0.453 OA
ATOM     17  C   UNL     1       2.139   3.011   6.116  0.00  0.00    +0.466 C 
ATOM     18  O   UNL     1       2.544   2.933   4.737  0.00  0.00    -0.453 OA
ENDBRANCH   2  10
BRANCH   1  24
ATOM     19  C   UNL     1      -0.018   1.503   0.010  0.00  0.00    +0.065 C 
ATOM     20  C   UNL     1       0.002  -0.004   0.002  0.00  0.00    +0.039 A 
ATOM     21  C   UNL     1       0.005  -0.679  -1.204  0.00  0.00    +0.023 A 
ATOM     22  C   UNL     1       0.024  -2.068  -1.210  0.00  0.00    +0.004 A 
ATOM     23  C   UNL     1       0.039  -2.733   0.001  0.00  0.00    +0.030 A 
ATOM     24  C   UNL     1       0.035  -1.989   1.184  0.00  0.00    +0.089 A 
ATOM     25  N   UNL     1       0.022  -0.660   1.145  0.00  0.00    -0.250 NA
ENDBRANCH   1  24
BRANCH   7  26
ATOM     26  C   UNL     1      -1.106  -6.488   4.003  0.00  0.00    +0.139 C 
BRANCH  26  27
ATOM     27  C   UNL     1      -1.347  -7.636   4.949  0.00  0.00    -0.029 A 
ATOM     28  C   UNL     1      -0.362  -8.587   5.146  0.00  0.00    +0.005 A 
ATOM     29  C   UNL     1      -0.575  -9.644   6.013  0.00  0.00    +0.002 A 
ATOM     30  C   UNL     1      -1.773  -9.756   6.688  0.00  0.00    +0.019 A 
ATOM     31  C   UNL     1      -2.772  -8.800   6.494  0.00  0.00    +0.052 A 
ATOM     32  C   UNL     1      -2.548  -7.733   5.621  0.00  0.00    +0.024 A 
BRANCH  31  33
ATOM     33  C   UNL     1      -4.018  -8.910   7.191  0.00  0.00    +0.099 C 
ATOM     34  N   UNL     1      -5.006  -8.997   7.744  0.00  0.00    -0.191 NA
ENDBRANCH  31  33
ENDBRANCH  26  27
ENDBRANCH   7  26
TORSDOF 5
