REMARK  Name = CHEMBL609582
REMARK  4 active torsions:
REMARK  status: ('A' for Active; 'I' for Inactive)
REMARK    1  A    between atoms: C_1  and  N_2
REMARK    2  A    between atoms: C_3  and  C_14
REMARK    3  A    between atoms: C_4  and  C_9
REMARK    4  A    between atoms: N_7  and  C_8
REMARK                            x       y       z     vdW  Elec       q    Type
REMARK                         _______ _______ _______ _____ _____    ______ ____
ROOT
ATOM      1  C   UNL     1      -0.188   1.420   0.416  0.00  0.00    +0.171 C 
ATOM      2  N   UNL     1      -0.074  -0.022   0.183  0.00  0.00    -0.283 N 
ATOM      3  C   UNL     1      -1.121  -0.868  -0.100  0.00  0.00    +0.078 A 
ATOM      4  C   UNL     1      -0.609  -2.145  -0.251  0.00  0.00    +0.076 A 
ATOM      5  C   UNL     1       0.838  -2.047  -0.044  0.00  0.00    +0.275 A 
ATOM      6  O   UNL     1       1.639  -2.963  -0.095  0.00  0.00    -0.266 OA
ATOM      7  N   UNL     1       1.118  -0.753   0.209  0.00  0.00    -0.252 N 
ATOM      8  C   UNL     1       2.450  -0.204   0.471  0.00  0.00    +0.174 C 
ENDROOT
BRANCH   3   9
ATOM      9  C   UNL     1      -2.539  -0.482  -0.220  0.00  0.00    +0.003 A 
ATOM     10  C   UNL     1      -2.897   0.626  -1.010  0.00  0.00    +0.012 A 
ATOM     11  C   UNL     1      -4.196   1.000  -1.136  0.00  0.00    +0.030 A 
ATOM     12  C   UNL     1      -5.205   0.278  -0.472  0.00  0.00    +0.089 A 
ATOM     13  C   UNL     1      -4.858  -0.842   0.327  0.00  0.00    +0.090 A 
ATOM     14  C   UNL     1      -3.511  -1.218   0.441  0.00  0.00    +0.040 A 
ATOM     15  N   UNL     1      -5.819  -1.528   0.957  0.00  0.00    -0.252 NA
ATOM     16  C   UNL     1      -7.073  -1.160   0.828  0.00  0.00    +0.131 A 
ATOM     17  C   UNL     1      -7.415  -0.058   0.041  0.00  0.00    +0.131 A 
ATOM     18  N   UNL     1      -6.489   0.632  -0.586  0.00  0.00    -0.252 NA
ENDBRANCH   3   9
BRANCH   4  19
ATOM     19  C   UNL     1      -1.377  -3.374  -0.563  0.00  0.00    +0.027 A 
ATOM     20  C   UNL     1      -1.553  -4.550   0.297  0.00  0.00    +0.050 A 
ATOM     21  C   UNL     1      -2.319  -5.407  -0.398  0.00  0.00    +0.195 A 
ATOM     22  O   UNL     1      -2.617  -4.862  -1.587  0.00  0.00    -0.470 OA
ATOM     23  C   UNL     1      -2.067  -3.643  -1.702  0.00  0.00    +0.203 A 
ENDBRANCH   4  19
TORSDOF 2
