REMARK  Name = CHEMBL565422
REMARK  7 active torsions:
REMARK  status: ('A' for Active; 'I' for Inactive)
REMARK    1  A    between atoms: C_1  and  C_2
REMARK    2  A    between atoms: C_6  and  C_8
REMARK    3  A    between atoms: C_9  and  C_24
REMARK    4  A    between atoms: C_11  and  C_13
REMARK    5  A    between atoms: C_13  and  N_14
REMARK    6  A    between atoms: N_14  and  C_15
REMARK    7  A    between atoms: C_18  and  C_21
REMARK                            x       y       z     vdW  Elec       q    Type
REMARK                         _______ _______ _______ _____ _____    ______ ____
ROOT
ATOM      1  C   UNL     1       0.051  -2.682   2.491  0.00  0.00    +0.115 A 
ATOM      2  C   UNL     1       0.516  -2.166   3.688  0.00  0.00    +0.075 A 
ATOM      3  N   UNL     1       0.336  -3.153   4.628  0.00  0.00    -0.340 N 
ATOM      4  C   UNL     1      -0.219  -4.217   3.995  0.00  0.00    +0.125 A 
ATOM      5  N   UNL     1      -0.390  -3.931   2.735  0.00  0.00    -0.229 NA
ATOM      6  H   UNL     1       0.565  -3.099   5.569  0.00  0.00    +0.167 HD
ENDROOT
BRANCH   2   7
ATOM      7  C   UNL     1       1.091  -0.824   3.911  0.00  0.00    -0.002 C 
ATOM      8  C   UNL     1       2.416  -0.675   4.073  0.00  0.00    +0.004 C 
ATOM      9  C   UNL     1       3.007   0.683   4.326  0.00  0.00    +0.106 C 
ATOM     10  C   UNL     1       2.205   1.770   3.624  0.00  0.00    +0.148 C 
ATOM     11  C   UNL     1       0.729   1.574   3.836  0.00  0.00    +0.002 C 
ATOM     12  C   UNL     1       0.212   0.363   3.950  0.00  0.00    +0.007 C 
ATOM     13  N   UNL     1       2.602   3.091   4.097  0.00  0.00    -0.285 NA
ATOM     14  C   UNL     1       3.278   3.292   5.147  0.00  0.00    +0.093 C 
ATOM     15  C   UNL     1       3.772   2.192   6.042  0.00  0.00    +0.128 C 
ATOM     16  N   UNL     1       3.029   0.954   5.772  0.00  0.00    -0.303 NA
ATOM     17  H   UNL     1       2.092   1.005   6.144  0.00  0.00    +0.123 HD
ENDBRANCH   2   7
BRANCH   1  23
ATOM     18  C   UNL     1      -0.018   1.503   0.010  0.00  0.00    +0.065 C 
ATOM     19  C   UNL     1       0.002  -0.004   0.002  0.00  0.00    +0.039 A 
ATOM     20  C   UNL     1       0.006  -0.679  -1.204  0.00  0.00    +0.023 A 
ATOM     21  C   UNL     1       0.025  -2.067  -1.209  0.00  0.00    +0.004 A 
ATOM     22  C   UNL     1       0.040  -2.732   0.005  0.00  0.00    +0.030 A 
ATOM     23  C   UNL     1       0.035  -1.987   1.185  0.00  0.00    +0.092 A 
ATOM     24  N   UNL     1       0.022  -0.660   1.145  0.00  0.00    -0.250 NA
ENDBRANCH   1  23
BRANCH   4  25
ATOM     25  C   UNL     1      -0.587  -5.524   4.649  0.00  0.00    +0.175 C 
BRANCH  25  26
ATOM     26  N   UNL     1      -2.001  -5.497   5.031  0.00  0.00    -0.337 N 
ATOM     27  H   UNL     1      -2.538  -4.711   4.848  0.00  0.00    +0.147 HD
BRANCH  26  28
ATOM     28  C   UNL     1      -2.573  -6.600   5.655  0.00  0.00    +0.027 A 
ATOM     29  C   UNL     1      -1.799  -7.726   5.922  0.00  0.00    +0.023 A 
ATOM     30  C   UNL     1      -2.362  -8.819   6.540  0.00  0.00    +0.015 A 
ATOM     31  C   UNL     1      -3.712  -8.798   6.900  0.00  0.00    +0.037 A 
ATOM     32  C   UNL     1      -4.487  -7.666   6.631  0.00  0.00    +0.015 A 
ATOM     33  C   UNL     1      -3.917  -6.574   6.018  0.00  0.00    +0.023 A 
BRANCH  31  34
ATOM     34  C   UNL     1      -4.319  -9.969   7.562  0.00  0.00    +0.242 C 
ATOM     35  O   UNL     1      -3.644 -10.953   7.795  0.00  0.00    -0.270 OA
ATOM     36  N   UNL     1      -5.622  -9.947   7.909  0.00  0.00    -0.325 N 
ATOM     37  H   UNL     1      -6.160  -9.162   7.723  0.00  0.00    +0.145 HD
ATOM     38  H   UNL     1      -6.021 -10.716   8.344  0.00  0.00    +0.145 HD
ENDBRANCH  31  34
ENDBRANCH  26  28
ENDBRANCH  25  26
ENDBRANCH   4  25
TORSDOF 6
