REMARK  Name = CHEMBL550483
REMARK  4 active torsions:
REMARK  status: ('A' for Active; 'I' for Inactive)
REMARK    1  A    between atoms: C_1  and  C_2
REMARK    2  A    between atoms: C_6  and  C_8
REMARK    3  A    between atoms: C_16  and  N_18
REMARK    4  A    between atoms: N_18  and  C_19
REMARK                            x       y       z     vdW  Elec       q    Type
REMARK                         _______ _______ _______ _____ _____    ______ ____
ROOT
ATOM      1  C   UNL     1       0.212  -2.692   2.502  0.00  0.00    +0.181 A 
ATOM      2  N   UNL     1       0.026  -3.998   2.508  0.00  0.00    -0.226 NA
ATOM      3  C   UNL     1      -0.167  -4.650   3.662  0.00  0.00    +0.077 A 
ATOM      4  C   UNL     1      -0.367  -6.037   3.705  0.00  0.00    +0.028 A 
ATOM      5  C   UNL     1      -0.559  -6.653   4.907  0.00  0.00    +0.002 A 
ATOM      6  C   UNL     1      -0.561  -5.925   6.093  0.00  0.00    +0.001 A 
ATOM      7  C   UNL     1      -0.371  -4.574   6.087  0.00  0.00    +0.013 A 
ATOM      8  C   UNL     1      -0.169  -3.912   4.872  0.00  0.00    +0.040 A 
ATOM      9  C   UNL     1       0.035  -2.511   4.804  0.00  0.00    +0.135 A 
ATOM     10  N   UNL     1       0.222  -1.960   3.614  0.00  0.00    -0.210 NA
ENDROOT
BRANCH   1  16
ATOM     11  C   UNL     1       1.022   1.436   0.055  0.00  0.00    +0.065 C 
ATOM     12  C   UNL     1       0.807  -0.055   0.036  0.00  0.00    +0.039 A 
ATOM     13  C   UNL     1       0.813  -0.731  -1.172  0.00  0.00    +0.023 A 
ATOM     14  C   UNL     1       0.615  -2.103  -1.184  0.00  0.00    +0.004 A 
ATOM     15  C   UNL     1       0.416  -2.753   0.023  0.00  0.00    +0.031 A 
ATOM     16  C   UNL     1       0.423  -2.010   1.201  0.00  0.00    +0.108 A 
ATOM     17  N   UNL     1       0.622  -0.699   1.170  0.00  0.00    -0.249 NA
ENDBRANCH   1  16
BRANCH   9  18
ATOM     18  N   UNL     1       0.043  -1.741   5.949  0.00  0.00    -0.299 N 
ATOM     19  H   UNL     1      -0.008  -2.166   6.819  0.00  0.00    +0.154 HD
BRANCH  18  20
ATOM     20  C   UNL     1       0.124  -0.347   5.854  0.00  0.00    +0.034 A 
ATOM     21  C   UNL     1       0.816   0.386   6.817  0.00  0.00    +0.025 A 
ATOM     22  C   UNL     1       0.910   1.740   6.749  0.00  0.00    +0.031 A 
ATOM     23  C   UNL     1       0.304   2.459   5.691  0.00  0.00    +0.078 A 
ATOM     24  C   UNL     1      -0.391   1.690   4.729  0.00  0.00    +0.041 A 
ATOM     25  C   UNL     1      -0.479   0.322   4.798  0.00  0.00    +0.040 A 
ATOM     26  S   UNL     1      -0.983   2.936   3.610  0.00  0.00    -0.075 S 
ATOM     27  C   UNL     1      -0.292   4.348   4.462  0.00  0.00    +0.157 A 
ATOM     28  N   UNL     1       0.305   3.793   5.481  0.00  0.00    -0.247 NA
ENDBRANCH  18  20
ENDBRANCH   9  18
TORSDOF 3
