REMARK  Name = CHEMBL406411
REMARK  8 active torsions:
REMARK  status: ('A' for Active; 'I' for Inactive)
REMARK    1  A    between atoms: C_1  and  N_2
REMARK    2  A    between atoms: C_6  and  C_7
REMARK    3  A    between atoms: C_7  and  C_8
REMARK    4  A    between atoms: C_8  and  C_9
REMARK    5  A    between atoms: C_9  and  O_10
REMARK    6  A    between atoms: O_10  and  C_11
REMARK    7  A    between atoms: C_15  and  C_21
REMARK    8  A    between atoms: C_25  and  C_26
REMARK                            x       y       z     vdW  Elec       q    Type
REMARK                         _______ _______ _______ _____ _____    ______ ____
ROOT
ATOM      1  C   UNL     1       3.645   4.895   1.763  0.00  0.00    +0.123 A 
ATOM      2  C   UNL     1       3.406   5.103   3.125  0.00  0.00    +0.046 A 
ATOM      3  C   UNL     1       3.915   6.193   3.761  0.00  0.00    +0.014 A 
ATOM      4  C   UNL     1       4.686   7.121   3.049  0.00  0.00    +0.008 A 
ATOM      5  C   UNL     1       5.231   8.267   3.683  0.00  0.00    -0.003 A 
ATOM      6  C   UNL     1       5.985   9.140   2.908  0.00  0.00    +0.029 A 
ATOM      7  C   UNL     1       6.180   8.870   1.561  0.00  0.00    +0.112 A 
ATOM      8  N   UNL     1       5.670   7.806   0.986  0.00  0.00    -0.255 NA
ATOM      9  C   UNL     1       4.934   6.921   1.669  0.00  0.00    +0.075 A 
ATOM     10  C   UNL     1       4.403   5.785   1.037  0.00  0.00    +0.074 A 
ENDROOT
BRANCH   5  11
ATOM     11  C   UNL     1       5.002   8.524   5.122  0.00  0.00    +0.033 A 
ATOM     12  C   UNL     1       5.786   8.104   6.162  0.00  0.00    +0.048 A 
ATOM     13  N   UNL     1       5.241   8.547   7.308  0.00  0.00    -0.267 N 
ATOM     14  N   UNL     1       4.072   9.268   7.011  0.00  0.00    -0.169 NA
ATOM     15  C   UNL     1       3.898   9.282   5.709  0.00  0.00    +0.119 A 
ATOM     16  C   UNL     1       6.049   8.132   8.469  0.00  0.00    +0.144 C 
ATOM     17  C   UNL     1       6.953   6.990   7.958  0.00  0.00    +0.029 C 
ATOM     18  C   UNL     1       7.047   7.316   6.450  0.00  0.00    +0.057 C 
BRANCH  15  19
ATOM     19  C   UNL     1       2.790   9.939   4.974  0.00  0.00    +0.091 A 
ATOM     20  C   UNL     1       1.575  10.169   5.617  0.00  0.00    +0.030 A 
ATOM     21  C   UNL     1       0.551  10.783   4.919  0.00  0.00    +0.004 A 
ATOM     22  C   UNL     1       0.775  11.147   3.598  0.00  0.00    +0.020 A 
ATOM     23  C   UNL     1       2.005  10.889   3.022  0.00  0.00    +0.111 A 
ATOM     24  N   UNL     1       2.966  10.307   3.712  0.00  0.00    -0.253 NA
ENDBRANCH  15  19
ENDBRANCH   5  11
BRANCH   1  25
ATOM     25  O   UNL     1       3.126   3.799   1.151  0.00  0.00    -0.492 OA
BRANCH  25  26
ATOM     26  C   UNL     1       2.348   2.912   1.957  0.00  0.00    +0.229 C 
BRANCH  26  27
ATOM     27  C   UNL     1       1.853   1.746   1.100  0.00  0.00    +0.039 C 
BRANCH  27  28
ATOM     28  C   UNL     1       1.019   0.796   1.964  0.00  0.00    -0.012 C 
BRANCH  28  34
ATOM     29  C   UNL     1      -0.481  -0.694   3.279  0.00  0.00    -0.096 C 
ATOM     30  N   UNL     1      -0.447  -1.177   1.892  0.00  0.00    +0.380 N 
ATOM     31  C   UNL     1       0.105  -2.548   1.857  0.00  0.00    -0.079 C 
ATOM     32  C   UNL     1       0.934  -2.607   0.549  0.00  0.00    -0.020 C 
ATOM     33  C   UNL     1       1.545  -1.182   0.501  0.00  0.00    -0.017 C 
ATOM     34  C   UNL     1       0.419  -0.301   1.082  0.00  0.00    -0.069 C 
ATOM     35  H   UNL     1      -1.381  -1.179   1.510  0.00  0.00    -0.082 HD
ENDBRANCH  28  34
ENDBRANCH  27  28
ENDBRANCH  26  27
ENDBRANCH  25  26
ENDBRANCH   1  25
TORSDOF 7
