REMARK  Name = CHEMBL450161
REMARK  6 active torsions:
REMARK  status: ('A' for Active; 'I' for Inactive)
REMARK    1  A    between atoms: C_1  and  C_2
REMARK    2  A    between atoms: C_6  and  C_8
REMARK    3  A    between atoms: C_9  and  C_18
REMARK    4  A    between atoms: C_12  and  N_14
REMARK    5  A    between atoms: N_14  and  C_15
REMARK    6  A    between atoms: C_15  and  C_17
REMARK                            x       y       z     vdW  Elec       q    Type
REMARK                         _______ _______ _______ _____ _____    ______ ____
ROOT
ATOM      1  C   UNL     1       0.050  -2.683   2.491  0.00  0.00    +0.117 A 
ATOM      2  C   UNL     1       0.515  -2.165   3.685  0.00  0.00    +0.078 A 
ATOM      3  N   UNL     1       0.337  -3.152   4.631  0.00  0.00    -0.324 N 
ATOM      4  H   UNL     1       0.566  -3.095   5.572  0.00  0.00    +0.169 HD
ATOM      5  C   UNL     1      -0.221  -4.221   3.999  0.00  0.00    +0.221 A 
ATOM      6  N   UNL     1      -0.392  -3.933   2.733  0.00  0.00    -0.211 NA
ENDROOT
BRANCH   2   7
ATOM      7  C   UNL     1       1.089  -0.822   3.904  0.00  0.00    +0.019 A 
ATOM      8  C   UNL     1       0.245   0.313   3.946  0.00  0.00    +0.015 A 
ATOM      9  C   UNL     1       0.786   1.542   4.148  0.00  0.00    +0.049 A 
ATOM     10  C   UNL     1       2.178   1.671   4.313  0.00  0.00    +0.156 A 
ATOM     11  N   UNL     1       2.966   2.721   4.521  0.00  0.00    -0.215 NA
ATOM     12  C   UNL     1       4.226   2.324   4.611  0.00  0.00    +0.246 A 
ATOM     13  N   UNL     1       4.289   1.021   4.465  0.00  0.00    -0.154 NA
ATOM     14  N   UNL     1       2.978   0.564   4.270  0.00  0.00    -0.220 N 
ATOM     15  C   UNL     1       2.446  -0.670   4.074  0.00  0.00    +0.124 A 
ENDBRANCH   2   7
BRANCH   1  21
ATOM     16  C   UNL     1      -0.018   1.503   0.010  0.00  0.00    +0.065 C 
ATOM     17  C   UNL     1       0.002  -0.004   0.002  0.00  0.00    +0.039 A 
ATOM     18  C   UNL     1       0.005  -0.679  -1.204  0.00  0.00    +0.023 A 
ATOM     19  C   UNL     1       0.024  -2.067  -1.209  0.00  0.00    +0.004 A 
ATOM     20  C   UNL     1       0.039  -2.732   0.004  0.00  0.00    +0.030 A 
ATOM     21  C   UNL     1       0.035  -1.988   1.185  0.00  0.00    +0.092 A 
ATOM     22  N   UNL     1       0.022  -0.660   1.145  0.00  0.00    -0.250 NA
ENDBRANCH   1  21
BRANCH   5  23
ATOM     23  N   UNL     1      -0.559  -5.424   4.602  0.00  0.00    -0.150 NA
BRANCH  23  24
ATOM     24  C   UNL     1      -1.107  -6.414   3.870  0.00  0.00    +0.176 C 
ATOM     25  O   UNL     1      -1.305  -6.254   2.684  0.00  0.00    -0.497 OA
ATOM     26  C   UNL     1      -1.474  -7.721   4.525  0.00  0.00    +0.106 C 
ATOM     27  H   UNL     1      -1.701  -7.019   2.244  0.00  0.00    +0.293 HD
ENDBRANCH  23  24
ENDBRANCH   5  23
TORSDOF 4
