REMARK  Name = CHEMBL574413
REMARK  8 active torsions:
REMARK  status: ('A' for Active; 'I' for Inactive)
REMARK    1  A    between atoms: C_1  and  C_2
REMARK    2  A    between atoms: C_4  and  O_15
REMARK    3  A    between atoms: C_5  and  C_9
REMARK    4  A    between atoms: C_7  and  C_8
REMARK    5  A    between atoms: O_15  and  C_16
REMARK    6  A    between atoms: C_20  and  N_22
REMARK    7  A    between atoms: N_22  and  C_23
REMARK    8  A    between atoms: C_27  and  N_29
REMARK                            x       y       z     vdW  Elec       q    Type
REMARK                         _______ _______ _______ _____ _____    ______ ____
ROOT
ATOM      1  C   UNL     1      -0.308  -2.227  -3.539  0.00  0.00    +0.133 A 
ATOM      2  C   UNL     1      -0.477  -0.848  -3.667  0.00  0.00    +0.066 A 
ATOM      3  C   UNL     1      -0.537  -0.291  -4.926  0.00  0.00    +0.116 A 
ATOM      4  N   UNL     1      -0.438  -1.043  -6.006  0.00  0.00    -0.240 NA
ATOM      5  C   UNL     1      -0.276  -2.357  -5.929  0.00  0.00    +0.126 A 
ATOM      6  C   UNL     1      -0.201  -2.989  -4.696  0.00  0.00    +0.090 A 
ENDROOT
BRANCH   5   7
ATOM      7  N   UNL     1      -0.177  -3.108  -7.096  0.00  0.00    -0.299 N 
ATOM      8  H   UNL     1      -0.135  -4.075  -7.048  0.00  0.00    +0.154 HD
BRANCH   7   9
ATOM      9  C   UNL     1      -0.138  -2.468  -8.338  0.00  0.00    +0.034 A 
ATOM     10  C   UNL     1       0.472  -1.225  -8.461  0.00  0.00    +0.023 A 
ATOM     11  C   UNL     1       0.511  -0.591  -9.688  0.00  0.00    +0.004 A 
ATOM     12  C   UNL     1      -0.055  -1.191 -10.797  0.00  0.00    +0.023 A 
ATOM     13  C   UNL     1      -0.666  -2.434 -10.681  0.00  0.00    +0.032 A 
ATOM     14  C   UNL     1      -0.702  -3.075  -9.450  0.00  0.00    +0.046 A 
BRANCH  13  15
ATOM     15  N   UNL     1      -1.238  -3.039 -11.802  0.00  0.00    -0.325 N 
ATOM     16  C   UNL     1      -2.002  -4.290 -11.680  0.00  0.00    +0.133 C 
ATOM     17  C   UNL     1      -3.348  -4.106 -12.389  0.00  0.00    +0.178 C 
ATOM     18  O   UNL     1      -3.119  -3.629 -13.717  0.00  0.00    -0.377 OA
ATOM     19  C   UNL     1      -2.485  -2.349 -13.778  0.00  0.00    +0.178 C 
ATOM     20  C   UNL     1      -1.100  -2.440 -13.139  0.00  0.00    +0.133 C 
ENDBRANCH  13  15
ENDBRANCH   7   9
ENDBRANCH   5   7
BRANCH   1  21
ATOM     21  O   UNL     1      -0.244  -2.809  -2.314  0.00  0.00    -0.454 OA
BRANCH  21  25
ATOM     22  C   UNL     1      -5.087  -2.210  -1.924  0.00  0.00    +0.046 C 
ATOM     23  C   UNL     1      -3.763  -2.714  -1.410  0.00  0.00    -0.026 A 
ATOM     24  C   UNL     1      -2.605  -2.507  -2.142  0.00  0.00    +0.053 A 
ATOM     25  C   UNL     1      -1.404  -2.988  -1.632  0.00  0.00    +0.156 A 
ATOM     26  C   UNL     1      -1.411  -3.660  -0.406  0.00  0.00    +0.131 A 
ATOM     27  N   UNL     1      -2.545  -3.835   0.259  0.00  0.00    -0.246 NA
ATOM     28  C   UNL     1      -3.693  -3.384  -0.201  0.00  0.00    +0.042 A 
ATOM     29  C   UNL     1      -4.951  -3.604   0.598  0.00  0.00    +0.066 C 
BRANCH  26  30
ATOM     30  C   UNL     1      -0.141  -4.181   0.155  0.00  0.00    +0.093 A 
ATOM     31  C   UNL     1      -0.020  -4.373   1.530  0.00  0.00    +0.030 A 
ATOM     32  C   UNL     1       1.172  -4.861   2.038  0.00  0.00    +0.004 A 
ATOM     33  C   UNL     1       2.204  -5.141   1.154  0.00  0.00    +0.020 A 
ATOM     34  C   UNL     1       2.015  -4.927  -0.199  0.00  0.00    +0.111 A 
ATOM     35  N   UNL     1       0.869  -4.467  -0.657  0.00  0.00    -0.253 NA
ENDBRANCH  26  30
ENDBRANCH  21  25
ENDBRANCH   1  21
TORSDOF 6
