REMARK  Name = CHEMBL593951
REMARK  4 active torsions:
REMARK  status: ('A' for Active; 'I' for Inactive)
REMARK    1  A    between atoms: C_1  and  N_2
REMARK    2  A    between atoms: C_3  and  C_14
REMARK    3  A    between atoms: C_4  and  C_9
REMARK    4  A    between atoms: N_7  and  C_8
REMARK                            x       y       z     vdW  Elec       q    Type
REMARK                         _______ _______ _______ _____ _____    ______ ____
ROOT
ATOM      1  C   UNL     1      -0.193   1.418   0.430  0.00  0.00    +0.171 C 
ATOM      2  N   UNL     1      -0.076  -0.023   0.190  0.00  0.00    -0.283 N 
ATOM      3  C   UNL     1      -1.123  -0.871  -0.093  0.00  0.00    +0.078 A 
ATOM      4  C   UNL     1      -0.608  -2.145  -0.254  0.00  0.00    +0.074 A 
ATOM      5  C   UNL     1       0.840  -2.045  -0.052  0.00  0.00    +0.275 A 
ATOM      6  O   UNL     1       1.643  -2.958  -0.112  0.00  0.00    -0.266 OA
ATOM      7  N   UNL     1       1.118  -0.751   0.206  0.00  0.00    -0.252 N 
ATOM      8  C   UNL     1       2.450  -0.200   0.465  0.00  0.00    +0.174 C 
ENDROOT
BRANCH   3   9
ATOM      9  C   UNL     1      -2.542  -0.489  -0.205  0.00  0.00    +0.003 A 
ATOM     10  C   UNL     1      -2.908   0.622  -0.990  0.00  0.00    +0.012 A 
ATOM     11  C   UNL     1      -4.207   0.992  -1.107  0.00  0.00    +0.030 A 
ATOM     12  C   UNL     1      -5.212   0.265  -0.441  0.00  0.00    +0.089 A 
ATOM     13  C   UNL     1      -4.857  -0.856   0.353  0.00  0.00    +0.090 A 
ATOM     14  C   UNL     1      -3.509  -1.229   0.459  0.00  0.00    +0.040 A 
ATOM     15  N   UNL     1      -5.813  -1.547   0.985  0.00  0.00    -0.252 NA
ATOM     16  C   UNL     1      -7.069  -1.182   0.865  0.00  0.00    +0.131 A 
ATOM     17  C   UNL     1      -7.418  -0.079   0.083  0.00  0.00    +0.131 A 
ATOM     18  N   UNL     1      -6.498   0.616  -0.547  0.00  0.00    -0.252 NA
ENDBRANCH   3   9
BRANCH   4  19
ATOM     19  C   UNL     1      -1.373  -3.375  -0.569  0.00  0.00    -0.004 A 
ATOM     20  C   UNL     1      -1.452  -4.419   0.349  0.00  0.00    +0.016 A 
ATOM     21  C   UNL     1      -2.161  -5.525   0.025  0.00  0.00    +0.046 A 
ATOM     22  S   UNL     1      -2.752  -5.130  -1.612  0.00  0.00    -0.104 S 
ATOM     23  C   UNL     1      -2.023  -3.508  -1.764  0.00  0.00    +0.054 A 
ENDBRANCH   4  19
TORSDOF 2
