REMARK  Name = CHEMBL480583
REMARK  5 active torsions:
REMARK  status: ('A' for Active; 'I' for Inactive)
REMARK    1  A    between atoms: C_1  and  C_2
REMARK    2  A    between atoms: C_6  and  C_8
REMARK    3  A    between atoms: C_9  and  C_24
REMARK    4  A    between atoms: N_17  and  S_20
REMARK    5  A    between atoms: S_20  and  C_23
REMARK                            x       y       z     vdW  Elec       q    Type
REMARK                         _______ _______ _______ _____ _____    ______ ____
ROOT
ATOM      1  C   UNL     1      -0.039  -2.638   2.515  0.00  0.00    +0.094 A 
ATOM      2  C   UNL     1       0.603  -2.219   3.664  0.00  0.00    +0.101 A 
ATOM      3  N   UNL     1       0.486  -3.200   4.579  0.00  0.00    -0.214 NA
ATOM      4  H   UNL     1      -1.049  -4.461   2.183  0.00  0.00    +0.169 HD
ATOM      5  C   UNL     1      -0.189  -4.202   4.067  0.00  0.00    +0.197 A 
ATOM      6  N   UNL     1      -0.542  -3.898   2.789  0.00  0.00    -0.324 N 
ATOM      7  N   UNL     1      -0.496  -5.377   4.724  0.00  0.00    -0.299 N 
ATOM      8  C   UNL     1      -1.256  -6.437   4.046  0.00  0.00    +0.125 C 
ATOM      9  C   UNL     1      -0.449  -7.740   4.117  0.00  0.00    +0.128 C 
ATOM     10  N   UNL     1      -0.023  -7.953   5.507  0.00  0.00    -0.178 NA
ATOM     11  C   UNL     1       0.736  -6.894   6.185  0.00  0.00    +0.128 C 
ATOM     12  C   UNL     1      -0.065  -5.593   6.113  0.00  0.00    +0.125 C 
ENDROOT
BRANCH   2  13
ATOM     13  C   UNL     1       1.296  -0.923   3.855  0.00  0.00    +0.021 A 
ATOM     14  C   UNL     1       2.388  -0.576   3.028  0.00  0.00    +0.015 A 
ATOM     15  C   UNL     1       3.016   0.615   3.213  0.00  0.00    +0.049 A 
ATOM     16  C   UNL     1       2.567   1.485   4.225  0.00  0.00    +0.156 A 
ATOM     17  N   UNL     1       2.974   2.684   4.628  0.00  0.00    -0.215 NA
ATOM     18  C   UNL     1       2.218   3.096   5.635  0.00  0.00    +0.246 A 
ATOM     19  N   UNL     1       1.312   2.187   5.908  0.00  0.00    -0.154 NA
ATOM     20  N   UNL     1       1.509   1.127   5.012  0.00  0.00    -0.220 N 
ATOM     21  C   UNL     1       0.877  -0.061   4.826  0.00  0.00    +0.124 A 
ENDBRANCH   2  13
BRANCH   1  27
ATOM     22  C   UNL     1      -0.172   1.648   0.223  0.00  0.00    +0.068 C 
ATOM     23  C   UNL     1      -0.233   0.144   0.156  0.00  0.00    +0.074 A 
ATOM     24  C   UNL     1      -0.406  -0.479  -1.068  0.00  0.00    +0.144 A 
ATOM     25  C   UNL     1      -0.462  -1.868  -1.126  0.00  0.00    +0.042 A 
ATOM     26  C   UNL     1      -0.342  -2.583   0.050  0.00  0.00    +0.033 A 
ATOM     27  C   UNL     1      -0.169  -1.890   1.252  0.00  0.00    +0.090 A 
ATOM     28  N   UNL     1      -0.116  -0.561   1.263  0.00  0.00    -0.247 NA
ATOM     29  F   UNL     1      -0.521   0.255  -2.196  0.00  0.00    -0.204 F 
ENDBRANCH   1  27
BRANCH  10  30
ATOM     30  S   UNL     1      -0.392  -9.362   6.295  0.00  0.00    +0.029 S 
ATOM     31  O   UNL     1      -0.409  -9.014   7.672  0.00  0.00    -0.158 OA
ATOM     32  O   UNL     1      -1.567  -9.839   5.653  0.00  0.00    -0.158 OA
ATOM     33  C   UNL     1       1.003 -10.469   5.948  0.00  0.00    +0.215 C 
ENDBRANCH  10  30
TORSDOF 3
