REMARK  Name = CHEMBL583549
REMARK  4 active torsions:
REMARK  status: ('A' for Active; 'I' for Inactive)
REMARK    1  A    between atoms: C_5  and  C_7
REMARK    2  A    between atoms: C_8  and  C_21
REMARK    3  A    between atoms: C_10  and  C_12
REMARK    4  A    between atoms: C_15  and  C_18
REMARK                            x       y       z     vdW  Elec       q    Type
REMARK                         _______ _______ _______ _____ _____    ______ ____
ROOT
ATOM      1  C   UNL     1       1.270  -2.143  -0.022  0.00  0.00    +0.115 A 
ATOM      2  C   UNL     1       2.309  -2.938  -0.508  0.00  0.00    +0.072 A 
ATOM      3  N   UNL     1       1.919  -4.243  -0.316  0.00  0.00    -0.338 N 
ATOM      4  C   UNL     1       0.681  -4.212   0.269  0.00  0.00    +0.139 A 
ATOM      5  N   UNL     1       0.315  -2.962   0.440  0.00  0.00    -0.226 NA
ATOM      6  H   UNL     1       2.426  -5.037  -0.550  0.00  0.00    +0.167 HD
ENDROOT
BRANCH   2   7
ATOM      7  C   UNL     1       3.523  -2.490  -1.084  0.00  0.00    -0.019 C 
ATOM      8  C   UNL     1       3.513  -1.993  -2.341  0.00  0.00    +0.009 C 
ATOM      9  C   UNL     1       4.709  -1.508  -2.936  0.00  0.00    +0.044 C 
ATOM     10  C   UNL     1       5.753  -1.262  -2.133  0.00  0.00    +0.130 C 
ATOM     11  C   UNL     1       5.686  -1.379  -0.614  0.00  0.00    +0.191 C 
ATOM     12  C   UNL     1       4.795  -2.572  -0.278  0.00  0.00    +0.077 C 
ATOM     13  O   UNL     1       7.062  -1.666  -0.274  0.00  0.00    -0.333 OA
ATOM     14  C   UNL     1       7.777  -0.836  -1.221  0.00  0.00    +0.395 C 
ATOM     15  O   UNL     1       7.008  -0.874  -2.438  0.00  0.00    -0.468 OA
ENDBRANCH   2   7
BRANCH   1  20
ATOM     16  C   UNL     1      -0.017   1.379   0.010  0.00  0.00    +0.004 A 
ATOM     17  C   UNL     1       1.194   2.059   0.002  0.00  0.00    +0.020 A 
ATOM     18  C   UNL     1       2.376   1.341  -0.013  0.00  0.00    +0.111 A 
ATOM     19  N   UNL     1       2.368   0.024  -0.021  0.00  0.00    -0.253 NA
ATOM     20  C   UNL     1       1.232  -0.665  -0.014  0.00  0.00    +0.091 A 
ATOM     21  C   UNL     1       0.002  -0.004   0.002  0.00  0.00    +0.030 A 
ENDBRANCH   1  20
BRANCH   4  22
ATOM     22  C   UNL     1      -0.113  -5.395   0.651  0.00  0.00    +0.017 A 
ATOM     23  C   UNL     1       0.394  -6.679   0.427  0.00  0.00    +0.012 A 
ATOM     24  C   UNL     1      -0.341  -7.774   0.781  0.00  0.00    +0.016 A 
ATOM     25  C   UNL     1      -1.601  -7.612   1.369  0.00  0.00    +0.063 A 
ATOM     26  C   UNL     1      -2.107  -6.326   1.594  0.00  0.00    +0.016 A 
ATOM     27  C   UNL     1      -1.369  -5.232   1.244  0.00  0.00    +0.012 A 
BRANCH  25  28
ATOM     28  C   UNL     1      -2.393  -8.793   1.751  0.00  0.00    +0.387 C 
ATOM     29  O   UNL     1      -1.951  -9.916   1.554  0.00  0.00    -0.241 OA
ATOM     30  O   UNL     1      -3.495  -8.650   2.265  0.00  0.00    -0.241 OA
ENDBRANCH  25  28
ENDBRANCH   4  22
TORSDOF 4
