REMARK  Name = CHEMBL517068
REMARK  6 active torsions:
REMARK  status: ('A' for Active; 'I' for Inactive)
REMARK    1  A    between atoms: C_1  and  C_2
REMARK    2  A    between atoms: C_6  and  C_8
REMARK    3  A    between atoms: C_9  and  C_17
REMARK    4  A    between atoms: C_11  and  N_13
REMARK    5  A    between atoms: N_13  and  C_14
REMARK    6  A    between atoms: C_14  and  C_16
REMARK                            x       y       z     vdW  Elec       q    Type
REMARK                         _______ _______ _______ _____ _____    ______ ____
ROOT
ATOM      1  C   UNL     1       0.564  -3.019   2.125  0.00  0.00    +0.094 A 
ATOM      2  C   UNL     1       1.423  -2.741   3.171  0.00  0.00    +0.101 A 
ATOM      3  N   UNL     1       1.108  -3.565   4.188  0.00  0.00    -0.212 NA
ATOM      4  C   UNL     1       0.108  -4.337   3.836  0.00  0.00    +0.221 A 
ATOM      5  N   UNL     1      -0.268  -4.031   2.565  0.00  0.00    -0.323 N 
ATOM      6  H   UNL     1      -0.986  -4.447   2.062  0.00  0.00    +0.169 HD
ENDROOT
BRANCH   2   7
ATOM      7  C   UNL     1       2.497  -1.720   3.174  0.00  0.00    +0.021 A 
ATOM      8  C   UNL     1       3.536  -1.783   2.218  0.00  0.00    +0.015 A 
ATOM      9  C   UNL     1       4.515  -0.841   2.230  0.00  0.00    +0.049 A 
ATOM     10  C   UNL     1       4.478   0.184   3.195  0.00  0.00    +0.156 A 
ATOM     11  N   UNL     1       5.277   1.216   3.444  0.00  0.00    -0.215 NA
ATOM     12  C   UNL     1       4.809   1.904   4.475  0.00  0.00    +0.246 A 
ATOM     13  N   UNL     1       3.708   1.343   4.916  0.00  0.00    -0.154 NA
ATOM     14  N   UNL     1       3.463   0.224   4.108  0.00  0.00    -0.220 N 
ATOM     15  C   UNL     1       2.480  -0.714   4.095  0.00  0.00    +0.124 A 
ENDBRANCH   2   7
BRANCH   1  21
ATOM     16  C   UNL     1       1.542   0.896  -0.587  0.00  0.00    +0.068 C 
ATOM     17  C   UNL     1       0.999  -0.506  -0.490  0.00  0.00    +0.074 A 
ATOM     18  C   UNL     1       0.500  -1.125  -1.623  0.00  0.00    +0.144 A 
ATOM     19  C   UNL     1      -0.000  -2.420  -1.530  0.00  0.00    +0.042 A 
ATOM     20  C   UNL     1       0.019  -3.047  -0.298  0.00  0.00    +0.033 A 
ATOM     21  C   UNL     1       0.537  -2.364   0.804  0.00  0.00    +0.090 A 
ATOM     22  N   UNL     1       1.011  -1.128   0.672  0.00  0.00    -0.247 NA
ATOM     23  F   UNL     1       0.498  -0.478  -2.809  0.00  0.00    -0.204 F 
ENDBRANCH   1  21
BRANCH   4  24
ATOM     24  N   UNL     1      -0.476  -5.307   4.635  0.00  0.00    -0.150 NA
BRANCH  24  25
ATOM     25  C   UNL     1      -0.151  -5.390   5.940  0.00  0.00    +0.176 C 
ATOM     26  O   UNL     1       0.477  -4.497   6.467  0.00  0.00    -0.497 OA
ATOM     27  C   UNL     1      -0.568  -6.594   6.745  0.00  0.00    +0.106 C 
ATOM     28  H   UNL     1       0.142  -3.611   6.269  0.00  0.00    +0.293 HD
ENDBRANCH  24  25
ENDBRANCH   4  24
TORSDOF 4
