REMARK  Name = CHEMBL261674
REMARK  8 active torsions:
REMARK  status: ('A' for Active; 'I' for Inactive)
REMARK    1  A    between atoms: C_1  and  N_2
REMARK    2  A    between atoms: N_5  and  C_8
REMARK    3  A    between atoms: C_8  and  C_9
REMARK    4  A    between atoms: C_9  and  C_10
REMARK    5  A    between atoms: C_10  and  O_11
REMARK    6  A    between atoms: O_11  and  C_12
REMARK    7  A    between atoms: C_16  and  C_22
REMARK    8  A    between atoms: C_26  and  C_27
REMARK                            x       y       z     vdW  Elec       q    Type
REMARK                         _______ _______ _______ _____ _____    ______ ____
ROOT
ATOM      1  C   UNL     1       0.478  -7.802   4.045  0.00  0.00    +0.123 A 
ATOM      2  C   UNL     1       0.055  -8.672   3.036  0.00  0.00    +0.046 A 
ATOM      3  C   UNL     1       0.106 -10.020   3.213  0.00  0.00    +0.014 A 
ATOM      4  C   UNL     1       0.587 -10.548   4.419  0.00  0.00    +0.008 A 
ATOM      5  C   UNL     1       0.654 -11.948   4.634  0.00  0.00    -0.003 A 
ATOM      6  C   UNL     1       1.143 -12.394   5.856  0.00  0.00    +0.029 A 
ATOM      7  C   UNL     1       1.545 -11.472   6.813  0.00  0.00    +0.112 A 
ATOM      8  N   UNL     1       1.478 -10.179   6.601  0.00  0.00    -0.255 NA
ATOM      9  C   UNL     1       1.018  -9.677   5.448  0.00  0.00    +0.075 A 
ATOM     10  C   UNL     1       0.960  -8.289   5.238  0.00  0.00    +0.074 A 
ENDROOT
BRANCH   5  11
ATOM     11  C   UNL     1       0.216 -12.903   3.592  0.00  0.00    +0.033 A 
ATOM     12  C   UNL     1       0.993 -13.450   2.606  0.00  0.00    +0.048 A 
ATOM     13  N   UNL     1       0.224 -14.269   1.869  0.00  0.00    -0.267 N 
ATOM     14  N   UNL     1      -1.085 -14.254   2.380  0.00  0.00    -0.169 NA
ATOM     15  C   UNL     1      -1.129 -13.451   3.418  0.00  0.00    +0.119 A 
ATOM     16  C   UNL     1       1.010 -14.898   0.791  0.00  0.00    +0.144 C 
ATOM     17  C   UNL     1       2.288 -14.043   0.658  0.00  0.00    +0.029 C 
ATOM     18  C   UNL     1       2.411 -13.440   2.075  0.00  0.00    +0.057 C 
BRANCH  15  19
ATOM     19  C   UNL     1      -2.316 -13.153   4.253  0.00  0.00    +0.091 A 
ATOM     20  C   UNL     1      -3.594 -13.303   3.716  0.00  0.00    +0.030 A 
ATOM     21  C   UNL     1      -4.693 -13.021   4.508  0.00  0.00    +0.004 A 
ATOM     22  C   UNL     1      -4.479 -12.597   5.812  0.00  0.00    +0.020 A 
ATOM     23  C   UNL     1      -3.185 -12.470   6.280  0.00  0.00    +0.111 A 
ATOM     24  N   UNL     1      -2.155 -12.750   5.507  0.00  0.00    -0.253 NA
ENDBRANCH  15  19
ENDBRANCH   5  11
BRANCH   1  25
ATOM     25  O   UNL     1       0.417  -6.460   3.844  0.00  0.00    -0.492 OA
BRANCH  25  26
ATOM     26  C   UNL     1      -0.093  -6.015   2.586  0.00  0.00    +0.230 C 
BRANCH  26  27
ATOM     27  C   UNL     1      -0.086  -4.485   2.544  0.00  0.00    +0.056 C 
BRANCH  27  28
ATOM     28  C   UNL     1      -0.632  -4.009   1.196  0.00  0.00    +0.087 C 
BRANCH  28  33
ATOM     29  C   UNL     1      -0.018   1.465   0.010  0.00  0.00    -0.096 C 
ATOM     30  N   UNL     1       0.002  -0.004   0.002  0.00  0.00    +0.379 N 
ATOM     31  C   UNL     1      -1.376  -0.512   0.011  0.00  0.00    -0.064 C 
ATOM     32  C   UNL     1      -1.356  -2.042  -0.017  0.00  0.00    +0.066 C 
ATOM     33  N   UNL     1      -0.624  -2.541   1.156  0.00  0.00    -0.306 NA
ATOM     34  C   UNL     1       0.750  -2.020   1.175  0.00  0.00    +0.066 C 
ATOM     35  C   UNL     1       0.713  -0.490   1.192  0.00  0.00    -0.064 C 
ATOM     36  H   UNL     1       0.475  -0.329  -0.828  0.00  0.00    -0.082 HD
ENDBRANCH  28  33
ENDBRANCH  27  28
ENDBRANCH  26  27
ENDBRANCH  25  26
ENDBRANCH   1  25
TORSDOF 7
