REMARK  Name = CHEMBL585103
REMARK  7 active torsions:
REMARK  status: ('A' for Active; 'I' for Inactive)
REMARK    1  A    between atoms: C_1  and  C_2
REMARK    2  A    between atoms: C_6  and  C_8
REMARK    3  A    between atoms: C_9  and  C_24
REMARK    4  A    between atoms: C_11  and  C_13
REMARK    5  A    between atoms: C_13  and  N_14
REMARK    6  A    between atoms: N_14  and  C_15
REMARK    7  A    between atoms: C_18  and  C_21
REMARK                            x       y       z     vdW  Elec       q    Type
REMARK                         _______ _______ _______ _____ _____    ______ ____
ROOT
ATOM      1  C   UNL     1       0.050  -2.683   2.489  0.00  0.00    +0.115 A 
ATOM      2  C   UNL     1       0.517  -2.165   3.692  0.00  0.00    +0.072 A 
ATOM      3  N   UNL     1       0.335  -3.157   4.631  0.00  0.00    -0.340 N 
ATOM      4  C   UNL     1      -0.221  -4.220   3.992  0.00  0.00    +0.125 A 
ATOM      5  N   UNL     1      -0.392  -3.932   2.733  0.00  0.00    -0.229 NA
ATOM      6  H   UNL     1       0.562  -3.106   5.573  0.00  0.00    +0.167 HD
ENDROOT
BRANCH   2   7
ATOM      7  C   UNL     1       1.086  -0.837   3.916  0.00  0.00    -0.019 C 
ATOM      8  C   UNL     1       2.340  -0.580   3.487  0.00  0.00    +0.009 C 
ATOM      9  C   UNL     1       2.935   0.692   3.720  0.00  0.00    +0.044 C 
ATOM     10  C   UNL     1       2.358   1.489   4.620  0.00  0.00    +0.130 C 
ATOM     11  C   UNL     1       1.166   1.084   5.478  0.00  0.00    +0.191 C 
ATOM     12  C   UNL     1       0.253   0.208   4.613  0.00  0.00    +0.077 C 
ATOM     13  O   UNL     1       0.522   2.329   5.797  0.00  0.00    -0.333 OA
ATOM     14  C   UNL     1       1.336   3.356   5.193  0.00  0.00    +0.395 C 
ATOM     15  O   UNL     1       2.640   2.759   5.002  0.00  0.00    -0.468 OA
ENDBRANCH   2   7
BRANCH   1  21
ATOM     16  C   UNL     1      -0.018   1.503   0.010  0.00  0.00    +0.065 C 
ATOM     17  C   UNL     1       0.002  -0.004   0.002  0.00  0.00    +0.039 A 
ATOM     18  C   UNL     1       0.005  -0.679  -1.204  0.00  0.00    +0.023 A 
ATOM     19  C   UNL     1       0.024  -2.068  -1.209  0.00  0.00    +0.004 A 
ATOM     20  C   UNL     1       0.039  -2.732   0.003  0.00  0.00    +0.030 A 
ATOM     21  C   UNL     1       0.035  -1.988   1.185  0.00  0.00    +0.091 A 
ATOM     22  N   UNL     1       0.022  -0.660   1.145  0.00  0.00    -0.250 NA
ENDBRANCH   1  21
BRANCH   4  23
ATOM     23  C   UNL     1      -0.590  -5.528   4.642  0.00  0.00    +0.175 C 
BRANCH  23  24
ATOM     24  N   UNL     1      -2.004  -5.503   5.023  0.00  0.00    -0.337 N 
ATOM     25  H   UNL     1      -2.541  -4.716   4.842  0.00  0.00    +0.147 HD
BRANCH  24  26
ATOM     26  C   UNL     1      -2.577  -6.608   5.643  0.00  0.00    +0.027 A 
ATOM     27  C   UNL     1      -1.803  -7.735   5.907  0.00  0.00    +0.023 A 
ATOM     28  C   UNL     1      -2.367  -8.830   6.521  0.00  0.00    +0.015 A 
ATOM     29  C   UNL     1      -3.718  -8.809   6.880  0.00  0.00    +0.037 A 
ATOM     30  C   UNL     1      -4.492  -7.676   6.614  0.00  0.00    +0.015 A 
ATOM     31  C   UNL     1      -3.921  -6.582   6.005  0.00  0.00    +0.023 A 
BRANCH  29  32
ATOM     32  C   UNL     1      -4.326  -9.981   7.539  0.00  0.00    +0.242 C 
ATOM     33  O   UNL     1      -3.651 -10.966   7.769  0.00  0.00    -0.270 OA
ATOM     34  N   UNL     1      -5.628  -9.960   7.884  0.00  0.00    -0.325 N 
ATOM     35  H   UNL     1      -6.166  -9.174   7.700  0.00  0.00    +0.145 HD
ATOM     36  H   UNL     1      -6.028 -10.731   8.317  0.00  0.00    +0.145 HD
ENDBRANCH  29  32
ENDBRANCH  24  26
ENDBRANCH  23  24
ENDBRANCH   4  23
TORSDOF 6
