REMARK  Name = CHEMBL338713
REMARK  2 active torsions:
REMARK  status: ('A' for Active; 'I' for Inactive)
REMARK    1  A    between atoms: C_7  and  C_11
REMARK    2  A    between atoms: C_12  and  C_17
REMARK                            x       y       z     vdW  Elec       q    Type
REMARK                         _______ _______ _______ _____ _____    ______ ____
ROOT
ATOM      1  C   UNL     1       0.083  -2.969  -0.013  0.00  0.00    +0.076 A 
ATOM      2  C   UNL     1      -0.877  -3.040  -1.017  0.00  0.00    +0.045 A 
ATOM      3  C   UNL     1      -1.859  -3.952  -0.592  0.00  0.00    +0.144 A 
ATOM      4  N   UNL     1      -1.522  -4.405   0.587  0.00  0.00    -0.181 NA
ATOM      5  H   UNL     1       0.159  -3.985   1.807  0.00  0.00    +0.189 HD
ATOM      6  N   UNL     1      -0.313  -3.818   0.976  0.00  0.00    -0.276 N 
ENDROOT
BRANCH   1  13
ATOM      7  C   UNL     1      -0.016   1.359   0.009  0.00  0.00    +0.001 A 
ATOM      8  C   UNL     1       1.170   2.088   0.002  0.00  0.00    +0.002 A 
ATOM      9  C   UNL     1       2.379   1.463  -0.013  0.00  0.00    +0.028 A 
ATOM     10  C   UNL     1       2.438   0.059  -0.021  0.00  0.00    +0.072 A 
ATOM     11  C   UNL     1       1.228  -0.678  -0.013  0.00  0.00    +0.010 A 
ATOM     12  C   UNL     1       0.002  -0.004   0.002  0.00  0.00    +0.010 A 
ATOM     13  C   UNL     1       1.301  -2.139  -0.022  0.00  0.00    +0.011 A 
ATOM     14  C   UNL     1       2.571  -2.713  -0.037  0.00  0.00    +0.030 A 
ATOM     15  C   UNL     1       3.691  -1.893  -0.044  0.00  0.00    +0.112 A 
ATOM     16  N   UNL     1       3.609  -0.585  -0.036  0.00  0.00    -0.255 NA
ENDBRANCH   1  13
BRANCH   2  17
ATOM     17  C   UNL     1      -0.868  -2.292  -2.296  0.00  0.00    +0.074 A 
ATOM     18  C   UNL     1      -1.911  -2.466  -3.206  0.00  0.00    +0.028 A 
ATOM     19  C   UNL     1      -1.888  -1.761  -4.396  0.00  0.00    +0.004 A 
ATOM     20  C   UNL     1      -0.823  -0.904  -4.639  0.00  0.00    +0.020 A 
ATOM     21  C   UNL     1       0.177  -0.780  -3.693  0.00  0.00    +0.111 A 
ATOM     22  N   UNL     1       0.130  -1.459  -2.565  0.00  0.00    -0.255 NA
ENDBRANCH   2  17
TORSDOF 2
