REMARK  Name = CHEMBL260239
REMARK  8 active torsions:
REMARK  status: ('A' for Active; 'I' for Inactive)
REMARK    1  A    between atoms: C_1  and  N_2
REMARK    2  A    between atoms: N_2  and  C_3
REMARK    3  A    between atoms: N_2  and  C_4
REMARK    4  A    between atoms: C_4  and  C_5
REMARK    5  A    between atoms: C_8  and  O_11
REMARK    6  A    between atoms: O_11  and  C_12
REMARK    7  A    between atoms: C_16  and  C_22
REMARK    8  A    between atoms: C_26  and  C_27
REMARK                            x       y       z     vdW  Elec       q    Type
REMARK                         _______ _______ _______ _____ _____    ______ ____
ROOT
ATOM      1  C   UNL     1       7.053   0.317  -0.439  0.00  0.00    +0.130 A 
ATOM      2  C   UNL     1       6.713  -0.940   0.071  0.00  0.00    +0.047 A 
ATOM      3  C   UNL     1       7.652  -1.729   0.661  0.00  0.00    +0.014 A 
ATOM      4  C   UNL     1       8.976  -1.282   0.761  0.00  0.00    +0.008 A 
ATOM      5  C   UNL     1       9.978  -2.080   1.369  0.00  0.00    -0.003 A 
ATOM      6  C   UNL     1      11.269  -1.567   1.431  0.00  0.00    +0.029 A 
ATOM      7  C   UNL     1      11.534  -0.310   0.904  0.00  0.00    +0.112 A 
ATOM      8  N   UNL     1      10.597   0.418   0.344  0.00  0.00    -0.255 NA
ATOM      9  C   UNL     1       9.333  -0.011   0.249  0.00  0.00    +0.075 A 
ATOM     10  C   UNL     1       8.346   0.782  -0.360  0.00  0.00    +0.074 A 
ENDROOT
BRANCH   5  11
ATOM     11  C   UNL     1       9.660  -3.416   1.921  0.00  0.00    +0.033 A 
ATOM     12  C   UNL     1       9.716  -4.610   1.255  0.00  0.00    +0.048 A 
ATOM     13  N   UNL     1       9.357  -5.586   2.107  0.00  0.00    -0.267 N 
ATOM     14  N   UNL     1       9.053  -5.016   3.356  0.00  0.00    -0.169 NA
ATOM     15  C   UNL     1       9.230  -3.717   3.286  0.00  0.00    +0.119 A 
ATOM     16  C   UNL     1       9.406  -6.903   1.447  0.00  0.00    +0.144 C 
ATOM     17  C   UNL     1       9.424  -6.608  -0.068  0.00  0.00    +0.029 C 
ATOM     18  C   UNL     1      10.045  -5.193  -0.104  0.00  0.00    +0.057 C 
BRANCH  15  19
ATOM     19  C   UNL     1       9.028  -2.740   4.383  0.00  0.00    +0.091 A 
ATOM     20  C   UNL     1       8.159  -3.045   5.429  0.00  0.00    +0.030 A 
ATOM     21  C   UNL     1       7.981  -2.123   6.445  0.00  0.00    +0.004 A 
ATOM     22  C   UNL     1       8.678  -0.925   6.383  0.00  0.00    +0.020 A 
ATOM     23  C   UNL     1       9.523  -0.687   5.315  0.00  0.00    +0.111 A 
ATOM     24  N   UNL     1       9.679  -1.584   4.363  0.00  0.00    -0.253 NA
ENDBRANCH  15  19
ENDBRANCH   5  11
BRANCH   1  25
ATOM     25  O   UNL     1       6.098   1.085  -1.024  0.00  0.00    -0.456 OA
BRANCH  25  29
ATOM     26  C   UNL     1       3.966   3.680   1.372  0.00  0.00    -0.064 A 
ATOM     27  C   UNL     1       4.952   2.884   1.924  0.00  0.00    +0.005 A 
ATOM     28  C   UNL     1       5.667   2.014   1.124  0.00  0.00    +0.046 A 
ATOM     29  C   UNL     1       5.395   1.940  -0.234  0.00  0.00    +0.128 A 
ATOM     30  C   UNL     1       4.405   2.740  -0.786  0.00  0.00    +0.046 A 
ATOM     31  C   UNL     1       3.689   3.605   0.019  0.00  0.00    +0.005 A 
BRANCH  26  32
ATOM     32  C   UNL     1       3.187   4.628   2.247  0.00  0.00    -0.044 C 
BRANCH  32  34
ATOM     33  C   UNL     1       2.423   2.851   3.666  0.00  0.00    -0.096 C 
ATOM     34  N   UNL     1       2.001   3.942   2.777  0.00  0.00    +0.379 N 
ATOM     35  C   UNL     1       1.179   4.898   3.532  0.00  0.00    -0.096 C 
ATOM     36  H   UNL     1       1.461   3.565   2.013  0.00  0.00    -0.082 HD
ENDBRANCH  32  34
ENDBRANCH  26  32
ENDBRANCH  25  29
ENDBRANCH   1  25
TORSDOF 6
