REMARK  Name = CHEMBL556871
REMARK  4 active torsions:
REMARK  status: ('A' for Active; 'I' for Inactive)
REMARK    1  A    between atoms: C_1  and  C_2
REMARK    2  A    between atoms: C_6  and  C_8
REMARK    3  A    between atoms: C_15  and  N_17
REMARK    4  A    between atoms: N_17  and  C_18
REMARK                            x       y       z     vdW  Elec       q    Type
REMARK                         _______ _______ _______ _____ _____    ______ ____
ROOT
ATOM      1  C   UNL     1      -0.072  -2.676   2.495  0.00  0.00    +0.181 A 
ATOM      2  N   UNL     1      -0.260  -3.978   2.505  0.00  0.00    -0.225 NA
ATOM      3  C   UNL     1      -0.365  -4.665   3.666  0.00  0.00    +0.084 A 
ATOM      4  C   UNL     1      -0.571  -6.084   3.880  0.00  0.00    +0.036 A 
ATOM      5  C   UNL     1      -0.644  -6.556   5.138  0.00  0.00    +0.048 A 
ATOM      6  S   UNL     1      -0.437  -5.096   6.141  0.00  0.00    -0.092 S 
ATOM      7  C   UNL     1      -0.259  -3.898   4.847  0.00  0.00    +0.078 A 
ATOM      8  C   UNL     1      -0.061  -2.527   4.795  0.00  0.00    +0.141 A 
ATOM      9  N   UNL     1       0.035  -1.946   3.601  0.00  0.00    -0.210 NA
ENDROOT
BRANCH   1  15
ATOM     10  C   UNL     1       0.550   1.461   0.009  0.00  0.00    +0.065 C 
ATOM     11  C   UNL     1       0.328  -0.029   0.001  0.00  0.00    +0.039 A 
ATOM     12  C   UNL     1       0.231  -0.699  -1.206  0.00  0.00    +0.023 A 
ATOM     13  C   UNL     1       0.026  -2.070  -1.208  0.00  0.00    +0.004 A 
ATOM     14  C   UNL     1      -0.074  -2.726   0.008  0.00  0.00    +0.031 A 
ATOM     15  C   UNL     1       0.034  -1.989   1.185  0.00  0.00    +0.108 A 
ATOM     16  N   UNL     1       0.235  -0.678   1.143  0.00  0.00    -0.249 NA
ENDBRANCH   1  15
BRANCH   8  17
ATOM     17  N   UNL     1       0.042  -1.780   5.959  0.00  0.00    -0.298 N 
ATOM     18  H   UNL     1       0.059  -2.225   6.821  0.00  0.00    +0.154 HD
BRANCH  17  19
ATOM     19  C   UNL     1       0.122  -0.391   5.890  0.00  0.00    +0.035 A 
ATOM     20  C   UNL     1      -0.487   0.310   4.849  0.00  0.00    +0.043 A 
ATOM     21  C   UNL     1      -0.385   1.685   4.818  0.00  0.00    +0.112 A 
ATOM     22  N   UNL     1       0.277   2.336   5.755  0.00  0.00    -0.263 NA
ATOM     23  C   UNL     1       0.866   1.709   6.756  0.00  0.00    +0.112 A 
ATOM     24  C   UNL     1       0.807   0.336   6.864  0.00  0.00    +0.043 A 
ENDBRANCH  17  19
ENDBRANCH   8  17
TORSDOF 3
