REMARK  Name = CHEMBL585367
REMARK  7 active torsions:
REMARK  status: ('A' for Active; 'I' for Inactive)
REMARK    1  A    between atoms: C_1  and  C_2
REMARK    2  A    between atoms: C_5  and  O_9
REMARK    3  A    between atoms: C_6  and  C_8
REMARK    4  A    between atoms: O_9  and  C_10
REMARK    5  A    between atoms: N_16  and  C_17
REMARK    6  A    between atoms: C_20  and  S_23
REMARK    7  A    between atoms: S_23  and  N_26
REMARK                            x       y       z     vdW  Elec       q    Type
REMARK                         _______ _______ _______ _____ _____    ______ ____
ROOT
ATOM      1  C   UNL     1       0.494  -4.701  -1.155  0.00  0.00    +0.133 A 
ATOM      2  C   UNL     1       0.711  -6.089  -1.280  0.00  0.00    +0.064 A 
ATOM      3  C   UNL     1       0.768  -6.660  -2.501  0.00  0.00    +0.088 A 
ATOM      4  N   UNL     1       0.619  -5.913  -3.630  0.00  0.00    -0.346 N 
ATOM      5  C   UNL     1       0.405  -4.559  -3.550  0.00  0.00    +0.135 A 
ATOM      6  C   UNL     1       0.336  -3.936  -2.293  0.00  0.00    +0.092 A 
ATOM      7  N   UNL     1       0.261  -3.840  -4.659  0.00  0.00    -0.230 NA
ATOM      8  H   UNL     1       0.664  -6.342  -4.499  0.00  0.00    +0.167 HD
ENDROOT
BRANCH   7   9
ATOM      9  C   UNL     1       0.202  -4.462  -5.872  0.00  0.00    +0.066 A 
ATOM     10  C   UNL     1      -0.749  -5.461  -6.104  0.00  0.00    +0.030 A 
ATOM     11  C   UNL     1      -0.803  -6.085  -7.332  0.00  0.00    +0.030 A 
ATOM     12  C   UNL     1       0.081  -5.724  -8.335  0.00  0.00    +0.105 A 
ATOM     13  C   UNL     1       1.024  -4.736  -8.113  0.00  0.00    +0.030 A 
ATOM     14  C   UNL     1       1.087  -4.099  -6.892  0.00  0.00    +0.030 A 
BRANCH  12  15
ATOM     15  S   UNL     1       0.004  -6.527  -9.902  0.00  0.00    +0.056 S 
ATOM     16  O   UNL     1       1.290  -6.393 -10.490  0.00  0.00    -0.153 OA
ATOM     17  O   UNL     1      -0.605  -7.792  -9.680  0.00  0.00    -0.153 OA
BRANCH  15  18
ATOM     18  N   UNL     1      -1.042  -5.658 -10.846  0.00  0.00    -0.204 NA
ATOM     19  H   UNL     1      -1.474  -4.866 -10.490  0.00  0.00    +0.144 HD
ATOM     20  H   UNL     1      -1.223  -5.940 -11.757  0.00  0.00    +0.144 HD
ENDBRANCH  15  18
ENDBRANCH  12  15
ENDBRANCH   7   9
BRANCH   1  21
ATOM     21  O   UNL     1       0.435  -4.125   0.070  0.00  0.00    -0.454 OA
BRANCH  21  26
ATOM     22  C   UNL     1       5.019  -3.977   3.260  0.00  0.00    +0.065 C 
ATOM     23  C   UNL     1       3.796  -4.026   2.381  0.00  0.00    +0.039 A 
ATOM     24  C   UNL     1       3.903  -4.513   1.091  0.00  0.00    +0.026 A 
ATOM     25  C   UNL     1       2.774  -4.555   0.289  0.00  0.00    +0.050 A 
ATOM     26  C   UNL     1       1.569  -4.103   0.819  0.00  0.00    +0.149 A 
ATOM     27  C   UNL     1       1.542  -3.629   2.122  0.00  0.00    +0.081 A 
ATOM     28  N   UNL     1       2.638  -3.610   2.854  0.00  0.00    -0.253 NA
ATOM     29  C   UNL     1       0.244  -3.136   2.710  0.00  0.00    +0.069 C 
ENDBRANCH  21  26
ENDBRANCH   1  21
TORSDOF 5
