REMARK  Name = CHEMBL126180
REMARK  4 active torsions:
REMARK  status: ('A' for Active; 'I' for Inactive)
REMARK    1  A    between atoms: C_4  and  C_7
REMARK    2  A    between atoms: C_7  and  N_8
REMARK    3  A    between atoms: C_10  and  C_19
REMARK    4  A    between atoms: C_11  and  C_13
REMARK                            x       y       z     vdW  Elec       q    Type
REMARK                         _______ _______ _______ _____ _____    ______ ____
ROOT
ATOM      1  N   UNL     1       4.152  -0.952   1.338  0.00  0.00    -0.266 N 
ATOM      2  C   UNL     1       4.468  -2.156   1.850  0.00  0.00    +0.118 A 
ATOM      3  C   UNL     1       4.830  -1.981   3.155  0.00  0.00    +0.030 A 
ATOM      4  C   UNL     1       4.717  -0.548   3.433  0.00  0.00    +0.119 A 
ATOM      5  N   UNL     1       4.315   0.029   2.320  0.00  0.00    -0.169 NA
ENDROOT
BRANCH   3   6
ATOM      6  C   UNL     1       5.254  -3.034   4.103  0.00  0.00    -0.004 A 
ATOM      7  C   UNL     1       6.430  -3.748   3.904  0.00  0.00    +0.029 A 
ATOM      8  C   UNL     1       6.800  -4.729   4.814  0.00  0.00    +0.112 A 
ATOM      9  N   UNL     1       6.069  -5.009   5.867  0.00  0.00    -0.255 NA
ATOM     10  C   UNL     1       4.926  -4.363   6.123  0.00  0.00    +0.072 A 
ATOM     11  C   UNL     1       4.478  -3.344   5.249  0.00  0.00    +0.008 A 
ATOM     12  C   UNL     1       3.282  -2.668   5.525  0.00  0.00    +0.010 A 
ATOM     13  C   UNL     1       2.564  -2.995   6.636  0.00  0.00    +0.001 A 
ATOM     14  C   UNL     1       3.004  -3.994   7.501  0.00  0.00    +0.002 A 
ATOM     15  C   UNL     1       4.155  -4.678   7.256  0.00  0.00    +0.028 A 
ENDBRANCH   3   6
BRANCH   4  16
ATOM     16  C   UNL     1       5.006   0.126   4.721  0.00  0.00    +0.091 A 
ATOM     17  C   UNL     1       5.358   1.475   4.731  0.00  0.00    +0.030 A 
ATOM     18  C   UNL     1       5.624   2.091   5.942  0.00  0.00    +0.004 A 
ATOM     19  C   UNL     1       5.531   1.337   7.103  0.00  0.00    +0.020 A 
ATOM     20  C   UNL     1       5.176   0.003   7.019  0.00  0.00    +0.111 A 
ATOM     21  N   UNL     1       4.923  -0.558   5.854  0.00  0.00    -0.253 NA
ENDBRANCH   4  16
BRANCH   1  22
ATOM     22  C   UNL     1       3.711  -0.707  -0.038  0.00  0.00    +0.178 C 
BRANCH  22  26
ATOM     23  C   UNL     1      -0.017   1.378   0.010  0.00  0.00    +0.000 A 
ATOM     24  C   UNL     1       1.171   2.086   0.002  0.00  0.00    +0.000 A 
ATOM     25  C   UNL     1       2.377   1.411  -0.013  0.00  0.00    +0.005 A 
ATOM     26  C   UNL     1       2.396   0.029  -0.020  0.00  0.00    -0.026 A 
ATOM     27  C   UNL     1       1.208  -0.679  -0.012  0.00  0.00    +0.005 A 
ATOM     28  C   UNL     1       0.002  -0.004   0.002  0.00  0.00    +0.000 A 
ENDBRANCH  22  26
ENDBRANCH   1  22
TORSDOF 4
