REMARK  Name = CHEMBL583549
REMARK  4 active torsions:
REMARK  status: ('A' for Active; 'I' for Inactive)
REMARK    1  A    between atoms: C_5  and  C_7
REMARK    2  A    between atoms: C_8  and  C_22
REMARK    3  A    between atoms: C_10  and  C_13
REMARK    4  A    between atoms: C_16  and  C_19
REMARK                            x       y       z     vdW  Elec       q    Type
REMARK                         _______ _______ _______ _____ _____    ______ ____
ROOT
ATOM      1  C   UNL     1       1.333  -2.143   0.077  0.00  0.00    +0.092 A 
ATOM      2  C   UNL     1       2.257  -2.945  -0.589  0.00  0.00    +0.095 A 
ATOM      3  N   UNL     1       1.850  -4.219  -0.468  0.00  0.00    -0.227 NA
ATOM      4  C   UNL     1       0.736  -4.262   0.227  0.00  0.00    +0.139 A 
ATOM      5  N   UNL     1       0.382  -2.995   0.590  0.00  0.00    -0.336 N 
ATOM      6  H   UNL     1      -0.396  -2.742   1.112  0.00  0.00    +0.167 HD
ENDROOT
BRANCH   2   7
ATOM      7  C   UNL     1       3.459  -2.481  -1.296  0.00  0.00    -0.017 C 
ATOM      8  C   UNL     1       3.321  -1.642  -2.340  0.00  0.00    +0.009 C 
ATOM      9  C   UNL     1       4.508  -1.198  -3.084  0.00  0.00    +0.044 C 
ATOM     10  C   UNL     1       5.637  -1.881  -2.892  0.00  0.00    +0.130 C 
ATOM     11  C   UNL     1       5.736  -3.136  -2.034  0.00  0.00    +0.191 C 
ATOM     12  C   UNL     1       4.811  -2.952  -0.827  0.00  0.00    +0.077 C 
ATOM     13  O   UNL     1       7.112  -3.172  -1.618  0.00  0.00    -0.333 OA
ATOM     14  C   UNL     1       7.738  -2.032  -2.243  0.00  0.00    +0.395 C 
ATOM     15  O   UNL     1       6.892  -1.687  -3.365  0.00  0.00    -0.468 OA
ENDBRANCH   2   7
BRANCH   1  20
ATOM     16  C   UNL     1       0.232   1.408   0.528  0.00  0.00    +0.004 A 
ATOM     17  C   UNL     1       1.469   2.036   0.452  0.00  0.00    +0.020 A 
ATOM     18  C   UNL     1       2.607   1.274   0.258  0.00  0.00    +0.111 A 
ATOM     19  N   UNL     1       2.533  -0.036   0.143  0.00  0.00    -0.253 NA
ATOM     20  C   UNL     1       1.369  -0.677   0.210  0.00  0.00    +0.089 A 
ATOM     21  C   UNL     1       0.180   0.033   0.406  0.00  0.00    +0.030 A 
ENDBRANCH   1  20
BRANCH   4  22
ATOM     22  C   UNL     1      -0.013  -5.489   0.567  0.00  0.00    +0.017 A 
ATOM     23  C   UNL     1      -1.193  -5.404   1.311  0.00  0.00    +0.012 A 
ATOM     24  C   UNL     1      -1.888  -6.542   1.627  0.00  0.00    +0.016 A 
ATOM     25  C   UNL     1      -1.416  -7.789   1.205  0.00  0.00    +0.063 A 
ATOM     26  C   UNL     1      -0.235  -7.874   0.460  0.00  0.00    +0.016 A 
ATOM     27  C   UNL     1       0.457  -6.734   0.140  0.00  0.00    +0.012 A 
BRANCH  25  28
ATOM     28  C   UNL     1      -2.163  -9.014   1.544  0.00  0.00    +0.387 C 
ATOM     29  O   UNL     1      -3.196  -8.939   2.195  0.00  0.00    -0.241 OA
ATOM     30  O   UNL     1      -1.750 -10.104   1.175  0.00  0.00    -0.241 OA
ENDBRANCH  25  28
ENDBRANCH   4  22
TORSDOF 4
