REMARK  Name = CHEMBL129678
REMARK  3 active torsions:
REMARK  status: ('A' for Active; 'I' for Inactive)
REMARK    1  A    between atoms: C_7  and  C_11
REMARK    2  A    between atoms: C_16  and  C_17
REMARK    3  A    between atoms: C_21  and  C_23
REMARK                            x       y       z     vdW  Elec       q    Type
REMARK                         _______ _______ _______ _____ _____    ______ ____
ROOT
ATOM      1  C   UNL     1       0.118  -3.018  -0.086  0.00  0.00    +0.028 A 
ATOM      2  C   UNL     1      -0.278  -3.914   0.925  0.00  0.00    +0.143 A 
ATOM      3  N   UNL     1      -1.495  -4.314   0.671  0.00  0.00    -0.181 NA
ATOM      4  H   UNL     1      -2.814  -3.827  -0.915  0.00  0.00    +0.189 HD
ATOM      5  N   UNL     1      -1.944  -3.702  -0.505  0.00  0.00    -0.276 N 
ATOM      6  C   UNL     1      -0.950  -2.897  -0.970  0.00  0.00    +0.073 A 
ENDROOT
BRANCH   1  13
ATOM      7  C   UNL     1       2.908  -3.813  -3.226  0.00  0.00    +0.001 A 
ATOM      8  C   UNL     1       4.125  -3.138  -3.280  0.00  0.00    +0.002 A 
ATOM      9  C   UNL     1       4.456  -2.212  -2.338  0.00  0.00    +0.028 A 
ATOM     10  C   UNL     1       3.560  -1.929  -1.293  0.00  0.00    +0.072 A 
ATOM     11  C   UNL     1       2.324  -2.617  -1.242  0.00  0.00    +0.008 A 
ATOM     12  C   UNL     1       2.015  -3.563  -2.227  0.00  0.00    +0.010 A 
ATOM     13  C   UNL     1       1.421  -2.329  -0.186  0.00  0.00    -0.004 A 
ATOM     14  C   UNL     1       1.804  -1.376   0.752  0.00  0.00    +0.029 A 
ATOM     15  C   UNL     1       3.035  -0.747   0.628  0.00  0.00    +0.112 A 
ATOM     16  N   UNL     1       3.860  -1.024  -0.355  0.00  0.00    -0.255 NA
ENDBRANCH   1  13
BRANCH   6  17
ATOM     17  C   UNL     1      -0.995  -2.058  -2.185  0.00  0.00    +0.001 A 
ATOM     18  C   UNL     1      -0.563  -0.731  -2.136  0.00  0.00    +0.010 A 
ATOM     19  C   UNL     1      -0.607   0.048  -3.274  0.00  0.00    +0.001 A 
ATOM     20  C   UNL     1      -1.078  -0.484  -4.462  0.00  0.00    +0.012 A 
ATOM     21  C   UNL     1      -1.508  -1.798  -4.517  0.00  0.00    +0.055 A 
ATOM     22  C   UNL     1      -1.463  -2.589  -3.388  0.00  0.00    +0.022 A 
BRANCH  21  23
ATOM     23  C   UNL     1      -2.019  -2.367  -5.815  0.00  0.00    +0.417 C 
ATOM     24  F   UNL     1      -1.963  -1.385  -6.810  0.00  0.00    -0.166 F 
ATOM     25  F   UNL     1      -1.227  -3.457  -6.190  0.00  0.00    -0.166 F 
ATOM     26  F   UNL     1      -3.343  -2.788  -5.649  0.00  0.00    -0.166 F 
ENDBRANCH  21  23
ENDBRANCH   6  17
TORSDOF 3
