REMARK  Name = CHEMBL575492
REMARK  8 active torsions:
REMARK  status: ('A' for Active; 'I' for Inactive)
REMARK    1  A    between atoms: C_1  and  C_2
REMARK    2  A    between atoms: C_4  and  O_15
REMARK    3  A    between atoms: C_5  and  C_9
REMARK    4  A    between atoms: C_7  and  C_8
REMARK    5  A    between atoms: O_15  and  C_16
REMARK    6  A    between atoms: N_22  and  C_23
REMARK    7  A    between atoms: C_28  and  O_29
REMARK    8  A    between atoms: O_29  and  C_30
REMARK                            x       y       z     vdW  Elec       q    Type
REMARK                         _______ _______ _______ _____ _____    ______ ____
ROOT
ATOM      1  C   UNL     1       0.859  -1.988  -3.453  0.00  0.00    +0.133 A 
ATOM      2  C   UNL     1       0.891  -2.672  -4.687  0.00  0.00    +0.064 A 
ATOM      3  C   UNL     1       0.769  -1.992  -5.844  0.00  0.00    +0.088 A 
ATOM      4  N   UNL     1       0.613  -0.639  -5.847  0.00  0.00    -0.346 N 
ATOM      5  C   UNL     1       0.577   0.065  -4.667  0.00  0.00    +0.135 A 
ATOM      6  C   UNL     1       0.696  -0.618  -3.444  0.00  0.00    +0.092 A 
ATOM      7  N   UNL     1       0.424   1.384  -4.682  0.00  0.00    -0.227 NA
ATOM      8  H   UNL     1       0.527  -0.167  -6.690  0.00  0.00    +0.167 HD
ENDROOT
BRANCH   7   9
ATOM      9  C   UNL     1       0.525   2.096  -3.520  0.00  0.00    +0.108 A 
ATOM     10  C   UNL     1       1.607   1.889  -2.661  0.00  0.00    +0.031 A 
ATOM     11  C   UNL     1       1.702   2.612  -1.490  0.00  0.00    +0.002 A 
ATOM     12  C   UNL     1       0.731   3.542  -1.163  0.00  0.00    +0.004 A 
ATOM     13  C   UNL     1      -0.346   3.755  -2.007  0.00  0.00    +0.048 A 
ATOM     14  C   UNL     1      -0.454   3.043  -3.187  0.00  0.00    +0.145 A 
BRANCH  14  15
ATOM     15  O   UNL     1      -1.508   3.256  -4.019  0.00  0.00    -0.493 OA
ATOM     16  C   UNL     1      -2.466   4.237  -3.614  0.00  0.00    +0.277 C 
ENDBRANCH  14  15
ENDBRANCH   7   9
BRANCH   1  17
ATOM     17  O   UNL     1       0.981  -2.670  -2.289  0.00  0.00    -0.454 OA
BRANCH  17  21
ATOM     18  C   UNL     1       5.660  -3.535  -3.440  0.00  0.00    +0.046 C 
ATOM     19  C   UNL     1       4.456  -3.706  -2.551  0.00  0.00    -0.026 A 
ATOM     20  C   UNL     1       3.260  -3.080  -2.866  0.00  0.00    +0.053 A 
ATOM     21  C   UNL     1       2.173  -3.263  -2.020  0.00  0.00    +0.156 A 
ATOM     22  C   UNL     1       2.325  -4.069  -0.887  0.00  0.00    +0.131 A 
ATOM     23  N   UNL     1       3.490  -4.648  -0.625  0.00  0.00    -0.246 NA
ATOM     24  C   UNL     1       4.532  -4.493  -1.415  0.00  0.00    +0.042 A 
ATOM     25  C   UNL     1       5.830  -5.179  -1.074  0.00  0.00    +0.066 C 
BRANCH  22  26
ATOM     26  C   UNL     1       1.177  -4.277   0.028  0.00  0.00    +0.093 A 
ATOM     27  C   UNL     1       1.126  -5.421   0.823  0.00  0.00    +0.030 A 
ATOM     28  C   UNL     1       0.049  -5.601   1.673  0.00  0.00    +0.004 A 
ATOM     29  C   UNL     1      -0.944  -4.632   1.699  0.00  0.00    +0.020 A 
ATOM     30  C   UNL     1      -0.829  -3.522   0.883  0.00  0.00    +0.111 A 
ATOM     31  N   UNL     1       0.210  -3.371   0.087  0.00  0.00    -0.253 NA
ENDBRANCH  22  26
ENDBRANCH  17  21
ENDBRANCH   1  17
TORSDOF 5
