REMARK  Name = CHEMBL575311
REMARK  7 active torsions:
REMARK  status: ('A' for Active; 'I' for Inactive)
REMARK    1  A    between atoms: C_1  and  C_2
REMARK    2  A    between atoms: C_4  and  O_15
REMARK    3  A    between atoms: C_5  and  C_9
REMARK    4  A    between atoms: C_7  and  C_8
REMARK    5  A    between atoms: O_15  and  C_16
REMARK    6  A    between atoms: N_22  and  C_23
REMARK    7  A    between atoms: C_26  and  N_29
REMARK                            x       y       z     vdW  Elec       q    Type
REMARK                         _______ _______ _______ _____ _____    ______ ____
ROOT
ATOM      1  C   UNL     1       0.532  -2.044  -3.467  0.00  0.00    +0.133 A 
ATOM      2  C   UNL     1       0.765  -2.621  -4.734  0.00  0.00    +0.064 A 
ATOM      3  C   UNL     1       0.796  -1.846  -5.836  0.00  0.00    +0.088 A 
ATOM      4  N   UNL     1       0.606  -0.500  -5.752  0.00  0.00    -0.346 N 
ATOM      5  C   UNL     1       0.377   0.100  -4.536  0.00  0.00    +0.135 A 
ATOM      6  C   UNL     1       0.332  -0.683  -3.370  0.00  0.00    +0.092 A 
ATOM      7  N   UNL     1       0.194   1.413  -4.465  0.00  0.00    -0.230 NA
ATOM      8  H   UNL     1       0.632   0.041  -6.557  0.00  0.00    +0.167 HD
ENDROOT
BRANCH   7   9
ATOM      9  C   UNL     1       0.116   2.156  -5.610  0.00  0.00    +0.066 A 
ATOM     10  C   UNL     1      -0.836   1.843  -6.585  0.00  0.00    +0.029 A 
ATOM     11  C   UNL     1      -0.911   2.595  -7.739  0.00  0.00    +0.025 A 
ATOM     12  C   UNL     1      -0.042   3.662  -7.933  0.00  0.00    +0.030 A 
ATOM     13  C   UNL     1       0.906   3.976  -6.967  0.00  0.00    +0.025 A 
ATOM     14  C   UNL     1       0.984   3.233  -5.807  0.00  0.00    +0.029 A 
BRANCH  12  15
ATOM     15  N   UNL     1      -0.122   4.422  -9.106  0.00  0.00    -0.326 N 
ATOM     16  C   UNL     1       0.870   5.470  -9.399  0.00  0.00    +0.133 C 
ATOM     17  C   UNL     1       1.400   5.250 -10.820  0.00  0.00    +0.178 C 
ATOM     18  O   UNL     1       0.296   5.149 -11.724  0.00  0.00    -0.377 OA
ATOM     19  C   UNL     1      -0.569   4.040 -11.471  0.00  0.00    +0.178 C 
ATOM     20  C   UNL     1      -1.196   4.194 -10.086  0.00  0.00    +0.133 C 
ENDBRANCH  12  15
ENDBRANCH   7   9
BRANCH   1  21
ATOM     21  O   UNL     1       0.500  -2.821  -2.357  0.00  0.00    -0.454 OA
BRANCH  21  25
ATOM     22  C   UNL     1       5.284  -3.659  -2.975  0.00  0.00    +0.046 C 
ATOM     23  C   UNL     1       3.988  -3.837  -2.228  0.00  0.00    -0.026 A 
ATOM     24  C   UNL     1       2.832  -3.218  -2.675  0.00  0.00    +0.053 A 
ATOM     25  C   UNL     1       1.657  -3.408  -1.956  0.00  0.00    +0.156 A 
ATOM     26  C   UNL     1       1.686  -4.215  -0.814  0.00  0.00    +0.131 A 
ATOM     27  N   UNL     1       2.817  -4.787  -0.424  0.00  0.00    -0.246 NA
ATOM     28  C   UNL     1       3.940  -4.626  -1.091  0.00  0.00    +0.042 A 
ATOM     29  C   UNL     1       5.195  -5.306  -0.608  0.00  0.00    +0.066 C 
BRANCH  26  30
ATOM     30  C   UNL     1       0.444  -4.430  -0.034  0.00  0.00    +0.093 A 
ATOM     31  C   UNL     1       0.310  -5.574   0.750  0.00  0.00    +0.030 A 
ATOM     32  C   UNL     1      -0.855  -5.762   1.474  0.00  0.00    +0.004 A 
ATOM     33  C   UNL     1      -1.849  -4.797   1.390  0.00  0.00    +0.020 A 
ATOM     34  C   UNL     1      -1.649  -3.685   0.592  0.00  0.00    +0.111 A 
ATOM     35  N   UNL     1      -0.529  -3.529  -0.083  0.00  0.00    -0.253 NA
ENDBRANCH  26  30
ENDBRANCH  21  25
ENDBRANCH   1  21
TORSDOF 5
