REMARK  Name = CHEMBL338713
REMARK  2 active torsions:
REMARK  status: ('A' for Active; 'I' for Inactive)
REMARK    1  A    between atoms: C_7  and  C_11
REMARK    2  A    between atoms: C_12  and  C_17
REMARK                            x       y       z     vdW  Elec       q    Type
REMARK                         _______ _______ _______ _____ _____    ______ ____
ROOT
ATOM      1  C   UNL     1       0.058  -2.915  -0.025  0.00  0.00    +0.102 A 
ATOM      2  C   UNL     1      -0.018  -4.374  -0.117  0.00  0.00    +0.045 A 
ATOM      3  C   UNL     1      -1.341  -4.702  -0.056  0.00  0.00    +0.115 A 
ATOM      4  N   UNL     1      -2.050  -3.564   0.064  0.00  0.00    -0.283 N 
ATOM      5  H   UNL     1      -3.016  -3.510   0.128  0.00  0.00    +0.188 HD
ATOM      6  N   UNL     1      -1.177  -2.471   0.087  0.00  0.00    -0.173 NA
ENDROOT
BRANCH   1  13
ATOM      7  C   UNL     1       0.879   0.090   2.902  0.00  0.00    +0.001 A 
ATOM      8  C   UNL     1       2.052   0.838   2.841  0.00  0.00    +0.002 A 
ATOM      9  C   UNL     1       2.964   0.633   1.852  0.00  0.00    +0.028 A 
ATOM     10  C   UNL     1       2.724  -0.348   0.874  0.00  0.00    +0.072 A 
ATOM     11  C   UNL     1       1.530  -1.106   0.940  0.00  0.00    +0.010 A 
ATOM     12  C   UNL     1       0.612  -0.868   1.972  0.00  0.00    +0.010 A 
ATOM     13  C   UNL     1       1.290  -2.095  -0.048  0.00  0.00    +0.013 A 
ATOM     14  C   UNL     1       2.249  -2.268  -1.038  0.00  0.00    +0.030 A 
ATOM     15  C   UNL     1       3.394  -1.482  -1.030  0.00  0.00    +0.112 A 
ATOM     16  N   UNL     1       3.603  -0.571  -0.108  0.00  0.00    -0.255 NA
ENDBRANCH   1  13
BRANCH   2  17
ATOM     17  C   UNL     1       1.121  -5.313  -0.250  0.00  0.00    +0.075 A 
ATOM     18  C   UNL     1       0.878  -6.671  -0.448  0.00  0.00    +0.028 A 
ATOM     19  C   UNL     1       1.951  -7.535  -0.571  0.00  0.00    +0.004 A 
ATOM     20  C   UNL     1       3.235  -7.013  -0.492  0.00  0.00    +0.020 A 
ATOM     21  C   UNL     1       3.404  -5.656  -0.293  0.00  0.00    +0.111 A 
ATOM     22  N   UNL     1       2.364  -4.853  -0.184  0.00  0.00    -0.255 NA
ENDBRANCH   2  17
TORSDOF 2
