REMARK  Name = CHEMBL567505
REMARK  8 active torsions:
REMARK  status: ('A' for Active; 'I' for Inactive)
REMARK    1  A    between atoms: C_1  and  C_2
REMARK    2  A    between atoms: C_2  and  C_3
REMARK    3  A    between atoms: C_7  and  C_9
REMARK    4  A    between atoms: C_10  and  C_24
REMARK    5  A    between atoms: C_12  and  C_14
REMARK    6  A    between atoms: C_14  and  N_15
REMARK    7  A    between atoms: N_15  and  C_16
REMARK    8  A    between atoms: C_19  and  C_22
REMARK                            x       y       z     vdW  Elec       q    Type
REMARK                         _______ _______ _______ _____ _____    ______ ____
ROOT
ATOM      1  C   UNL     1       0.393  -0.000  -4.848  0.00  0.00    +0.115 A 
ATOM      2  C   UNL     1      -0.887   0.449  -5.124  0.00  0.00    +0.075 A 
ATOM      3  N   UNL     1      -0.894   0.796  -6.454  0.00  0.00    -0.340 N 
ATOM      4  C   UNL     1       0.350   0.555  -6.940  0.00  0.00    +0.125 A 
ATOM      5  N   UNL     1       1.107   0.091  -5.986  0.00  0.00    -0.229 NA
ATOM      6  H   UNL     1      -1.648   1.147  -6.952  0.00  0.00    +0.167 HD
ENDROOT
BRANCH   2   7
ATOM      7  C   UNL     1      -2.018   0.536  -4.179  0.00  0.00    -0.002 C 
ATOM      8  C   UNL     1      -3.022  -0.368  -4.234  0.00  0.00    +0.004 C 
ATOM      9  C   UNL     1      -4.154  -0.223  -3.256  0.00  0.00    +0.106 C 
ATOM     10  C   UNL     1      -4.470   1.267  -3.089  0.00  0.00    +0.148 C 
ATOM     11  C   UNL     1      -3.229   1.981  -2.638  0.00  0.00    +0.002 C 
ATOM     12  C   UNL     1      -2.058   1.612  -3.162  0.00  0.00    +0.007 C 
ATOM     13  N   UNL     1      -5.588   1.423  -2.175  0.00  0.00    -0.285 NA
ATOM     14  C   UNL     1      -6.430   0.492  -1.978  0.00  0.00    +0.093 C 
ATOM     15  C   UNL     1      -6.374  -0.860  -2.623  0.00  0.00    +0.128 C 
ATOM     16  N   UNL     1      -5.377  -0.895  -3.706  0.00  0.00    -0.303 NA
ATOM     17  H   UNL     1      -5.739  -0.465  -4.544  0.00  0.00    +0.123 HD
ENDBRANCH   2   7
BRANCH   1  22
ATOM     18  C   UNL     1       0.707  -0.490  -1.238  0.00  0.00    +0.042 A 
ATOM     19  C   UNL     1       1.777  -1.358  -1.118  0.00  0.00    +0.023 A 
ATOM     20  C   UNL     1       2.424  -1.805  -2.262  0.00  0.00    +0.004 A 
ATOM     21  C   UNL     1       1.972  -1.361  -3.492  0.00  0.00    +0.030 A 
ATOM     22  C   UNL     1       0.888  -0.485  -3.540  0.00  0.00    +0.092 A 
ATOM     23  N   UNL     1       0.293  -0.086  -2.421  0.00  0.00    -0.250 NA
BRANCH  18  25
ATOM     24  C   UNL     1      -0.019   1.526   0.010  0.00  0.00    +0.010 C 
ATOM     25  C   UNL     1       0.002  -0.004   0.002  0.00  0.00    +0.052 C 
ENDBRANCH  18  25
ENDBRANCH   1  22
BRANCH   4  26
ATOM     26  C   UNL     1       0.790   0.794  -8.362  0.00  0.00    +0.175 C 
BRANCH  26  27
ATOM     27  N   UNL     1       1.420   2.113  -8.462  0.00  0.00    -0.337 N 
ATOM     28  H   UNL     1       1.496   2.675  -7.676  0.00  0.00    +0.147 HD
BRANCH  27  29
ATOM     29  C   UNL     1       1.909   2.559  -9.687  0.00  0.00    +0.028 A 
ATOM     30  C   UNL     1       1.794   1.753 -10.816  0.00  0.00    +0.024 A 
ATOM     31  C   UNL     1       2.276   2.190 -12.028  0.00  0.00    +0.020 A 
ATOM     32  C   UNL     1       2.883   3.446 -12.125  0.00  0.00    +0.052 A 
ATOM     33  C   UNL     1       2.998   4.253 -10.989  0.00  0.00    +0.020 A 
ATOM     34  C   UNL     1       2.508   3.812  -9.781  0.00  0.00    +0.024 A 
BRANCH  32  35
ATOM     35  C   UNL     1       3.387   3.905 -13.385  0.00  0.00    +0.099 C 
ATOM     36  N   UNL     1       3.787   4.268 -14.384  0.00  0.00    -0.191 NA
ENDBRANCH  32  35
ENDBRANCH  27  29
ENDBRANCH  26  27
ENDBRANCH   4  26
TORSDOF 7
