REMARK  Name = CHEMBL183354
REMARK  2 active torsions:
REMARK  status: ('A' for Active; 'I' for Inactive)
REMARK    1  A    between atoms: C_5  and  C_7
REMARK    2  A    between atoms: C_8  and  C_13
REMARK                            x       y       z     vdW  Elec       q    Type
REMARK                         _______ _______ _______ _____ _____    ______ ____
ROOT
ATOM      1  C   UNL     1       1.267  -2.146  -0.022  0.00  0.00    +0.120 A 
ATOM      2  C   UNL     1       2.324  -2.954  -0.515  0.00  0.00    +0.047 A 
ATOM      3  C   UNL     1       1.962  -4.256  -0.336  0.00  0.00    +0.115 A 
ATOM      4  N   UNL     1       0.744  -4.271   0.239  0.00  0.00    -0.283 N 
ATOM      5  H   UNL     1       0.241  -5.064   0.482  0.00  0.00    +0.188 HD
ATOM      6  N   UNL     1       0.329  -2.948   0.432  0.00  0.00    -0.172 NA
ENDROOT
BRANCH   2   7
ATOM      7  C   UNL     1       3.589  -2.470  -1.115  0.00  0.00    +0.075 A 
ATOM      8  C   UNL     1       4.539  -3.404  -1.564  0.00  0.00    +0.030 A 
ATOM      9  C   UNL     1       5.706  -2.973  -2.118  0.00  0.00    +0.032 A 
ATOM     10  C   UNL     1       5.925  -1.583  -2.225  0.00  0.00    +0.089 A 
ATOM     11  C   UNL     1       4.927  -0.695  -1.753  0.00  0.00    +0.090 A 
ATOM     12  N   UNL     1       3.799  -1.172  -1.223  0.00  0.00    -0.245 NA
ATOM     13  C   UNL     1       5.149   0.693  -1.862  0.00  0.00    +0.031 A 
ATOM     14  C   UNL     1       6.322   1.118  -2.418  0.00  0.00    +0.022 A 
ATOM     15  C   UNL     1       7.260   0.188  -2.861  0.00  0.00    +0.111 A 
ATOM     16  N   UNL     1       7.049  -1.103  -2.759  0.00  0.00    -0.253 NA
ENDBRANCH   2   7
BRANCH   1  21
ATOM     17  C   UNL     1      -0.017   1.379   0.010  0.00  0.00    +0.004 A 
ATOM     18  C   UNL     1       1.194   2.059   0.002  0.00  0.00    +0.020 A 
ATOM     19  C   UNL     1       2.375   1.340  -0.013  0.00  0.00    +0.111 A 
ATOM     20  N   UNL     1       2.365   0.022  -0.020  0.00  0.00    -0.253 NA
ATOM     21  C   UNL     1       1.230  -0.665  -0.013  0.00  0.00    +0.092 A 
ATOM     22  C   UNL     1       0.002  -0.004   0.002  0.00  0.00    +0.030 A 
ENDBRANCH   1  21
TORSDOF 2
