REMARK  Name = CHEMBL575492
REMARK  8 active torsions:
REMARK  status: ('A' for Active; 'I' for Inactive)
REMARK    1  A    between atoms: C_1  and  C_2
REMARK    2  A    between atoms: C_4  and  O_15
REMARK    3  A    between atoms: C_5  and  C_9
REMARK    4  A    between atoms: C_7  and  C_8
REMARK    5  A    between atoms: O_15  and  C_16
REMARK    6  A    between atoms: N_22  and  C_23
REMARK    7  A    between atoms: C_28  and  O_29
REMARK    8  A    between atoms: O_29  and  C_30
REMARK                            x       y       z     vdW  Elec       q    Type
REMARK                         _______ _______ _______ _____ _____    ______ ____
ROOT
ATOM      1  C   UNL     1      -0.148  -2.027  -3.412  0.00  0.00    +0.133 A 
ATOM      2  C   UNL     1      -0.233  -2.642  -4.679  0.00  0.00    +0.064 A 
ATOM      3  C   UNL     1      -0.174  -1.896  -5.800  0.00  0.00    +0.088 A 
ATOM      4  N   UNL     1      -0.033  -0.542  -5.734  0.00  0.00    -0.346 N 
ATOM      5  C   UNL     1       0.053   0.094  -4.519  0.00  0.00    +0.135 A 
ATOM      6  C   UNL     1      -0.011  -0.657  -3.332  0.00  0.00    +0.092 A 
ATOM      7  N   UNL     1       0.191   1.413  -4.465  0.00  0.00    -0.227 NA
ATOM      8  H   UNL     1       0.008  -0.022  -6.552  0.00  0.00    +0.167 HD
ENDROOT
BRANCH   7   9
ATOM      9  C   UNL     1       0.113   2.155  -5.610  0.00  0.00    +0.108 A 
ATOM     10  C   UNL     1      -0.967   1.992  -6.480  0.00  0.00    +0.031 A 
ATOM     11  C   UNL     1      -1.040   2.745  -7.634  0.00  0.00    +0.002 A 
ATOM     12  C   UNL     1      -0.047   3.661  -7.933  0.00  0.00    +0.004 A 
ATOM     13  C   UNL     1       1.029   3.831  -7.078  0.00  0.00    +0.048 A 
ATOM     14  C   UNL     1       1.114   3.089  -5.914  0.00  0.00    +0.145 A 
BRANCH  14  15
ATOM     15  O   UNL     1       2.167   3.260  -5.071  0.00  0.00    -0.493 OA
ATOM     16  C   UNL     1       3.148   4.229  -5.447  0.00  0.00    +0.277 C 
ENDBRANCH  14  15
ENDBRANCH   7   9
BRANCH   1  17
ATOM     17  O   UNL     1      -0.207  -2.776  -2.284  0.00  0.00    -0.454 OA
BRANCH  17  21
ATOM     18  C   UNL     1       4.059  -4.804  -3.570  0.00  0.00    +0.046 C 
ATOM     19  C   UNL     1       2.902  -4.628  -2.621  0.00  0.00    -0.026 A 
ATOM     20  C   UNL     1       1.872  -3.753  -2.928  0.00  0.00    +0.053 A 
ATOM     21  C   UNL     1       0.824  -3.621  -2.025  0.00  0.00    +0.156 A 
ATOM     22  C   UNL     1       0.848  -4.372  -0.845  0.00  0.00    +0.131 A 
ATOM     23  N   UNL     1       1.855  -5.197  -0.594  0.00  0.00    -0.246 NA
ATOM     24  C   UNL     1       2.856  -5.343  -1.437  0.00  0.00    +0.042 A 
ATOM     25  C   UNL     1       3.973  -6.300  -1.104  0.00  0.00    +0.066 C 
BRANCH  22  26
ATOM     26  C   UNL     1      -0.261  -4.245   0.131  0.00  0.00    +0.093 A 
ATOM     27  C   UNL     1      -0.535  -5.295   1.006  0.00  0.00    +0.030 A 
ATOM     28  C   UNL     1      -1.573  -5.161   1.912  0.00  0.00    +0.004 A 
ATOM     29  C   UNL     1      -2.304  -3.982   1.912  0.00  0.00    +0.020 A 
ATOM     30  C   UNL     1      -1.978  -2.981   1.015  0.00  0.00    +0.111 A 
ATOM     31  N   UNL     1      -0.982  -3.132   0.167  0.00  0.00    -0.253 NA
ENDBRANCH  22  26
ENDBRANCH  17  21
ENDBRANCH   1  17
TORSDOF 5
