REMARK  Name = CHEMBL583549
REMARK  4 active torsions:
REMARK  status: ('A' for Active; 'I' for Inactive)
REMARK    1  A    between atoms: C_5  and  C_7
REMARK    2  A    between atoms: C_8  and  C_22
REMARK    3  A    between atoms: C_10  and  C_13
REMARK    4  A    between atoms: C_16  and  C_19
REMARK                            x       y       z     vdW  Elec       q    Type
REMARK                         _______ _______ _______ _____ _____    ______ ____
ROOT
ATOM      1  C   UNL     1       1.329  -2.143   0.071  0.00  0.00    +0.092 A 
ATOM      2  C   UNL     1       2.257  -2.945  -0.589  0.00  0.00    +0.095 A 
ATOM      3  N   UNL     1       1.853  -4.220  -0.463  0.00  0.00    -0.227 NA
ATOM      4  C   UNL     1       0.738  -4.262   0.231  0.00  0.00    +0.139 A 
ATOM      5  N   UNL     1       0.380  -2.995   0.587  0.00  0.00    -0.336 N 
ATOM      6  H   UNL     1      -0.399  -2.741   1.106  0.00  0.00    +0.167 HD
ENDROOT
BRANCH   2   7
ATOM      7  C   UNL     1       3.459  -2.481  -1.296  0.00  0.00    -0.017 C 
ATOM      8  C   UNL     1       3.324  -1.641  -2.341  0.00  0.00    +0.009 C 
ATOM      9  C   UNL     1       4.515  -1.139  -3.037  0.00  0.00    +0.044 C 
ATOM     10  C   UNL     1       5.694  -1.278  -2.417  0.00  0.00    +0.130 C 
ATOM     11  C   UNL     1       5.834  -1.830  -1.004  0.00  0.00    +0.191 C 
ATOM     12  C   UNL     1       4.813  -2.950  -0.829  0.00  0.00    +0.077 C 
ATOM     13  O   UNL     1       7.176  -2.369  -1.022  0.00  0.00    -0.333 OA
ATOM     14  C   UNL     1       7.875  -1.392  -1.831  0.00  0.00    +0.395 C 
ATOM     15  O   UNL     1       6.939  -0.979  -2.844  0.00  0.00    -0.468 OA
ENDBRANCH   2   7
BRANCH   1  20
ATOM     16  C   UNL     1       0.219   1.408   0.505  0.00  0.00    +0.004 A 
ATOM     17  C   UNL     1       1.454   2.038   0.429  0.00  0.00    +0.020 A 
ATOM     18  C   UNL     1       2.594   1.279   0.240  0.00  0.00    +0.111 A 
ATOM     19  N   UNL     1       2.524  -0.032   0.131  0.00  0.00    -0.253 NA
ATOM     20  C   UNL     1       1.362  -0.675   0.198  0.00  0.00    +0.089 A 
ATOM     21  C   UNL     1       0.171   0.032   0.389  0.00  0.00    +0.030 A 
ENDBRANCH   1  20
BRANCH   4  22
ATOM     22  C   UNL     1      -0.008  -5.490   0.575  0.00  0.00    +0.017 A 
ATOM     23  C   UNL     1      -1.190  -5.404   1.316  0.00  0.00    +0.012 A 
ATOM     24  C   UNL     1      -1.883  -6.543   1.636  0.00  0.00    +0.016 A 
ATOM     25  C   UNL     1      -1.407  -7.791   1.220  0.00  0.00    +0.063 A 
ATOM     26  C   UNL     1      -0.224  -7.876   0.478  0.00  0.00    +0.016 A 
ATOM     27  C   UNL     1       0.465  -6.736   0.154  0.00  0.00    +0.012 A 
BRANCH  25  28
ATOM     28  C   UNL     1      -2.151  -9.016   1.564  0.00  0.00    +0.387 C 
ATOM     29  O   UNL     1      -3.185  -8.941   2.213  0.00  0.00    -0.241 OA
ATOM     30  O   UNL     1      -1.735 -10.107   1.200  0.00  0.00    -0.241 OA
ENDBRANCH  25  28
ENDBRANCH   4  22
TORSDOF 4
