REMARK  Name = CHEMBL440084
REMARK  4 active torsions:
REMARK  status: ('A' for Active; 'I' for Inactive)
REMARK    1  A    between atoms: C_5  and  C_7
REMARK    2  A    between atoms: C_8  and  C_22
REMARK    3  A    between atoms: C_11  and  C_13
REMARK    4  A    between atoms: C_16  and  C_19
REMARK                            x       y       z     vdW  Elec       q    Type
REMARK                         _______ _______ _______ _____ _____    ______ ____
ROOT
ATOM      1  C   UNL     1       1.271  -2.140  -0.022  0.00  0.00    +0.093 A 
ATOM      2  C   UNL     1       2.295  -2.942  -0.505  0.00  0.00    +0.099 A 
ATOM      3  N   UNL     1       1.932  -4.219  -0.323  0.00  0.00    -0.227 NA
ATOM      4  H   UNL     1      -0.541  -2.737   0.860  0.00  0.00    +0.167 HD
ATOM      5  C   UNL     1       0.747  -4.265   0.243  0.00  0.00    +0.139 A 
ATOM      6  N   UNL     1       0.302  -2.993   0.454  0.00  0.00    -0.336 N 
ENDROOT
BRANCH   2   7
ATOM      7  C   UNL     1       3.561  -2.470  -1.113  0.00  0.00    +0.006 A 
ATOM      8  C   UNL     1       3.574  -1.312  -1.890  0.00  0.00    +0.014 A 
ATOM      9  C   UNL     1       4.754  -0.875  -2.456  0.00  0.00    +0.050 A 
ATOM     10  C   UNL     1       5.929  -1.583  -2.255  0.00  0.00    +0.166 A 
ATOM     11  C   UNL     1       5.922  -2.742  -1.479  0.00  0.00    +0.167 A 
ATOM     12  C   UNL     1       4.742  -3.181  -0.906  0.00  0.00    +0.059 A 
ATOM     13  O   UNL     1       7.190  -3.246  -1.437  0.00  0.00    -0.453 OA
ATOM     14  C   UNL     1       7.891  -2.616  -2.525  0.00  0.00    +0.466 C 
ATOM     15  O   UNL     1       7.202  -1.363  -2.697  0.00  0.00    -0.453 OA
ENDBRANCH   2   7
BRANCH   1  20
ATOM     16  C   UNL     1      -0.017   1.378   0.010  0.00  0.00    +0.004 A 
ATOM     17  C   UNL     1       1.194   2.059   0.002  0.00  0.00    +0.020 A 
ATOM     18  C   UNL     1       2.376   1.342  -0.013  0.00  0.00    +0.111 A 
ATOM     19  N   UNL     1       2.369   0.024  -0.020  0.00  0.00    -0.253 NA
ATOM     20  C   UNL     1       1.233  -0.666  -0.013  0.00  0.00    +0.089 A 
ATOM     21  C   UNL     1       0.002  -0.004   0.002  0.00  0.00    +0.030 A 
ENDBRANCH   1  20
BRANCH   5  22
ATOM     22  C   UNL     1       0.016  -5.498   0.601  0.00  0.00    +0.017 A 
ATOM     23  C   UNL     1      -1.245  -5.414   1.196  0.00  0.00    +0.012 A 
ATOM     24  C   UNL     1      -1.927  -6.562   1.529  0.00  0.00    +0.014 A 
ATOM     25  C   UNL     1      -1.357  -7.812   1.272  0.00  0.00    +0.037 A 
ATOM     26  C   UNL     1      -0.095  -7.896   0.677  0.00  0.00    +0.014 A 
ATOM     27  C   UNL     1       0.584  -6.748   0.339  0.00  0.00    +0.012 A 
BRANCH  25  28
ATOM     28  C   UNL     1      -2.088  -9.045   1.630  0.00  0.00    +0.242 C 
ATOM     29  O   UNL     1      -3.185  -8.972   2.148  0.00  0.00    -0.270 OA
ATOM     30  N   UNL     1      -1.538 -10.251   1.382  0.00  0.00    -0.325 N 
ATOM     31  H   UNL     1      -0.663 -10.309   0.969  0.00  0.00    +0.145 HD
ATOM     32  H   UNL     1      -2.019 -11.060   1.617  0.00  0.00    +0.145 HD
ENDBRANCH  25  28
ENDBRANCH   5  22
TORSDOF 4
