REMARK  Name = CHEMBL575721
REMARK  9 active torsions:
REMARK  status: ('A' for Active; 'I' for Inactive)
REMARK    1  A    between atoms: C_1  and  C_2
REMARK    2  A    between atoms: C_4  and  O_15
REMARK    3  A    between atoms: C_5  and  C_9
REMARK    4  A    between atoms: C_7  and  C_8
REMARK    5  A    between atoms: O_15  and  C_16
REMARK    6  A    between atoms: C_20  and  N_22
REMARK    7  A    between atoms: N_22  and  C_23
REMARK    8  A    between atoms: C_27  and  O_29
REMARK    9  A    between atoms: O_29  and  C_30
REMARK                            x       y       z     vdW  Elec       q    Type
REMARK                         _______ _______ _______ _____ _____    ______ ____
ROOT
ATOM      1  C   UNL     1      -0.766  -2.143  -3.594  0.00  0.00    +0.133 A 
ATOM      2  C   UNL     1      -0.823  -0.759  -3.756  0.00  0.00    +0.064 A 
ATOM      3  C   UNL     1      -0.671  -0.222  -5.017  0.00  0.00    +0.088 A 
ATOM      4  N   UNL     1      -0.473  -0.999  -6.066  0.00  0.00    -0.349 N 
ATOM      5  C   UNL     1      -0.412  -2.318  -5.956  0.00  0.00    +0.104 A 
ATOM      6  C   UNL     1      -0.550  -2.932  -4.718  0.00  0.00    +0.088 A 
ATOM      7  H   UNL     1      -0.370  -0.593  -6.941  0.00  0.00    +0.167 HD
ENDROOT
BRANCH   5   8
ATOM      8  N   UNL     1      -0.202  -3.095  -7.090  0.00  0.00    -0.301 N 
ATOM      9  H   UNL     1       0.031  -2.672  -7.931  0.00  0.00    +0.154 HD
BRANCH   8  10
ATOM     10  C   UNL     1      -0.327  -4.485  -7.019  0.00  0.00    +0.036 A 
ATOM     11  C   UNL     1      -1.371  -5.053  -6.298  0.00  0.00    +0.023 A 
ATOM     12  C   UNL     1      -1.495  -6.427  -6.228  0.00  0.00    +0.005 A 
ATOM     13  C   UNL     1      -0.582  -7.240  -6.872  0.00  0.00    +0.046 A 
ATOM     14  C   UNL     1       0.463  -6.678  -7.593  0.00  0.00    +0.122 A 
ATOM     15  C   UNL     1       0.587  -5.300  -7.671  0.00  0.00    +0.069 A 
BRANCH  14  16
ATOM     16  O   UNL     1       1.361  -7.479  -8.225  0.00  0.00    -0.495 OA
ATOM     17  C   UNL     1       1.168  -8.890  -8.107  0.00  0.00    +0.277 C 
ENDBRANCH  14  16
ENDBRANCH   8  10
ENDBRANCH   5   8
BRANCH   1  18
ATOM     18  O   UNL     1      -0.911  -2.706  -2.367  0.00  0.00    -0.454 OA
BRANCH  18  22
ATOM     19  C   UNL     1      -5.723  -1.868  -2.703  0.00  0.00    +0.046 C 
ATOM     20  C   UNL     1      -4.516  -2.421  -1.991  0.00  0.00    -0.026 A 
ATOM     21  C   UNL     1      -3.254  -2.288  -2.549  0.00  0.00    +0.053 A 
ATOM     22  C   UNL     1      -2.166  -2.812  -1.859  0.00  0.00    +0.156 A 
ATOM     23  C   UNL     1      -2.385  -3.451  -0.635  0.00  0.00    +0.131 A 
ATOM     24  N   UNL     1      -3.612  -3.554  -0.140  0.00  0.00    -0.246 NA
ATOM     25  C   UNL     1      -4.656  -3.061  -0.772  0.00  0.00    +0.042 A 
ATOM     26  C   UNL     1      -6.027  -3.201  -0.162  0.00  0.00    +0.066 C 
BRANCH  23  27
ATOM     27  C   UNL     1      -1.239  -4.017   0.116  0.00  0.00    +0.093 A 
ATOM     28  C   UNL     1      -1.329  -4.178   1.497  0.00  0.00    +0.030 A 
ATOM     29  C   UNL     1      -0.250  -4.708   2.184  0.00  0.00    +0.004 A 
ATOM     30  C   UNL     1       0.884  -5.060   1.466  0.00  0.00    +0.020 A 
ATOM     31  C   UNL     1       0.905  -4.873   0.096  0.00  0.00    +0.111 A 
ATOM     32  N   UNL     1      -0.138  -4.371  -0.534  0.00  0.00    -0.253 NA
ENDBRANCH  23  27
ENDBRANCH  18  22
ENDBRANCH   1  18
TORSDOF 6
