REMARK  Name = CHEMBL574415
REMARK  12 active torsions:
REMARK  status: ('A' for Active; 'I' for Inactive)
REMARK    1  A    between atoms: C_1  and  C_2
REMARK    2  A    between atoms: C_5  and  O_9
REMARK    3  A    between atoms: C_6  and  C_8
REMARK    4  A    between atoms: O_9  and  C_10
REMARK    5  A    between atoms: C_14  and  N_16
REMARK    6  A    between atoms: N_16  and  C_17
REMARK    7  A    between atoms: C_19  and  O_27
REMARK    8  A    between atoms: C_20  and  O_25
REMARK    9  A    between atoms: C_21  and  O_23
REMARK   10  A    between atoms: O_23  and  C_24
REMARK   11  A    between atoms: O_25  and  C_26
REMARK   12  A    between atoms: O_27  and  C_28
REMARK                            x       y       z     vdW  Elec       q    Type
REMARK                         _______ _______ _______ _____ _____    ______ ____
ROOT
ATOM      1  C   UNL     1      -0.712  -4.871  -1.150  0.00  0.00    +0.133 A 
ATOM      2  C   UNL     1      -0.764  -4.322  -2.431  0.00  0.00    +0.064 A 
ATOM      3  C   UNL     1      -0.593  -5.144  -3.524  0.00  0.00    +0.088 A 
ATOM      4  N   UNL     1      -0.383  -6.439  -3.373  0.00  0.00    -0.349 N 
ATOM      5  C   UNL     1      -0.327  -7.001  -2.174  0.00  0.00    +0.104 A 
ATOM      6  C   UNL     1      -0.484  -6.236  -1.025  0.00  0.00    +0.088 A 
ATOM      7  H   UNL     1      -0.267  -6.993  -4.160  0.00  0.00    +0.167 HD
ENDROOT
BRANCH   5   8
ATOM      8  N   UNL     1      -0.104  -8.370  -2.065  0.00  0.00    -0.301 N 
ATOM      9  H   UNL     1       0.141  -8.885  -2.849  0.00  0.00    +0.154 HD
BRANCH   8  10
ATOM     10  C   UNL     1      -0.235  -9.003  -0.824  0.00  0.00    +0.040 A 
ATOM     11  C   UNL     1      -1.290  -8.673   0.017  0.00  0.00    +0.073 A 
ATOM     12  C   UNL     1      -1.419  -9.300   1.246  0.00  0.00    +0.167 A 
ATOM     13  C   UNL     1      -0.493 -10.259   1.638  0.00  0.00    +0.204 A 
ATOM     14  C   UNL     1       0.563 -10.589   0.796  0.00  0.00    +0.167 A 
ATOM     15  C   UNL     1       0.688  -9.965  -0.436  0.00  0.00    +0.073 A 
BRANCH  14  16
ATOM     16  O   UNL     1       1.470 -11.527   1.178  0.00  0.00    -0.491 OA
ATOM     17  C   UNL     1       2.529 -11.817   0.264  0.00  0.00    +0.277 C 
ENDBRANCH  14  16
BRANCH  13  18
ATOM     18  O   UNL     1      -0.619 -10.875   2.846  0.00  0.00    -0.488 OA
ATOM     19  C   UNL     1      -1.392 -12.076   2.884  0.00  0.00    +0.277 C 
ENDBRANCH  13  18
BRANCH  12  20
ATOM     20  O   UNL     1      -2.452  -8.976   2.069  0.00  0.00    -0.491 OA
ATOM     21  C   UNL     1      -3.366  -7.982   1.603  0.00  0.00    +0.277 C 
ENDBRANCH  12  20
ENDBRANCH   8  10
ENDBRANCH   5   8
BRANCH   1  22
ATOM     22  O   UNL     1      -0.876  -4.090  -0.051  0.00  0.00    -0.454 OA
BRANCH  22  27
ATOM     23  C   UNL     1      -6.015  -2.487   1.443  0.00  0.00    +0.065 C 
ATOM     24  C   UNL     1      -4.638  -2.930   1.020  0.00  0.00    +0.039 A 
ATOM     25  C   UNL     1      -4.484  -3.661  -0.144  0.00  0.00    +0.026 A 
ATOM     26  C   UNL     1      -3.216  -4.065  -0.526  0.00  0.00    +0.050 A 
ATOM     27  C   UNL     1      -2.139  -3.716   0.283  0.00  0.00    +0.149 A 
ATOM     28  C   UNL     1      -2.373  -2.981   1.436  0.00  0.00    +0.081 A 
ATOM     29  N   UNL     1      -3.596  -2.612   1.762  0.00  0.00    -0.253 NA
ATOM     30  C   UNL     1      -1.216  -2.596   2.323  0.00  0.00    +0.069 C 
ENDBRANCH  22  27
ENDBRANCH   1  22
TORSDOF 7
