REMARK  Name = CHEMBL181640
REMARK  2 active torsions:
REMARK  status: ('A' for Active; 'I' for Inactive)
REMARK    1  A    between atoms: C_7  and  C_11
REMARK    2  A    between atoms: C_12  and  C_17
REMARK                            x       y       z     vdW  Elec       q    Type
REMARK                         _______ _______ _______ _____ _____    ______ ____
ROOT
ATOM      1  C   UNL     1       0.089  -2.984   0.123  0.00  0.00    +0.051 A 
ATOM      2  C   UNL     1      -0.049  -4.354  -0.108  0.00  0.00    +0.106 A 
ATOM      3  N   UNL     1      -1.264  -4.860  -0.208  0.00  0.00    -0.223 NA
ATOM      4  C   UNL     1      -2.341  -4.101  -0.094  0.00  0.00    +0.157 A 
ATOM      5  S   UNL     1      -1.627  -2.488   0.193  0.00  0.00    -0.052 S 
ATOM      6  N   UNL     1      -3.672  -4.463  -0.171  0.00  0.00    -0.337 N 
ATOM      7  H   UNL     1      -3.915  -5.389  -0.328  0.00  0.00    +0.144 HD
ATOM      8  H   UNL     1      -4.364  -3.792  -0.067  0.00  0.00    +0.144 HD
ENDROOT
BRANCH   1  15
ATOM      9  C   UNL     1       0.757   0.691  -2.064  0.00  0.00    +0.001 A 
ATOM     10  C   UNL     1       1.933   1.414  -1.878  0.00  0.00    +0.002 A 
ATOM     11  C   UNL     1       2.891   0.985  -1.011  0.00  0.00    +0.028 A 
ATOM     12  C   UNL     1       2.696  -0.206  -0.290  0.00  0.00    +0.072 A 
ATOM     13  C   UNL     1       1.499  -0.936  -0.484  0.00  0.00    +0.009 A 
ATOM     14  C   UNL     1       0.534  -0.468  -1.382  0.00  0.00    +0.010 A 
ATOM     15  C   UNL     1       1.307  -2.176   0.273  0.00  0.00    +0.002 A 
ATOM     16  C   UNL     1       2.331  -2.555   1.143  0.00  0.00    +0.029 A 
ATOM     17  C   UNL     1       3.461  -1.762   1.254  0.00  0.00    +0.112 A 
ATOM     18  N   UNL     1       3.618  -0.654   0.569  0.00  0.00    -0.255 NA
ENDBRANCH   1  15
BRANCH   2  19
ATOM     19  C   UNL     1       1.143  -5.221  -0.239  0.00  0.00    +0.090 A 
ATOM     20  C   UNL     1       1.051  -6.577   0.077  0.00  0.00    +0.030 A 
ATOM     21  C   UNL     1       2.174  -7.374  -0.050  0.00  0.00    +0.004 A 
ATOM     22  C   UNL     1       3.355  -6.791  -0.490  0.00  0.00    +0.020 A 
ATOM     23  C   UNL     1       3.376  -5.441  -0.787  0.00  0.00    +0.111 A 
ATOM     24  N   UNL     1       2.291  -4.704  -0.662  0.00  0.00    -0.253 NA
ENDBRANCH   2  19
TORSDOF 2
