REMARK  Name = CHEMBL575720
REMARK  8 active torsions:
REMARK  status: ('A' for Active; 'I' for Inactive)
REMARK    1  A    between atoms: C_1  and  C_2
REMARK    2  A    between atoms: C_4  and  O_15
REMARK    3  A    between atoms: C_5  and  C_9
REMARK    4  A    between atoms: C_7  and  C_8
REMARK    5  A    between atoms: O_15  and  C_16
REMARK    6  A    between atoms: C_20  and  N_22
REMARK    7  A    between atoms: N_22  and  C_23
REMARK    8  A    between atoms: C_28  and  N_29
REMARK                            x       y       z     vdW  Elec       q    Type
REMARK                         _______ _______ _______ _____ _____    ______ ____
ROOT
ATOM      1  C   UNL     1      -0.239  -2.208  -3.533  0.00  0.00    +0.133 A 
ATOM      2  C   UNL     1       0.034  -0.845  -3.650  0.00  0.00    +0.064 A 
ATOM      3  C   UNL     1       0.216  -0.300  -4.903  0.00  0.00    +0.088 A 
ATOM      4  N   UNL     1       0.134  -1.049  -5.987  0.00  0.00    -0.349 N 
ATOM      5  C   UNL     1      -0.124  -2.347  -5.920  0.00  0.00    +0.104 A 
ATOM      6  C   UNL     1      -0.313  -2.969  -4.693  0.00  0.00    +0.088 A 
ATOM      7  H   UNL     1       0.266  -0.638  -6.855  0.00  0.00    +0.167 HD
ENDROOT
BRANCH   5   8
ATOM      8  N   UNL     1      -0.201  -3.095  -7.090  0.00  0.00    -0.299 N 
ATOM      9  H   UNL     1       0.241  -2.783  -7.895  0.00  0.00    +0.154 HD
BRANCH   8  10
ATOM     10  C   UNL     1      -0.918  -4.298  -7.106  0.00  0.00    +0.054 A 
ATOM     11  C   UNL     1      -1.952  -4.503  -6.206  0.00  0.00    +0.025 A 
ATOM     12  C   UNL     1      -2.659  -5.691  -6.224  0.00  0.00    +0.002 A 
ATOM     13  C   UNL     1      -2.338  -6.678  -7.138  0.00  0.00    +0.002 A 
ATOM     14  C   UNL     1      -1.308  -6.481  -8.040  0.00  0.00    +0.025 A 
ATOM     15  C   UNL     1      -0.597  -5.290  -8.032  0.00  0.00    +0.051 A 
BRANCH  15  16
ATOM     16  N   UNL     1       0.442  -5.087  -8.948  0.00  0.00    -0.324 N 
ATOM     17  C   UNL     1       1.822  -5.482  -8.627  0.00  0.00    +0.133 C 
ATOM     18  C   UNL     1       2.367  -6.323  -9.787  0.00  0.00    +0.178 C 
ATOM     19  O   UNL     1       2.179  -5.612 -11.012  0.00  0.00    -0.377 OA
ATOM     20  C   UNL     1       0.810  -5.363 -11.341  0.00  0.00    +0.178 C 
ATOM     21  C   UNL     1       0.185  -4.478 -10.262  0.00  0.00    +0.133 C 
ENDBRANCH  15  16
ENDBRANCH   8  10
ENDBRANCH   5   8
BRANCH   1  22
ATOM     22  O   UNL     1      -0.423  -2.778  -2.314  0.00  0.00    -0.454 OA
BRANCH  22  26
ATOM     23  C   UNL     1      -5.210  -1.851  -2.759  0.00  0.00    +0.046 C 
ATOM     24  C   UNL     1      -4.024  -2.388  -2.001  0.00  0.00    -0.026 A 
ATOM     25  C   UNL     1      -2.753  -2.318  -2.550  0.00  0.00    +0.053 A 
ATOM     26  C   UNL     1      -1.686  -2.824  -1.817  0.00  0.00    +0.156 A 
ATOM     27  C   UNL     1      -1.934  -3.384  -0.559  0.00  0.00    +0.131 A 
ATOM     28  N   UNL     1      -3.167  -3.429  -0.074  0.00  0.00    -0.246 NA
ATOM     29  C   UNL     1      -4.193  -2.951  -0.748  0.00  0.00    +0.042 A 
ATOM     30  C   UNL     1      -5.573  -3.022  -0.147  0.00  0.00    +0.066 C 
BRANCH  27  31
ATOM     31  C   UNL     1      -0.809  -3.930   0.238  0.00  0.00    +0.093 A 
ATOM     32  C   UNL     1      -0.918  -4.006   1.625  0.00  0.00    +0.030 A 
ATOM     33  C   UNL     1       0.140  -4.519   2.356  0.00  0.00    +0.004 A 
ATOM     34  C   UNL     1       1.273  -4.939   1.674  0.00  0.00    +0.020 A 
ATOM     35  C   UNL     1       1.314  -4.835   0.296  0.00  0.00    +0.111 A 
ATOM     36  N   UNL     1       0.291  -4.347  -0.376  0.00  0.00    -0.253 NA
ENDBRANCH  27  31
ENDBRANCH  22  26
ENDBRANCH   1  22
TORSDOF 6
