REMARK  Name = CHEMBL261454
REMARK  2 active torsions:
REMARK  status: ('A' for Active; 'I' for Inactive)
REMARK    1  A    between atoms: C_7  and  C_11
REMARK    2  A    between atoms: C_16  and  C_17
REMARK                            x       y       z     vdW  Elec       q    Type
REMARK                         _______ _______ _______ _____ _____    ______ ____
ROOT
ATOM      1  C   UNL     1       0.060  -2.916  -0.013  0.00  0.00    +0.029 A 
ATOM      2  C   UNL     1      -0.361  -3.782   1.013  0.00  0.00    +0.143 A 
ATOM      3  N   UNL     1      -1.493  -4.327   0.658  0.00  0.00    -0.181 NA
ATOM      4  H   UNL     1      -2.657  -4.091  -1.097  0.00  0.00    +0.189 HD
ATOM      5  N   UNL     1      -1.859  -3.846  -0.604  0.00  0.00    -0.275 N 
ATOM      6  C   UNL     1      -0.902  -2.969  -1.017  0.00  0.00    +0.092 A 
ENDROOT
BRANCH   1  13
ATOM      7  C   UNL     1      -0.016   1.359   0.009  0.00  0.00    +0.001 A 
ATOM      8  C   UNL     1       1.170   2.088   0.002  0.00  0.00    +0.002 A 
ATOM      9  C   UNL     1       2.379   1.462  -0.013  0.00  0.00    +0.028 A 
ATOM     10  C   UNL     1       2.437   0.058  -0.021  0.00  0.00    +0.072 A 
ATOM     11  C   UNL     1       1.229  -0.680  -0.013  0.00  0.00    +0.008 A 
ATOM     12  C   UNL     1       0.002  -0.004   0.002  0.00  0.00    +0.010 A 
ATOM     13  C   UNL     1       1.291  -2.097  -0.021  0.00  0.00    -0.004 A 
ATOM     14  C   UNL     1       2.548  -2.691  -0.036  0.00  0.00    +0.029 A 
ATOM     15  C   UNL     1       3.684  -1.893  -0.043  0.00  0.00    +0.112 A 
ATOM     16  N   UNL     1       3.611  -0.582  -0.035  0.00  0.00    -0.255 NA
ENDBRANCH   1  13
BRANCH   6  17
ATOM     17  C   UNL     1      -0.888  -2.220  -2.289  0.00  0.00    +0.089 A 
ATOM     18  C   UNL     1      -1.585  -2.715  -3.393  0.00  0.00    +0.030 A 
ATOM     19  C   UNL     1      -1.561  -2.000  -4.577  0.00  0.00    +0.004 A 
ATOM     20  C   UNL     1      -0.843  -0.813  -4.622  0.00  0.00    +0.020 A 
ATOM     21  C   UNL     1      -0.175  -0.381  -3.491  0.00  0.00    +0.111 A 
ATOM     22  N   UNL     1      -0.216  -1.076  -2.373  0.00  0.00    -0.253 NA
ENDBRANCH   6  17
TORSDOF 2
