REMARK  Name = CHEMBL185238
REMARK  3 active torsions:
REMARK  status: ('A' for Active; 'I' for Inactive)
REMARK    1  A    between atoms: C_1  and  C_2
REMARK    2  A    between atoms: C_6  and  C_8
REMARK    3  A    between atoms: C_9  and  C_14
REMARK                            x       y       z     vdW  Elec       q    Type
REMARK                         _______ _______ _______ _____ _____    ______ ____
ROOT
ATOM      1  C   UNL     1       0.142  -2.640   2.520  0.00  0.00    +0.093 A 
ATOM      2  C   UNL     1       0.754  -2.133   3.661  0.00  0.00    +0.047 A 
ATOM      3  C   UNL     1       0.827  -3.182   4.596  0.00  0.00    +0.144 A 
ATOM      4  N   UNL     1       0.297  -4.250   4.063  0.00  0.00    -0.181 NA
ATOM      5  H   UNL     1      -0.579  -4.562   2.158  0.00  0.00    +0.189 HD
ATOM      6  N   UNL     1      -0.145  -3.947   2.771  0.00  0.00    -0.275 N 
ENDROOT
BRANCH   2   7
ATOM      7  C   UNL     1       1.239  -0.748   3.855  0.00  0.00    +0.075 A 
ATOM      8  C   UNL     1       0.921  -0.068   5.043  0.00  0.00    +0.030 A 
ATOM      9  C   UNL     1       1.362   1.206   5.235  0.00  0.00    +0.032 A 
ATOM     10  C   UNL     1       2.134   1.810   4.219  0.00  0.00    +0.089 A 
ATOM     11  C   UNL     1       2.419   1.069   3.045  0.00  0.00    +0.090 A 
ATOM     12  N   UNL     1       1.966  -0.179   2.911  0.00  0.00    -0.245 NA
ATOM     13  C   UNL     1       3.191   1.675   2.033  0.00  0.00    +0.031 A 
ATOM     14  C   UNL     1       3.629   2.953   2.232  0.00  0.00    +0.022 A 
ATOM     15  C   UNL     1       3.311   3.622   3.412  0.00  0.00    +0.111 A 
ATOM     16  N   UNL     1       2.593   3.055   4.352  0.00  0.00    -0.253 NA
ENDBRANCH   2   7
BRANCH   1  22
ATOM     17  C   UNL     1      -0.744   1.609   0.326  0.00  0.00    +0.065 C 
ATOM     18  C   UNL     1      -0.569   0.115   0.228  0.00  0.00    +0.039 A 
ATOM     19  C   UNL     1      -0.683  -0.505  -1.003  0.00  0.00    +0.023 A 
ATOM     20  C   UNL     1      -0.522  -1.881  -1.091  0.00  0.00    +0.004 A 
ATOM     21  C   UNL     1      -0.249  -2.589   0.067  0.00  0.00    +0.030 A 
ATOM     22  C   UNL     1      -0.148  -1.899   1.275  0.00  0.00    +0.089 A 
ATOM     23  N   UNL     1      -0.304  -0.580   1.314  0.00  0.00    -0.250 NA
ENDBRANCH   1  22
TORSDOF 2
