REMARK  Name = CHEMBL517068
REMARK  6 active torsions:
REMARK  status: ('A' for Active; 'I' for Inactive)
REMARK    1  A    between atoms: C_1  and  C_2
REMARK    2  A    between atoms: C_6  and  C_8
REMARK    3  A    between atoms: C_9  and  C_18
REMARK    4  A    between atoms: C_12  and  N_14
REMARK    5  A    between atoms: N_14  and  C_15
REMARK    6  A    between atoms: C_15  and  C_17
REMARK                            x       y       z     vdW  Elec       q    Type
REMARK                         _______ _______ _______ _____ _____    ______ ____
ROOT
ATOM      1  C   UNL     1       0.050  -2.682   2.491  0.00  0.00    +0.117 A 
ATOM      2  C   UNL     1       0.515  -2.164   3.685  0.00  0.00    +0.078 A 
ATOM      3  N   UNL     1       0.337  -3.151   4.632  0.00  0.00    -0.324 N 
ATOM      4  H   UNL     1       0.566  -3.093   5.573  0.00  0.00    +0.169 HD
ATOM      5  C   UNL     1      -0.220  -4.220   4.000  0.00  0.00    +0.221 A 
ATOM      6  N   UNL     1      -0.392  -3.933   2.734  0.00  0.00    -0.211 NA
ENDROOT
BRANCH   2   7
ATOM      7  C   UNL     1       1.089  -0.821   3.903  0.00  0.00    +0.019 A 
ATOM      8  C   UNL     1       0.245   0.314   3.944  0.00  0.00    +0.015 A 
ATOM      9  C   UNL     1       0.786   1.544   4.146  0.00  0.00    +0.049 A 
ATOM     10  C   UNL     1       2.178   1.673   4.311  0.00  0.00    +0.156 A 
ATOM     11  N   UNL     1       2.966   2.723   4.518  0.00  0.00    -0.215 NA
ATOM     12  C   UNL     1       4.226   2.326   4.608  0.00  0.00    +0.246 A 
ATOM     13  N   UNL     1       4.290   1.023   4.463  0.00  0.00    -0.154 NA
ATOM     14  N   UNL     1       2.978   0.566   4.269  0.00  0.00    -0.220 N 
ATOM     15  C   UNL     1       2.446  -0.669   4.073  0.00  0.00    +0.124 A 
ENDBRANCH   2   7
BRANCH   1  21
ATOM     16  C   UNL     1      -0.018   1.503   0.010  0.00  0.00    +0.068 C 
ATOM     17  C   UNL     1       0.002  -0.004   0.002  0.00  0.00    +0.074 A 
ATOM     18  C   UNL     1       0.005  -0.681  -1.206  0.00  0.00    +0.144 A 
ATOM     19  C   UNL     1       0.024  -2.071  -1.209  0.00  0.00    +0.042 A 
ATOM     20  C   UNL     1       0.039  -2.733   0.005  0.00  0.00    +0.033 A 
ATOM     21  C   UNL     1       0.035  -1.988   1.185  0.00  0.00    +0.092 A 
ATOM     22  N   UNL     1       0.022  -0.660   1.144  0.00  0.00    -0.247 NA
ATOM     23  F   UNL     1      -0.010   0.003  -2.371  0.00  0.00    -0.204 F 
ENDBRANCH   1  21
BRANCH   5  24
ATOM     24  N   UNL     1      -0.557  -5.423   4.603  0.00  0.00    -0.150 NA
BRANCH  24  25
ATOM     25  C   UNL     1      -1.105  -6.414   3.872  0.00  0.00    +0.176 C 
ATOM     26  O   UNL     1      -1.304  -6.253   2.686  0.00  0.00    -0.497 OA
ATOM     27  C   UNL     1      -1.472  -7.721   4.527  0.00  0.00    +0.106 C 
ATOM     28  H   UNL     1      -1.700  -7.018   2.246  0.00  0.00    +0.293 HD
ENDBRANCH  24  25
ENDBRANCH   5  24
TORSDOF 4
