REMARK  Name = CHEMBL480742
REMARK  3 active torsions:
REMARK  status: ('A' for Active; 'I' for Inactive)
REMARK    1  A    between atoms: C_1  and  C_2
REMARK    2  A    between atoms: C_6  and  C_8
REMARK    3  A    between atoms: C_9  and  C_14
REMARK                            x       y       z     vdW  Elec       q    Type
REMARK                         _______ _______ _______ _____ _____    ______ ____
ROOT
ATOM      1  C   UNL     1       0.051  -2.682   2.485  0.00  0.00    +0.094 A 
ATOM      2  C   UNL     1       0.513  -2.178   3.687  0.00  0.00    +0.100 A 
ATOM      3  N   UNL     1       0.345  -3.133   4.622  0.00  0.00    -0.214 NA
ATOM      4  C   UNL     1      -0.191  -4.197   4.073  0.00  0.00    +0.191 A 
ATOM      5  N   UNL     1      -0.398  -3.963   2.749  0.00  0.00    -0.325 N 
ATOM      6  N   UNL     1      -0.502  -5.368   4.736  0.00  0.00    -0.329 N 
ATOM      7  H   UNL     1      -0.324  -5.450   5.686  0.00  0.00    +0.145 HD
ATOM      8  H   UNL     1      -0.897  -6.109   4.251  0.00  0.00    +0.145 HD
ATOM      9  H   UNL     1      -0.785  -4.580   2.109  0.00  0.00    +0.169 HD
ENDROOT
BRANCH   2  10
ATOM     10  C   UNL     1       1.088  -0.831   3.907  0.00  0.00    +0.005 A 
ATOM     11  C   UNL     1       1.863  -0.231   2.900  0.00  0.00    +0.012 A 
ATOM     12  C   UNL     1       2.401   1.002   3.077  0.00  0.00    +0.030 A 
ATOM     13  C   UNL     1       2.186   1.698   4.282  0.00  0.00    +0.089 A 
ATOM     14  C   UNL     1       1.405   1.103   5.306  0.00  0.00    +0.090 A 
ATOM     15  C   UNL     1       0.853  -0.171   5.100  0.00  0.00    +0.040 A 
ATOM     16  N   UNL     1       1.200   1.765   6.450  0.00  0.00    -0.252 NA
ATOM     17  C   UNL     1       1.723   2.959   6.614  0.00  0.00    +0.131 A 
ATOM     18  C   UNL     1       2.491   3.545   5.606  0.00  0.00    +0.131 A 
ATOM     19  N   UNL     1       2.707   2.914   4.474  0.00  0.00    -0.252 NA
ENDBRANCH   2  10
BRANCH   1  25
ATOM     20  C   UNL     1      -0.018   1.503   0.010  0.00  0.00    +0.068 C 
ATOM     21  C   UNL     1       0.002  -0.004   0.002  0.00  0.00    +0.074 A 
ATOM     22  C   UNL     1       0.006  -0.680  -1.206  0.00  0.00    +0.144 A 
ATOM     23  C   UNL     1       0.025  -2.071  -1.210  0.00  0.00    +0.042 A 
ATOM     24  C   UNL     1       0.040  -2.735   0.002  0.00  0.00    +0.033 A 
ATOM     25  C   UNL     1       0.035  -1.989   1.184  0.00  0.00    +0.090 A 
ATOM     26  N   UNL     1       0.022  -0.660   1.144  0.00  0.00    -0.247 NA
ATOM     27  F   UNL     1      -0.010   0.004  -2.371  0.00  0.00    -0.204 F 
ENDBRANCH   1  25
TORSDOF 2
