REMARK  Name = CHEMBL594371
REMARK  6 active torsions:
REMARK  status: ('A' for Active; 'I' for Inactive)
REMARK    1  A    between atoms: C_1  and  C_2
REMARK    2  A    between atoms: C_2  and  C_3
REMARK    3  A    between atoms: C_7  and  C_9
REMARK    4  A    between atoms: C_10  and  C_17
REMARK    5  A    between atoms: N_11  and  C_16
REMARK    6  A    between atoms: N_12  and  C_15
REMARK                            x       y       z     vdW  Elec       q    Type
REMARK                         _______ _______ _______ _____ _____    ______ ____
ROOT
ATOM      1  C   UNL     1       4.178  -1.435  -2.396  0.00  0.00    +0.073 A 
ATOM      2  C   UNL     1       5.136  -0.761  -3.137  0.00  0.00    +0.078 A 
ATOM      3  N   UNL     1       6.371  -1.224  -2.755  0.00  0.00    -0.283 N 
ATOM      4  N   UNL     1       6.215  -2.199  -1.765  0.00  0.00    -0.252 N 
ATOM      5  C   UNL     1       4.900  -2.354  -1.512  0.00  0.00    +0.275 A 
ATOM      6  O   UNL     1       4.404  -3.117  -0.702  0.00  0.00    -0.266 OA
ATOM      7  C   UNL     1       7.302  -2.927  -1.106  0.00  0.00    +0.174 C 
ATOM      8  C   UNL     1       7.652  -0.768  -3.299  0.00  0.00    +0.171 C 
ENDROOT
BRANCH   2   9
ATOM      9  C   UNL     1       4.875   0.271  -4.158  0.00  0.00    +0.003 A 
ATOM     10  C   UNL     1       5.501   0.184  -5.416  0.00  0.00    +0.012 A 
ATOM     11  C   UNL     1       5.276   1.122  -6.370  0.00  0.00    +0.030 A 
ATOM     12  C   UNL     1       4.409   2.200  -6.110  0.00  0.00    +0.089 A 
ATOM     13  C   UNL     1       3.771   2.299  -4.847  0.00  0.00    +0.090 A 
ATOM     14  C   UNL     1       4.011   1.317  -3.873  0.00  0.00    +0.040 A 
ATOM     15  N   UNL     1       2.946   3.324  -4.602  0.00  0.00    -0.252 NA
ATOM     16  C   UNL     1       2.734   4.226  -5.532  0.00  0.00    +0.131 A 
ATOM     17  C   UNL     1       3.361   4.128  -6.776  0.00  0.00    +0.131 A 
ATOM     18  N   UNL     1       4.176   3.132  -7.040  0.00  0.00    -0.252 NA
ENDBRANCH   2   9
BRANCH   1  23
ATOM     19  C   UNL     1       0.641  -0.566  -1.476  0.00  0.00    -0.047 A 
ATOM     20  C   UNL     1      -0.033  -0.922  -2.630  0.00  0.00    +0.003 A 
ATOM     21  C   UNL     1       0.658  -1.445  -3.709  0.00  0.00    +0.001 A 
ATOM     22  C   UNL     1       2.026  -1.614  -3.639  0.00  0.00    +0.009 A 
ATOM     23  C   UNL     1       2.711  -1.256  -2.478  0.00  0.00    -0.010 A 
ATOM     24  C   UNL     1       2.009  -0.725  -1.395  0.00  0.00    +0.012 A 
BRANCH  19  26
ATOM     25  C   UNL     1      -0.192   1.525  -0.436  0.00  0.00    +0.009 C 
ATOM     26  C   UNL     1      -0.120   0.003  -0.306  0.00  0.00    +0.032 C 
ENDBRANCH  19  26
ENDBRANCH   1  23
TORSDOF 3
