REMARK  Name = CHEMBL610195
REMARK  4 active torsions:
REMARK  status: ('A' for Active; 'I' for Inactive)
REMARK    1  A    between atoms: C_1  and  N_2
REMARK    2  A    between atoms: C_3  and  C_14
REMARK    3  A    between atoms: C_4  and  C_9
REMARK    4  A    between atoms: N_7  and  C_8
REMARK                            x       y       z     vdW  Elec       q    Type
REMARK                         _______ _______ _______ _____ _____    ______ ____
ROOT
ATOM      1  C   UNL     1      -0.019   1.459  -0.104  0.00  0.00    +0.171 C 
ATOM      2  N   UNL     1       0.001  -0.005  -0.049  0.00  0.00    -0.283 N 
ATOM      3  C   UNL     1      -1.109  -0.814   0.003  0.00  0.00    +0.081 A 
ATOM      4  C   UNL     1      -0.676  -2.132   0.044  0.00  0.00    +0.108 A 
ATOM      5  C   UNL     1       0.791  -2.094   0.015  0.00  0.00    +0.278 A 
ATOM      6  O   UNL     1       1.539  -3.054   0.036  0.00  0.00    -0.265 OA
ATOM      7  N   UNL     1       1.153  -0.797  -0.046  0.00  0.00    -0.252 N 
ATOM      8  C   UNL     1       2.530  -0.299  -0.097  0.00  0.00    +0.174 C 
ENDROOT
BRANCH   3   9
ATOM      9  C   UNL     1      -2.511  -0.361   0.013  0.00  0.00    +0.003 A 
ATOM     10  C   UNL     1      -2.905   0.676   0.882  0.00  0.00    +0.012 A 
ATOM     11  C   UNL     1      -4.190   1.109   0.908  0.00  0.00    +0.030 A 
ATOM     12  C   UNL     1      -5.151   0.523   0.062  0.00  0.00    +0.089 A 
ATOM     13  C   UNL     1      -4.768  -0.522  -0.818  0.00  0.00    +0.090 A 
ATOM     14  C   UNL     1      -3.433  -0.954  -0.836  0.00  0.00    +0.040 A 
ATOM     15  N   UNL     1      -5.682  -1.077  -1.622  0.00  0.00    -0.252 NA
ATOM     16  C   UNL     1      -6.923  -0.650  -1.589  0.00  0.00    +0.131 A 
ATOM     17  C   UNL     1      -7.301   0.379  -0.724  0.00  0.00    +0.131 A 
ATOM     18  N   UNL     1      -6.421   0.939   0.076  0.00  0.00    -0.252 NA
ENDBRANCH   3   9
BRANCH   4  19
ATOM     19  C   UNL     1      -1.524  -3.336   0.106  0.00  0.00    +0.142 A 
ATOM     20  C   UNL     1      -1.619  -4.297  -0.854  0.00  0.00    +0.050 A 
ATOM     21  C   UNL     1      -2.539  -5.254  -0.381  0.00  0.00    +0.042 A 
ATOM     22  C   UNL     1      -2.956  -4.836   0.830  0.00  0.00    +0.196 A 
ATOM     23  O   UNL     1      -2.337  -3.679   1.124  0.00  0.00    -0.463 OA
ENDBRANCH   4  19
TORSDOF 2
