REMARK  Name = CHEMBL567505
REMARK  8 active torsions:
REMARK  status: ('A' for Active; 'I' for Inactive)
REMARK    1  A    between atoms: C_1  and  C_2
REMARK    2  A    between atoms: C_2  and  C_3
REMARK    3  A    between atoms: C_7  and  C_9
REMARK    4  A    between atoms: C_10  and  C_25
REMARK    5  A    between atoms: C_12  and  C_15
REMARK    6  A    between atoms: C_15  and  N_16
REMARK    7  A    between atoms: N_16  and  C_17
REMARK    8  A    between atoms: C_20  and  C_23
REMARK                            x       y       z     vdW  Elec       q    Type
REMARK                         _______ _______ _______ _____ _____    ______ ____
ROOT
ATOM      1  C   UNL     1       0.415   0.113  -4.816  0.00  0.00    +0.093 A 
ATOM      2  C   UNL     1      -0.903   0.358  -5.161  0.00  0.00    +0.098 A 
ATOM      3  N   UNL     1      -0.930   0.624  -6.480  0.00  0.00    -0.230 NA
ATOM      4  C   UNL     1       0.280   0.559  -6.963  0.00  0.00    +0.125 A 
ATOM      5  N   UNL     1       1.146   0.252  -5.975  0.00  0.00    -0.339 N 
ATOM      6  H   UNL     1       2.106   0.147  -6.064  0.00  0.00    +0.167 HD
ENDROOT
BRANCH   2   7
ATOM      7  C   UNL     1      -2.068   0.332  -4.247  0.00  0.00    -0.000 C 
ATOM      8  C   UNL     1      -2.808   1.445  -4.059  0.00  0.00    +0.004 C 
ATOM      9  C   UNL     1      -3.987   1.358  -3.131  0.00  0.00    +0.106 C 
ATOM     10  C   UNL     1      -4.674   0.005  -3.336  0.00  0.00    +0.148 C 
ATOM     11  C   UNL     1      -3.675  -1.090  -3.097  0.00  0.00    +0.002 C 
ATOM     12  C   UNL     1      -2.432  -0.916  -3.540  0.00  0.00    +0.008 C 
ATOM     13  N   UNL     1      -5.839  -0.081  -2.471  0.00  0.00    -0.285 NA
ATOM     14  C   UNL     1      -6.429   0.957  -2.035  0.00  0.00    +0.093 C 
ATOM     15  C   UNL     1      -6.004   2.366  -2.323  0.00  0.00    +0.128 C 
ATOM     16  N   UNL     1      -4.979   2.409  -3.379  0.00  0.00    -0.303 NA
ATOM     17  H   UNL     1      -4.540   3.317  -3.420  0.00  0.00    +0.123 HD
ENDBRANCH   2   7
BRANCH   1  22
ATOM     18  C   UNL     1       0.697  -0.112  -1.181  0.00  0.00    +0.042 A 
ATOM     19  C   UNL     1       1.865  -0.827  -0.988  0.00  0.00    +0.023 A 
ATOM     20  C   UNL     1       2.592  -1.255  -2.091  0.00  0.00    +0.004 A 
ATOM     21  C   UNL     1       2.120  -0.948  -3.354  0.00  0.00    +0.030 A 
ATOM     22  C   UNL     1       0.933  -0.223  -3.477  0.00  0.00    +0.090 A 
ATOM     23  N   UNL     1       0.264   0.164  -2.394  0.00  0.00    -0.250 NA
BRANCH  18  25
ATOM     24  C   UNL     1      -0.310   1.866  -0.075  0.00  0.00    +0.010 C 
ATOM     25  C   UNL     1      -0.095   0.354   0.014  0.00  0.00    +0.052 C 
ENDBRANCH  18  25
ENDBRANCH   1  22
BRANCH   4  26
ATOM     26  C   UNL     1       0.653   0.795  -8.404  0.00  0.00    +0.175 C 
BRANCH  26  27
ATOM     27  N   UNL     1       0.479  -0.445  -9.164  0.00  0.00    -0.337 N 
ATOM     28  H   UNL     1       0.166  -1.247  -8.718  0.00  0.00    +0.147 HD
BRANCH  27  29
ATOM     29  C   UNL     1       0.765  -0.473 -10.526  0.00  0.00    +0.028 A 
ATOM     30  C   UNL     1       1.220   0.677 -11.163  0.00  0.00    +0.024 A 
ATOM     31  C   UNL     1       1.503   0.653 -12.510  0.00  0.00    +0.020 A 
ATOM     32  C   UNL     1       1.332  -0.528 -13.238  0.00  0.00    +0.052 A 
ATOM     33  C   UNL     1       0.874  -1.682 -12.594  0.00  0.00    +0.020 A 
ATOM     34  C   UNL     1       0.599  -1.652 -11.246  0.00  0.00    +0.024 A 
BRANCH  32  35
ATOM     35  C   UNL     1       1.625  -0.556 -14.639  0.00  0.00    +0.099 C 
ATOM     36  N   UNL     1       1.858  -0.579 -15.751  0.00  0.00    -0.191 NA
ENDBRANCH  32  35
ENDBRANCH  27  29
ENDBRANCH  26  27
ENDBRANCH   4  26
TORSDOF 7
