REMARK  Name = CHEMBL480582
REMARK  4 active torsions:
REMARK  status: ('A' for Active; 'I' for Inactive)
REMARK    1  A    between atoms: C_1  and  C_2
REMARK    2  A    between atoms: C_6  and  C_8
REMARK    3  A    between atoms: C_9  and  C_23
REMARK    4  A    between atoms: C_20  and  C_22
REMARK                            x       y       z     vdW  Elec       q    Type
REMARK                         _______ _______ _______ _____ _____    ______ ____
ROOT
ATOM      1  C   UNL     1       1.068  -3.319   2.445  0.00  0.00    +0.117 A 
ATOM      2  C   UNL     1       1.428  -2.737   3.644  0.00  0.00    +0.078 A 
ATOM      3  N   UNL     1       1.037  -3.615   4.635  0.00  0.00    -0.325 N 
ATOM      4  H   UNL     1       1.151  -3.492   5.591  0.00  0.00    +0.169 HD
ATOM      5  C   UNL     1       0.461  -4.686   4.021  0.00  0.00    +0.197 A 
ATOM      6  N   UNL     1       0.478  -4.500   2.724  0.00  0.00    -0.212 NA
ATOM      7  N   UNL     1      -0.063  -5.791   4.665  0.00  0.00    -0.298 N 
ATOM      8  C   UNL     1      -0.037  -5.885   6.132  0.00  0.00    +0.127 C 
ATOM      9  C   UNL     1      -1.468  -6.117   6.633  0.00  0.00    +0.126 C 
ATOM     10  N   UNL     1      -2.062  -7.220   5.864  0.00  0.00    -0.299 N 
ATOM     11  C   UNL     1      -2.088  -7.126   4.397  0.00  0.00    +0.126 C 
ATOM     12  C   UNL     1      -0.662  -6.891   3.896  0.00  0.00    +0.127 C 
ATOM     13  C   UNL     1      -2.574  -8.297   6.492  0.00  0.00    +0.213 C 
ATOM     14  O   UNL     1      -2.462  -8.408   7.694  0.00  0.00    -0.276 OA
ATOM     15  C   UNL     1      -3.283  -9.364   5.699  0.00  0.00    +0.109 C 
ENDROOT
BRANCH   2  16
ATOM     16  C   UNL     1       2.099  -1.435   3.830  0.00  0.00    +0.019 A 
ATOM     17  C   UNL     1       1.372  -0.232   3.667  0.00  0.00    +0.015 A 
ATOM     18  C   UNL     1       2.002   0.960   3.842  0.00  0.00    +0.049 A 
ATOM     19  C   UNL     1       3.368   0.982   4.181  0.00  0.00    +0.156 A 
ATOM     20  N   UNL     1       4.222   1.974   4.407  0.00  0.00    -0.215 NA
ATOM     21  C   UNL     1       5.417   1.479   4.696  0.00  0.00    +0.246 A 
ATOM     22  N   UNL     1       5.369   0.167   4.665  0.00  0.00    -0.154 NA
ATOM     23  N   UNL     1       4.054  -0.190   4.333  0.00  0.00    -0.220 N 
ATOM     24  C   UNL     1       3.433  -1.386   4.166  0.00  0.00    +0.124 A 
ENDBRANCH   2  16
BRANCH   1  30
ATOM     25  C   UNL     1       1.720   0.612  -0.346  0.00  0.00    +0.068 C 
ATOM     26  C   UNL     1       1.594  -0.885  -0.233  0.00  0.00    +0.074 A 
ATOM     27  C   UNL     1       1.682  -1.667  -1.372  0.00  0.00    +0.144 A 
ATOM     28  C   UNL     1       1.565  -3.047  -1.262  0.00  0.00    +0.042 A 
ATOM     29  C   UNL     1       1.364  -3.595  -0.009  0.00  0.00    +0.033 A 
ATOM     30  C   UNL     1       1.284  -2.748   1.097  0.00  0.00    +0.092 A 
ATOM     31  N   UNL     1       1.406  -1.434   0.950  0.00  0.00    -0.247 NA
ATOM     32  F   UNL     1       1.880  -1.093  -2.579  0.00  0.00    -0.204 F 
ENDBRANCH   1  30
TORSDOF 2
