REMARK  Name = CHEMBL1165374
REMARK  6 active torsions:
REMARK  status: ('A' for Active; 'I' for Inactive)
REMARK    1  A    between atoms: C_1  and  C_2
REMARK    2  A    between atoms: C_6  and  C_8
REMARK    3  A    between atoms: C_9  and  C_23
REMARK    4  A    between atoms: C_11  and  C_14
REMARK    5  A    between atoms: C_14  and  C_15
REMARK    6  A    between atoms: C_19  and  C_21
REMARK                            x       y       z     vdW  Elec       q    Type
REMARK                         _______ _______ _______ _____ _____    ______ ____
ROOT
ATOM      1  C   UNL     1       0.051  -2.682   2.491  0.00  0.00    +0.115 A 
ATOM      2  C   UNL     1       0.517  -2.166   3.688  0.00  0.00    +0.076 A 
ATOM      3  N   UNL     1       0.338  -3.152   4.628  0.00  0.00    -0.341 N 
ATOM      4  C   UNL     1      -0.218  -4.217   3.995  0.00  0.00    +0.113 A 
ATOM      5  N   UNL     1      -0.389  -3.931   2.735  0.00  0.00    -0.230 NA
ATOM      6  H   UNL     1       0.566  -3.098   5.569  0.00  0.00    +0.167 HD
ENDROOT
BRANCH   2   7
ATOM      7  C   UNL     1       1.091  -0.824   3.910  0.00  0.00    +0.001 A 
ATOM      8  C   UNL     1       2.035  -0.308   3.004  0.00  0.00    +0.012 A 
ATOM      9  C   UNL     1       2.577   0.922   3.186  0.00  0.00    +0.029 A 
ATOM     10  C   UNL     1       2.198   1.704   4.294  0.00  0.00    +0.071 A 
ATOM     11  C   UNL     1       1.246   1.194   5.213  0.00  0.00    +0.001 A 
ATOM     12  C   UNL     1       0.692  -0.077   5.008  0.00  0.00    +0.020 A 
ATOM     13  C   UNL     1       0.873   1.983   6.319  0.00  0.00    +0.011 A 
ATOM     14  C   UNL     1       1.449   3.214   6.455  0.00  0.00    +0.020 A 
ATOM     15  C   UNL     1       2.377   3.655   5.515  0.00  0.00    +0.111 A 
ATOM     16  N   UNL     1       2.722   2.918   4.487  0.00  0.00    -0.255 NA
ENDBRANCH   2   7
BRANCH   1  22
ATOM     17  C   UNL     1      -0.018   1.503   0.010  0.00  0.00    +0.065 C 
ATOM     18  C   UNL     1       0.002  -0.004   0.002  0.00  0.00    +0.039 A 
ATOM     19  C   UNL     1       0.006  -0.679  -1.204  0.00  0.00    +0.023 A 
ATOM     20  C   UNL     1       0.025  -2.067  -1.209  0.00  0.00    +0.004 A 
ATOM     21  C   UNL     1       0.040  -2.732   0.005  0.00  0.00    +0.030 A 
ATOM     22  C   UNL     1       0.035  -1.987   1.185  0.00  0.00    +0.092 A 
ATOM     23  N   UNL     1       0.022  -0.660   1.145  0.00  0.00    -0.250 NA
ENDBRANCH   1  22
BRANCH   4  24
ATOM     24  C   UNL     1      -0.584  -5.524   4.649  0.00  0.00    +0.109 C 
BRANCH  24  25
ATOM     25  C   UNL     1      -2.037  -5.828   4.385  0.00  0.00    -0.039 A 
ATOM     26  C   UNL     1      -3.007  -5.376   5.263  0.00  0.00    +0.004 A 
ATOM     27  C   UNL     1      -4.342  -5.650   5.029  0.00  0.00    +0.002 A 
ATOM     28  C   UNL     1      -4.716  -6.377   3.917  0.00  0.00    +0.019 A 
ATOM     29  C   UNL     1      -3.742  -6.835   3.027  0.00  0.00    +0.052 A 
ATOM     30  C   UNL     1      -2.397  -6.551   3.267  0.00  0.00    +0.023 A 
BRANCH  29  31
ATOM     31  C   UNL     1      -4.123  -7.590   1.871  0.00  0.00    +0.099 C 
ATOM     32  N   UNL     1      -4.425  -8.189   0.954  0.00  0.00    -0.191 NA
ENDBRANCH  29  31
ENDBRANCH  24  25
ENDBRANCH   4  24
TORSDOF 5
