REMARK  Name = CHEMBL567287
REMARK  6 active torsions:
REMARK  status: ('A' for Active; 'I' for Inactive)
REMARK    1  A    between atoms: C_5  and  C_7
REMARK    2  A    between atoms: C_8  and  C_13
REMARK    3  A    between atoms: C_17  and  C_19
REMARK    4  A    between atoms: C_22  and  N_25
REMARK    5  A    between atoms: C_26  and  C_28
REMARK    6  A    between atoms: C_28  and  N_29
REMARK                            x       y       z     vdW  Elec       q    Type
REMARK                         _______ _______ _______ _____ _____    ______ ____
ROOT
ATOM      1  C   UNL     1       3.602  -2.319  -0.975  0.00  0.00    -0.011 A 
ATOM      2  C   UNL     1       3.573  -1.496  -2.107  0.00  0.00    +0.028 A 
ATOM      3  C   UNL     1       4.754  -1.201  -2.756  0.00  0.00    +0.112 A 
ATOM      4  N   UNL     1       5.904  -1.683  -2.326  0.00  0.00    -0.255 NA
ATOM      5  C   UNL     1       5.981  -2.467  -1.258  0.00  0.00    +0.072 A 
ATOM      6  C   UNL     1       4.836  -2.808  -0.544  0.00  0.00    +0.037 A 
ENDROOT
BRANCH   1   8
ATOM      7  C   UNL     1       1.363  -1.744   0.188  0.00  0.00    +0.118 A 
ATOM      8  C   UNL     1       2.354  -2.659  -0.250  0.00  0.00    +0.029 A 
ATOM      9  C   UNL     1       1.949  -3.908   0.118  0.00  0.00    +0.114 A 
ATOM     10  N   UNL     1       0.766  -3.788   0.753  0.00  0.00    -0.284 N 
ATOM     11  H   UNL     1       0.246  -4.518   1.124  0.00  0.00    +0.188 HD
ATOM     12  N   UNL     1       0.419  -2.433   0.792  0.00  0.00    -0.172 NA
BRANCH   7  17
ATOM     13  C   UNL     1       0.233   1.815  -0.179  0.00  0.00    +0.004 A 
ATOM     14  C   UNL     1       1.468   2.427  -0.339  0.00  0.00    +0.020 A 
ATOM     15  C   UNL     1       2.615   1.655  -0.321  0.00  0.00    +0.111 A 
ATOM     16  N   UNL     1       2.549   0.350  -0.154  0.00  0.00    -0.253 NA
ATOM     17  C   UNL     1       1.388  -0.274   0.003  0.00  0.00    +0.091 A 
ATOM     18  C   UNL     1       0.193   0.443  -0.004  0.00  0.00    +0.030 A 
ENDBRANCH   7  17
ENDBRANCH   1   8
BRANCH   5  19
ATOM     19  C   UNL     1       7.300  -2.981  -0.818  0.00  0.00    +0.000 A 
ATOM     20  C   UNL     1       7.389  -3.810   0.300  0.00  0.00    +0.012 A 
ATOM     21  C   UNL     1       8.617  -4.288   0.707  0.00  0.00    +0.024 A 
ATOM     22  C   UNL     1       9.765  -3.943   0.004  0.00  0.00    +0.033 A 
ATOM     23  C   UNL     1       9.679  -3.116  -1.110  0.00  0.00    +0.024 A 
ATOM     24  C   UNL     1       8.453  -2.641  -1.524  0.00  0.00    +0.012 A 
BRANCH  22  25
ATOM     25  N   UNL     1      11.009  -4.428   0.418  0.00  0.00    -0.287 N 
ATOM     26  C   UNL     1      11.103  -5.651   0.976  0.00  0.00    +0.201 C 
ATOM     27  O   UNL     1      10.127  -6.369   1.031  0.00  0.00    -0.278 OA
ATOM     28  H   UNL     1      11.804  -3.884   0.304  0.00  0.00    +0.155 HD
BRANCH  26  29
ATOM     29  C   UNL     1      12.421  -6.127   1.531  0.00  0.00    +0.019 C 
BRANCH  29  30
ATOM     30  N   UNL     1      12.262  -7.480   2.078  0.00  0.00    +0.385 N 
ATOM     31  C   UNL     1      12.021  -8.452   0.981  0.00  0.00    -0.078 C 
ATOM     32  C   UNL     1      12.435  -9.806   1.609  0.00  0.00    -0.020 C 
ATOM     33  C   UNL     1      13.659  -9.427   2.473  0.00  0.00    -0.020 C 
ATOM     34  C   UNL     1      13.514  -7.916   2.734  0.00  0.00    -0.078 C 
ATOM     35  H   UNL     1      11.498  -7.502   2.737  0.00  0.00    -0.081 HD
ENDBRANCH  29  30
ENDBRANCH  26  29
ENDBRANCH  22  25
ENDBRANCH   5  19
TORSDOF 6
