REMARK  Name = CHEMBL205271
REMARK  6 active torsions:
REMARK  status: ('A' for Active; 'I' for Inactive)
REMARK    1  A    between atoms: C_1  and  N_2
REMARK    2  A    between atoms: N_2  and  C_3
REMARK    3  A    between atoms: C_9  and  C_11
REMARK    4  A    between atoms: C_14  and  C_17
REMARK    5  A    between atoms: C_19  and  C_23
REMARK    6  A    between atoms: C_28  and  C_29
REMARK                            x       y       z     vdW  Elec       q    Type
REMARK                         _______ _______ _______ _____ _____    ______ ____
ROOT
ATOM      1  C   UNL     1      -0.165   2.162  -6.147  0.00  0.00    +0.072 A 
ATOM      2  C   UNL     1      -0.387   1.477  -7.338  0.00  0.00    +0.037 A 
ATOM      3  C   UNL     1      -0.403   2.194  -8.536  0.00  0.00    -0.011 A 
ATOM      4  C   UNL     1      -0.194   3.576  -8.484  0.00  0.00    +0.028 A 
ATOM      5  C   UNL     1       0.019   4.180  -7.261  0.00  0.00    +0.112 A 
ATOM      6  N   UNL     1       0.023   3.476  -6.147  0.00  0.00    -0.255 NA
ENDROOT
BRANCH   1  10
ATOM      7  C   UNL     1      -0.109   0.025  -2.467  0.00  0.00    +0.037 A 
ATOM      8  C   UNL     1       0.089   1.408  -2.476  0.00  0.00    +0.014 A 
ATOM      9  C   UNL     1       0.071   2.098  -3.667  0.00  0.00    +0.011 A 
ATOM     10  C   UNL     1      -0.145   1.417  -4.865  0.00  0.00    +0.000 A 
ATOM     11  C   UNL     1      -0.343   0.036  -4.858  0.00  0.00    +0.011 A 
ATOM     12  C   UNL     1      -0.320  -0.657  -3.668  0.00  0.00    +0.014 A 
BRANCH   7  15
ATOM     13  C   UNL     1      -1.247   1.155  -0.145  0.00  0.00    +0.132 C 
ATOM     14  N   UNL     1      -0.579  -0.146  -0.071  0.00  0.00    -0.297 N 
ATOM     15  C   UNL     1      -0.089  -0.717  -1.189  0.00  0.00    +0.247 C 
ATOM     16  O   UNL     1       0.370  -1.842  -1.147  0.00  0.00    -0.270 OA
BRANCH  14  17
ATOM     17  C   UNL     1      -0.444  -0.828   1.219  0.00  0.00    +0.080 C 
ATOM     18  C   UNL     1      -1.833  -1.082   1.812  0.00  0.00    +0.050 C 
ATOM     19  C   UNL     1      -1.679  -1.723   3.194  0.00  0.00    +0.161 C 
ATOM     20  O   UNL     1      -0.899  -0.867   4.030  0.00  0.00    -0.380 OA
ATOM     21  C   UNL     1       0.426  -0.631   3.550  0.00  0.00    +0.161 C 
ATOM     22  C   UNL     1       0.357   0.053   2.182  0.00  0.00    +0.050 C 
ENDBRANCH  14  17
ENDBRANCH   7  15
ENDBRANCH   1  10
BRANCH   3  23
ATOM     23  C   UNL     1      -0.635   1.508  -9.830  0.00  0.00    +0.029 A 
ATOM     24  C   UNL     1       0.007   0.391 -10.277  0.00  0.00    +0.114 A 
ATOM     25  N   UNL     1      -0.491   0.087 -11.492  0.00  0.00    -0.284 N 
ATOM     26  H   UNL     1      -0.217  -0.661 -12.046  0.00  0.00    +0.188 HD
ATOM     27  N   UNL     1      -1.469   1.034 -11.820  0.00  0.00    -0.172 NA
ATOM     28  C   UNL     1      -1.570   1.889 -10.826  0.00  0.00    +0.118 A 
BRANCH  28  29
ATOM     29  C   UNL     1      -2.492   3.047 -10.761  0.00  0.00    +0.091 A 
ATOM     30  C   UNL     1      -2.969   3.619 -11.939  0.00  0.00    +0.030 A 
ATOM     31  C   UNL     1      -3.829   4.700 -11.862  0.00  0.00    +0.004 A 
ATOM     32  C   UNL     1      -4.186   5.175 -10.607  0.00  0.00    +0.020 A 
ATOM     33  C   UNL     1      -3.676   4.560  -9.479  0.00  0.00    +0.111 A 
ATOM     34  N   UNL     1      -2.862   3.529  -9.581  0.00  0.00    -0.253 NA
ENDBRANCH  28  29
ENDBRANCH   3  23
TORSDOF 5
