REMARK  Name = CHEMBL575311
REMARK  8 active torsions:
REMARK  status: ('A' for Active; 'I' for Inactive)
REMARK    1  A    between atoms: C_1  and  C_2
REMARK    2  A    between atoms: C_4  and  O_15
REMARK    3  A    between atoms: C_5  and  C_9
REMARK    4  A    between atoms: C_7  and  C_8
REMARK    5  A    between atoms: O_15  and  C_16
REMARK    6  A    between atoms: C_20  and  N_22
REMARK    7  A    between atoms: N_22  and  C_23
REMARK    8  A    between atoms: C_26  and  N_29
REMARK                            x       y       z     vdW  Elec       q    Type
REMARK                         _______ _______ _______ _____ _____    ______ ____
ROOT
ATOM      1  C   UNL     1      -0.369  -2.196  -3.539  0.00  0.00    +0.133 A 
ATOM      2  C   UNL     1      -0.537  -0.818  -3.676  0.00  0.00    +0.066 A 
ATOM      3  C   UNL     1      -0.585  -0.267  -4.939  0.00  0.00    +0.116 A 
ATOM      4  N   UNL     1      -0.474  -1.025  -6.014  0.00  0.00    -0.240 NA
ATOM      5  C   UNL     1      -0.313  -2.338  -5.929  0.00  0.00    +0.126 A 
ATOM      6  C   UNL     1      -0.250  -2.965  -4.691  0.00  0.00    +0.090 A 
ENDROOT
BRANCH   5   7
ATOM      7  N   UNL     1      -0.201  -3.095  -7.090  0.00  0.00    -0.299 N 
ATOM      8  H   UNL     1      -0.159  -4.062  -7.037  0.00  0.00    +0.154 HD
BRANCH   7   9
ATOM      9  C   UNL     1      -0.150  -2.460  -8.338  0.00  0.00    +0.032 A 
ATOM     10  C   UNL     1       0.460  -1.218  -8.460  0.00  0.00    +0.025 A 
ATOM     11  C   UNL     1       0.510  -0.592  -9.689  0.00  0.00    +0.025 A 
ATOM     12  C   UNL     1      -0.048  -1.204 -10.804  0.00  0.00    +0.030 A 
ATOM     13  C   UNL     1      -0.657  -2.446 -10.682  0.00  0.00    +0.025 A 
ATOM     14  C   UNL     1      -0.703  -3.075  -9.453  0.00  0.00    +0.025 A 
BRANCH  12  15
ATOM     15  N   UNL     1       0.003  -0.569 -12.050  0.00  0.00    -0.326 N 
ATOM     16  C   UNL     1      -0.692  -1.134 -13.217  0.00  0.00    +0.133 C 
ATOM     17  C   UNL     1      -1.540  -0.029 -13.858  0.00  0.00    +0.178 C 
ATOM     18  O   UNL     1      -0.716   1.114 -14.102  0.00  0.00    -0.377 OA
ATOM     19  C   UNL     1      -0.165   1.701 -12.920  0.00  0.00    +0.178 C 
ATOM     20  C   UNL     1       0.748   0.687 -12.230  0.00  0.00    +0.133 C 
ENDBRANCH  12  15
ENDBRANCH   7   9
ENDBRANCH   5   7
BRANCH   1  21
ATOM     21  O   UNL     1      -0.317  -2.772  -2.311  0.00  0.00    -0.454 OA
BRANCH  21  25
ATOM     22  C   UNL     1      -5.165  -2.174  -1.974  0.00  0.00    +0.046 C 
ATOM     23  C   UNL     1      -3.846  -2.674  -1.444  0.00  0.00    -0.026 A 
ATOM     24  C   UNL     1      -2.680  -2.470  -2.165  0.00  0.00    +0.053 A 
ATOM     25  C   UNL     1      -1.485  -2.948  -1.640  0.00  0.00    +0.156 A 
ATOM     26  C   UNL     1      -1.504  -3.614  -0.410  0.00  0.00    +0.131 A 
ATOM     27  N   UNL     1      -2.645  -3.786   0.243  0.00  0.00    -0.246 NA
ATOM     28  C   UNL     1      -3.788  -3.337  -0.231  0.00  0.00    +0.042 A 
ATOM     29  C   UNL     1      -5.054  -3.554   0.557  0.00  0.00    +0.066 C 
BRANCH  26  30
ATOM     30  C   UNL     1      -0.240  -4.131   0.166  0.00  0.00    +0.093 A 
ATOM     31  C   UNL     1      -0.133  -4.316   1.543  0.00  0.00    +0.030 A 
ATOM     32  C   UNL     1       1.054  -4.800   2.067  0.00  0.00    +0.004 A 
ATOM     33  C   UNL     1       2.095  -5.084   1.195  0.00  0.00    +0.020 A 
ATOM     34  C   UNL     1       1.920  -4.877  -0.161  0.00  0.00    +0.111 A 
ATOM     35  N   UNL     1       0.779  -4.420  -0.634  0.00  0.00    -0.253 NA
ENDBRANCH  26  30
ENDBRANCH  21  25
ENDBRANCH   1  21
TORSDOF 6
