REMARK  Name = CHEMBL575720
REMARK  8 active torsions:
REMARK  status: ('A' for Active; 'I' for Inactive)
REMARK    1  A    between atoms: C_1  and  C_2
REMARK    2  A    between atoms: C_4  and  O_15
REMARK    3  A    between atoms: C_5  and  C_9
REMARK    4  A    between atoms: C_7  and  C_8
REMARK    5  A    between atoms: O_15  and  C_16
REMARK    6  A    between atoms: C_20  and  N_22
REMARK    7  A    between atoms: N_22  and  C_23
REMARK    8  A    between atoms: C_28  and  N_29
REMARK                            x       y       z     vdW  Elec       q    Type
REMARK                         _______ _______ _______ _____ _____    ______ ____
ROOT
ATOM      1  C   UNL     1      -0.642  -2.205  -3.560  0.00  0.00    +0.133 A 
ATOM      2  C   UNL     1      -0.546  -0.819  -3.676  0.00  0.00    +0.066 A 
ATOM      3  C   UNL     1      -0.340  -0.259  -4.920  0.00  0.00    +0.116 A 
ATOM      4  N   UNL     1      -0.234  -1.017  -5.995  0.00  0.00    -0.240 NA
ATOM      5  C   UNL     1      -0.319  -2.338  -5.929  0.00  0.00    +0.126 A 
ATOM      6  C   UNL     1      -0.520  -2.975  -4.711  0.00  0.00    +0.090 A 
ENDROOT
BRANCH   5   7
ATOM      7  N   UNL     1      -0.201  -3.095  -7.090  0.00  0.00    -0.298 N 
ATOM      8  H   UNL     1      -0.155  -4.062  -7.036  0.00  0.00    +0.154 HD
BRANCH   7   9
ATOM      9  C   UNL     1      -0.149  -2.460  -8.338  0.00  0.00    +0.054 A 
ATOM     10  C   UNL     1      -0.733  -1.213  -8.508  0.00  0.00    +0.025 A 
ATOM     11  C   UNL     1      -0.680  -0.588  -9.740  0.00  0.00    +0.002 A 
ATOM     12  C   UNL     1      -0.047  -1.202 -10.805  0.00  0.00    +0.002 A 
ATOM     13  C   UNL     1       0.538  -2.444 -10.644  0.00  0.00    +0.025 A 
ATOM     14  C   UNL     1       0.494  -3.076  -9.410  0.00  0.00    +0.051 A 
BRANCH  14  15
ATOM     15  N   UNL     1       1.090  -4.332  -9.243  0.00  0.00    -0.324 N 
ATOM     16  C   UNL     1       0.332  -5.569  -9.488  0.00  0.00    +0.133 C 
ATOM     17  C   UNL     1       1.155  -6.463 -10.422  0.00  0.00    +0.178 C 
ATOM     18  O   UNL     1       2.470  -6.621  -9.886  0.00  0.00    -0.377 OA
ATOM     19  C   UNL     1       3.211  -5.402  -9.786  0.00  0.00    +0.178 C 
ATOM     20  C   UNL     1       2.496  -4.453  -8.824  0.00  0.00    +0.133 C 
ENDBRANCH  14  15
ENDBRANCH   7   9
ENDBRANCH   5   7
BRANCH   1  21
ATOM     21  O   UNL     1      -0.844  -2.789  -2.352  0.00  0.00    -0.454 OA
BRANCH  21  25
ATOM     22  C   UNL     1      -5.629  -1.897  -2.875  0.00  0.00    +0.046 C 
ATOM     23  C   UNL     1      -4.456  -2.459  -2.114  0.00  0.00    -0.026 A 
ATOM     24  C   UNL     1      -3.172  -2.345  -2.625  0.00  0.00    +0.053 A 
ATOM     25  C   UNL     1      -2.118  -2.877  -1.891  0.00  0.00    +0.156 A 
ATOM     26  C   UNL     1      -2.391  -3.503  -0.671  0.00  0.00    +0.131 A 
ATOM     27  N   UNL     1      -3.636  -3.589  -0.222  0.00  0.00    -0.246 NA
ATOM     28  C   UNL     1      -4.650  -3.088  -0.897  0.00  0.00    +0.042 A 
ATOM     29  C   UNL     1      -6.044  -3.207  -0.338  0.00  0.00    +0.066 C 
BRANCH  26  30
ATOM     30  C   UNL     1      -1.280  -4.077   0.126  0.00  0.00    +0.093 A 
ATOM     31  C   UNL     1      -1.424  -4.227   1.504  0.00  0.00    +0.030 A 
ATOM     32  C   UNL     1      -0.379  -4.764   2.235  0.00  0.00    +0.004 A 
ATOM     33  C   UNL     1       0.777  -5.135   1.563  0.00  0.00    +0.020 A 
ATOM     34  C   UNL     1       0.852  -4.959   0.194  0.00  0.00    +0.111 A 
ATOM     35  N   UNL     1      -0.159  -4.449  -0.479  0.00  0.00    -0.253 NA
ENDBRANCH  26  30
ENDBRANCH  21  25
ENDBRANCH   1  21
TORSDOF 6
