REMARK  Name = CHEMBL520104
REMARK  3 active torsions:
REMARK  status: ('A' for Active; 'I' for Inactive)
REMARK    1  A    between atoms: C_1  and  C_2
REMARK    2  A    between atoms: C_6  and  C_8
REMARK    3  A    between atoms: C_9  and  C_20
REMARK                            x       y       z     vdW  Elec       q    Type
REMARK                         _______ _______ _______ _____ _____    ______ ____
ROOT
ATOM      1  C   UNL     1       0.051  -2.682   2.491  0.00  0.00    +0.117 A 
ATOM      2  C   UNL     1       0.516  -2.164   3.684  0.00  0.00    +0.078 A 
ATOM      3  N   UNL     1       0.338  -3.152   4.632  0.00  0.00    -0.325 N 
ATOM      4  H   UNL     1       0.567  -3.094   5.573  0.00  0.00    +0.169 HD
ATOM      5  C   UNL     1      -0.220  -4.222   4.000  0.00  0.00    +0.197 A 
ATOM      6  N   UNL     1      -0.392  -3.934   2.733  0.00  0.00    -0.212 NA
ATOM      7  N   UNL     1      -0.556  -5.421   4.602  0.00  0.00    -0.297 N 
ATOM      8  C   UNL     1      -0.331  -5.637   6.040  0.00  0.00    +0.136 C 
ATOM      9  C   UNL     1      -1.631  -6.162   6.659  0.00  0.00    +0.179 C 
ATOM     10  O   UNL     1      -2.085  -7.292   5.911  0.00  0.00    -0.377 OA
ATOM     11  C   UNL     1      -2.410  -7.001   4.550  0.00  0.00    +0.179 C 
ATOM     12  C   UNL     1      -1.155  -6.516   3.824  0.00  0.00    +0.136 C 
ENDROOT
BRANCH   2  13
ATOM     13  C   UNL     1       1.090  -0.821   3.902  0.00  0.00    +0.019 A 
ATOM     14  C   UNL     1       0.245   0.314   3.942  0.00  0.00    +0.015 A 
ATOM     15  C   UNL     1       0.787   1.543   4.144  0.00  0.00    +0.049 A 
ATOM     16  C   UNL     1       2.179   1.672   4.310  0.00  0.00    +0.156 A 
ATOM     17  N   UNL     1       2.966   2.723   4.518  0.00  0.00    -0.215 NA
ATOM     18  C   UNL     1       4.227   2.325   4.608  0.00  0.00    +0.246 A 
ATOM     19  N   UNL     1       4.290   1.022   4.463  0.00  0.00    -0.154 NA
ATOM     20  N   UNL     1       2.979   0.566   4.268  0.00  0.00    -0.220 N 
ATOM     21  C   UNL     1       2.447  -0.669   4.072  0.00  0.00    +0.124 A 
ENDBRANCH   2  13
BRANCH   1  27
ATOM     22  C   UNL     1      -0.018   1.503   0.010  0.00  0.00    +0.068 C 
ATOM     23  C   UNL     1       0.002  -0.004   0.002  0.00  0.00    +0.074 A 
ATOM     24  C   UNL     1       0.006  -0.681  -1.206  0.00  0.00    +0.144 A 
ATOM     25  C   UNL     1       0.025  -2.071  -1.209  0.00  0.00    +0.042 A 
ATOM     26  C   UNL     1       0.040  -2.733   0.005  0.00  0.00    +0.033 A 
ATOM     27  C   UNL     1       0.035  -1.988   1.185  0.00  0.00    +0.092 A 
ATOM     28  N   UNL     1       0.022  -0.660   1.144  0.00  0.00    -0.247 NA
ATOM     29  F   UNL     1      -0.010   0.003  -2.371  0.00  0.00    -0.204 F 
ENDBRANCH   1  27
TORSDOF 2
