REMARK  Name = CHEMBL585667
REMARK  6 active torsions:
REMARK  status: ('A' for Active; 'I' for Inactive)
REMARK    1  A    between atoms: C_1  and  C_2
REMARK    2  A    between atoms: C_6  and  C_8
REMARK    3  A    between atoms: C_9  and  C_24
REMARK    4  A    between atoms: N_14  and  C_15
REMARK    5  A    between atoms: C_15  and  C_16
REMARK    6  A    between atoms: C_19  and  C_22
REMARK                            x       y       z     vdW  Elec       q    Type
REMARK                         _______ _______ _______ _____ _____    ______ ____
ROOT
ATOM      1  C   UNL     1      -0.042  -2.638   2.513  0.00  0.00    +0.093 A 
ATOM      2  C   UNL     1       0.601  -2.217   3.670  0.00  0.00    +0.096 A 
ATOM      3  N   UNL     1       0.486  -3.206   4.581  0.00  0.00    -0.214 NA
ATOM      4  C   UNL     1      -0.183  -4.207   4.063  0.00  0.00    +0.194 A 
ATOM      5  N   UNL     1      -0.539  -3.902   2.786  0.00  0.00    -0.324 N 
ATOM      6  H   UNL     1      -1.043  -4.466   2.179  0.00  0.00    +0.169 HD
ATOM      7  N   UNL     1      -0.486  -5.386   4.715  0.00  0.00    -0.311 N 
ATOM      8  H   UNL     1      -0.198  -5.521   5.632  0.00  0.00    +0.149 HD
ENDROOT
BRANCH   2   9
ATOM      9  C   UNL     1       1.281  -0.930   3.865  0.00  0.00    -0.017 C 
ATOM     10  C   UNL     1       2.325  -0.612   3.075  0.00  0.00    +0.009 C 
ATOM     11  C   UNL     1       2.995   0.685   3.233  0.00  0.00    +0.044 C 
ATOM     12  C   UNL     1       2.354   1.628   3.933  0.00  0.00    +0.130 C 
ATOM     13  C   UNL     1       0.940   1.449   4.474  0.00  0.00    +0.191 C 
ATOM     14  C   UNL     1       0.791   0.005   4.941  0.00  0.00    +0.077 C 
ATOM     15  O   UNL     1       0.935   2.348   5.607  0.00  0.00    -0.333 OA
ATOM     16  C   UNL     1       1.726   3.454   5.109  0.00  0.00    +0.395 C 
ATOM     17  O   UNL     1       2.755   2.865   4.292  0.00  0.00    -0.468 OA
ENDBRANCH   2   9
BRANCH   1  23
ATOM     18  C   UNL     1      -0.196   1.651   0.229  0.00  0.00    +0.065 C 
ATOM     19  C   UNL     1      -0.250   0.146   0.161  0.00  0.00    +0.039 A 
ATOM     20  C   UNL     1      -0.419  -0.474  -1.063  0.00  0.00    +0.023 A 
ATOM     21  C   UNL     1      -0.468  -1.862  -1.125  0.00  0.00    +0.004 A 
ATOM     22  C   UNL     1      -0.345  -2.580   0.049  0.00  0.00    +0.030 A 
ATOM     23  C   UNL     1      -0.175  -1.889   1.253  0.00  0.00    +0.090 A 
ATOM     24  N   UNL     1      -0.129  -0.559   1.267  0.00  0.00    -0.250 NA
ENDBRANCH   1  23
BRANCH   7  25
ATOM     25  C   UNL     1      -1.244  -6.432   4.024  0.00  0.00    +0.139 C 
BRANCH  25  26
ATOM     26  C   UNL     1      -1.439  -7.606   4.949  0.00  0.00    -0.030 A 
ATOM     27  C   UNL     1      -0.500  -8.621   4.982  0.00  0.00    +0.006 A 
ATOM     28  C   UNL     1      -0.672  -9.698   5.826  0.00  0.00    +0.019 A 
ATOM     29  C   UNL     1      -1.798  -9.762   6.650  0.00  0.00    +0.052 A 
ATOM     30  C   UNL     1      -2.742  -8.733   6.612  0.00  0.00    +0.019 A 
ATOM     31  C   UNL     1      -2.554  -7.660   5.766  0.00  0.00    +0.006 A 
BRANCH  29  32
ATOM     32  C   UNL     1      -1.984 -10.877   7.528  0.00  0.00    +0.099 C 
ATOM     33  N   UNL     1      -2.132 -11.762   8.226  0.00  0.00    -0.191 NA
ENDBRANCH  29  32
ENDBRANCH  25  26
ENDBRANCH   7  25
TORSDOF 5
