REMARK  Name = CHEMBL382838
REMARK  3 active torsions:
REMARK  status: ('A' for Active; 'I' for Inactive)
REMARK    1  A    between atoms: C_1  and  C_2
REMARK    2  A    between atoms: C_6  and  C_8
REMARK    3  A    between atoms: C_9  and  C_16
REMARK                            x       y       z     vdW  Elec       q    Type
REMARK                         _______ _______ _______ _____ _____    ______ ____
ROOT
ATOM      1  C   UNL     1       0.050  -2.682   2.494  0.00  0.00    +0.119 A 
ATOM      2  C   UNL     1       0.528  -2.149   3.716  0.00  0.00    +0.032 A 
ATOM      3  C   UNL     1       0.364  -3.108   4.673  0.00  0.00    +0.048 A 
ATOM      4  N   UNL     1      -0.191  -4.188   4.090  0.00  0.00    -0.267 N 
ATOM      5  N   UNL     1      -0.381  -3.901   2.728  0.00  0.00    -0.169 NA
ATOM      6  C   UNL     1      -0.404  -5.265   5.071  0.00  0.00    +0.144 C 
ATOM      7  C   UNL     1       0.484  -4.905   6.281  0.00  0.00    +0.029 C 
ATOM      8  C   UNL     1       0.591  -3.369   6.148  0.00  0.00    +0.057 C 
ENDROOT
BRANCH   2   9
ATOM      9  C   UNL     1       1.101  -0.795   3.919  0.00  0.00    -0.012 A 
ATOM     10  C   UNL     1       2.443  -0.655   4.285  0.00  0.00    +0.011 A 
ATOM     11  C   UNL     1       2.984   0.585   4.475  0.00  0.00    +0.028 A 
ATOM     12  C   UNL     1       2.201   1.720   4.305  0.00  0.00    +0.066 A 
ATOM     13  C   UNL     1       0.850   1.597   3.938  0.00  0.00    +0.089 A 
ATOM     14  C   UNL     1       0.305   0.327   3.740  0.00  0.00    +0.038 A 
ATOM     15  N   UNL     1       0.347   2.855   3.849  0.00  0.00    -0.236 NA
ATOM     16  C   UNL     1       1.279   3.719   4.130  0.00  0.00    +0.197 A 
ATOM     17  N   UNL     1       2.442   3.076   4.419  0.00  0.00    -0.344 N 
ATOM     18  H   UNL     1       3.284   3.492   4.661  0.00  0.00    +0.167 HD
ENDBRANCH   2   9
BRANCH   1  24
ATOM     19  C   UNL     1      -0.018   1.503   0.010  0.00  0.00    +0.065 C 
ATOM     20  C   UNL     1       0.002  -0.004   0.002  0.00  0.00    +0.039 A 
ATOM     21  C   UNL     1       0.005  -0.679  -1.204  0.00  0.00    +0.023 A 
ATOM     22  C   UNL     1       0.024  -2.067  -1.208  0.00  0.00    +0.004 A 
ATOM     23  C   UNL     1       0.039  -2.731   0.007  0.00  0.00    +0.030 A 
ATOM     24  C   UNL     1       0.035  -1.986   1.185  0.00  0.00    +0.092 A 
ATOM     25  N   UNL     1       0.022  -0.660   1.145  0.00  0.00    -0.250 NA
ENDBRANCH   1  24
TORSDOF 2
