REMARK  Name = CHEMBL267228
REMARK  5 active torsions:
REMARK  status: ('A' for Active; 'I' for Inactive)
REMARK    1  A    between atoms: C_5  and  C_7
REMARK    2  A    between atoms: C_8  and  C_21
REMARK    3  A    between atoms: C_10  and  C_13
REMARK    4  A    between atoms: C_16  and  C_19
REMARK    5  A    between atoms: C_19  and  O_20
REMARK                            x       y       z     vdW  Elec       q    Type
REMARK                         _______ _______ _______ _____ _____    ______ ____
ROOT
ATOM      1  C   UNL     1       1.269  -2.145  -0.022  0.00  0.00    +0.115 A 
ATOM      2  C   UNL     1       2.301  -2.933  -0.505  0.00  0.00    +0.076 A 
ATOM      3  N   UNL     1       1.915  -4.238  -0.314  0.00  0.00    -0.337 N 
ATOM      4  C   UNL     1       0.679  -4.213   0.269  0.00  0.00    +0.139 A 
ATOM      5  N   UNL     1       0.311  -2.965   0.442  0.00  0.00    -0.226 NA
ATOM      6  H   UNL     1       2.424  -5.029  -0.550  0.00  0.00    +0.167 HD
ENDROOT
BRANCH   2   7
ATOM      7  C   UNL     1       3.565  -2.464  -1.105  0.00  0.00    +0.004 A 
ATOM      8  C   UNL     1       3.553  -1.432  -2.046  0.00  0.00    +0.014 A 
ATOM      9  C   UNL     1       4.736  -0.995  -2.605  0.00  0.00    +0.050 A 
ATOM     10  C   UNL     1       5.940  -1.578  -2.237  0.00  0.00    +0.166 A 
ATOM     11  C   UNL     1       5.959  -2.608  -1.297  0.00  0.00    +0.167 A 
ATOM     12  C   UNL     1       4.778  -3.047  -0.728  0.00  0.00    +0.059 A 
ATOM     13  O   UNL     1       7.252  -3.004  -1.111  0.00  0.00    -0.453 OA
ATOM     14  C   UNL     1       7.979  -2.489  -2.243  0.00  0.00    +0.466 C 
ATOM     15  O   UNL     1       7.221  -1.330  -2.637  0.00  0.00    -0.453 OA
ENDBRANCH   2   7
BRANCH   1  20
ATOM     16  C   UNL     1      -0.017   1.379   0.010  0.00  0.00    +0.004 A 
ATOM     17  C   UNL     1       1.194   2.059   0.002  0.00  0.00    +0.020 A 
ATOM     18  C   UNL     1       2.375   1.341  -0.013  0.00  0.00    +0.111 A 
ATOM     19  N   UNL     1       2.366   0.023  -0.020  0.00  0.00    -0.253 NA
ATOM     20  C   UNL     1       1.231  -0.665  -0.013  0.00  0.00    +0.091 A 
ATOM     21  C   UNL     1       0.002  -0.004   0.002  0.00  0.00    +0.030 A 
ENDBRANCH   1  20
BRANCH   4  22
ATOM     22  C   UNL     1      -0.113  -5.401   0.649  0.00  0.00    +0.017 A 
ATOM     23  C   UNL     1       0.393  -6.682   0.424  0.00  0.00    +0.012 A 
ATOM     24  C   UNL     1      -0.352  -7.787   0.782  0.00  0.00    +0.006 A 
ATOM     25  C   UNL     1      -1.597  -7.627   1.363  0.00  0.00    -0.022 A 
ATOM     26  C   UNL     1      -2.105  -6.360   1.589  0.00  0.00    +0.006 A 
ATOM     27  C   UNL     1      -1.368  -5.247   1.241  0.00  0.00    +0.012 A 
BRANCH  25  28
ATOM     28  C   UNL     1      -2.405  -8.839   1.751  0.00  0.00    +0.191 C 
BRANCH  28  29
ATOM     29  O   UNL     1      -2.091  -9.211   3.094  0.00  0.00    -0.390 OA
ATOM     30  H   UNL     1      -2.575  -9.986   3.411  0.00  0.00    +0.210 HD
ENDBRANCH  28  29
ENDBRANCH  25  28
ENDBRANCH   4  22
TORSDOF 5
