REMARK  Name = CHEMBL1164022
REMARK  6 active torsions:
REMARK  status: ('A' for Active; 'I' for Inactive)
REMARK    1  A    between atoms: C_1  and  C_2
REMARK    2  A    between atoms: C_6  and  C_8
REMARK    3  A    between atoms: C_9  and  C_23
REMARK    4  A    between atoms: N_11  and  C_13
REMARK    5  A    between atoms: C_13  and  C_14
REMARK    6  A    between atoms: C_18  and  C_20
REMARK                            x       y       z     vdW  Elec       q    Type
REMARK                         _______ _______ _______ _____ _____    ______ ____
ROOT
ATOM      1  C   UNL     1       0.051  -2.682   2.494  0.00  0.00    +0.119 A 
ATOM      2  C   UNL     1       0.529  -2.148   3.718  0.00  0.00    +0.029 A 
ATOM      3  C   UNL     1       0.364  -3.106   4.673  0.00  0.00    +0.117 A 
ATOM      4  N   UNL     1      -0.188  -4.187   4.085  0.00  0.00    -0.266 N 
ATOM      5  N   UNL     1      -0.381  -3.902   2.728  0.00  0.00    -0.169 NA
ENDROOT
BRANCH   2   6
ATOM      6  C   UNL     1       1.103  -0.796   3.920  0.00  0.00    -0.014 A 
ATOM      7  C   UNL     1       2.115  -0.333   3.065  0.00  0.00    +0.011 A 
ATOM      8  C   UNL     1       2.658   0.901   3.228  0.00  0.00    +0.029 A 
ATOM      9  C   UNL     1       2.207   1.738   4.267  0.00  0.00    +0.071 A 
ATOM     10  C   UNL     1       1.185   1.278   5.135  0.00  0.00    +0.001 A 
ATOM     11  C   UNL     1       0.633   0.003   4.947  0.00  0.00    +0.018 A 
ATOM     12  C   UNL     1       0.739   2.121   6.171  0.00  0.00    +0.011 A 
ATOM     13  C   UNL     1       1.317   3.353   6.294  0.00  0.00    +0.020 A 
ATOM     14  C   UNL     1       2.317   3.742   5.406  0.00  0.00    +0.111 A 
ATOM     15  N   UNL     1       2.729   2.955   4.442  0.00  0.00    -0.255 NA
ENDBRANCH   2   6
BRANCH   1  21
ATOM     16  C   UNL     1      -0.018   1.503   0.010  0.00  0.00    +0.065 C 
ATOM     17  C   UNL     1       0.002  -0.004   0.002  0.00  0.00    +0.039 A 
ATOM     18  C   UNL     1       0.006  -0.679  -1.205  0.00  0.00    +0.023 A 
ATOM     19  C   UNL     1       0.025  -2.067  -1.208  0.00  0.00    +0.004 A 
ATOM     20  C   UNL     1       0.040  -2.731   0.006  0.00  0.00    +0.030 A 
ATOM     21  C   UNL     1       0.035  -1.986   1.185  0.00  0.00    +0.092 A 
ATOM     22  N   UNL     1       0.022  -0.660   1.144  0.00  0.00    -0.250 NA
ENDBRANCH   1  21
BRANCH   4  23
ATOM     23  C   UNL     1      -0.532  -5.444   4.754  0.00  0.00    +0.178 C 
BRANCH  23  24
ATOM     24  C   UNL     1      -1.985  -5.761   4.511  0.00  0.00    -0.025 A 
ATOM     25  C   UNL     1      -2.949  -5.294   5.386  0.00  0.00    +0.005 A 
ATOM     26  C   UNL     1      -4.285  -5.580   5.170  0.00  0.00    +0.001 A 
ATOM     27  C   UNL     1      -4.665  -6.335   4.079  0.00  0.00    +0.013 A 
ATOM     28  C   UNL     1      -3.697  -6.809   3.193  0.00  0.00    +0.037 A 
ATOM     29  C   UNL     1      -2.351  -6.512   3.413  0.00  0.00    +0.018 A 
BRANCH  28  30
ATOM     30  C   UNL     1      -4.096  -7.619   2.022  0.00  0.00    +0.242 C 
ATOM     31  O   UNL     1      -3.251  -8.031   1.251  0.00  0.00    -0.270 OA
ATOM     32  N   UNL     1      -5.397  -7.901   1.809  0.00  0.00    -0.325 N 
ATOM     33  H   UNL     1      -6.071  -7.572   2.424  0.00  0.00    +0.145 HD
ATOM     34  H   UNL     1      -5.659  -8.432   1.041  0.00  0.00    +0.145 HD
ENDBRANCH  28  30
ENDBRANCH  23  24
ENDBRANCH   4  23
TORSDOF 5
