REMARK  Name = CHEMBL519939
REMARK  5 active torsions:
REMARK  status: ('A' for Active; 'I' for Inactive)
REMARK    1  A    between atoms: C_1  and  C_2
REMARK    2  A    between atoms: C_6  and  C_8
REMARK    3  A    between atoms: C_9  and  C_18
REMARK    4  A    between atoms: N_14  and  C_15
REMARK    5  A    between atoms: C_15  and  C_17
REMARK                            x       y       z     vdW  Elec       q    Type
REMARK                         _______ _______ _______ _____ _____    ______ ____
ROOT
ATOM      1  C   UNL     1       0.361  -2.747   2.333  0.00  0.00    +0.092 A 
ATOM      2  C   UNL     1       0.230  -2.065   3.503  0.00  0.00    +0.075 A 
ATOM      3  N   UNL     1       0.267  -2.989   4.535  0.00  0.00    -0.325 N 
ATOM      4  H   UNL     1       0.195  -2.789   5.481  0.00  0.00    +0.169 HD
ATOM      5  C   UNL     1       0.420  -4.224   3.991  0.00  0.00    +0.198 A 
ATOM      6  N   UNL     1       0.474  -4.095   2.641  0.00  0.00    -0.324 N 
ATOM      7  N   UNL     1       0.498  -5.369   4.668  0.00  0.00    -0.147 NA
ATOM      8  H   UNL     1       0.575  -4.818   2.003  0.00  0.00    +0.169 HD
ENDROOT
BRANCH   2   9
ATOM      9  C   UNL     1       0.077  -0.605   3.647  0.00  0.00    +0.003 A 
ATOM     10  C   UNL     1      -0.900   0.073   2.893  0.00  0.00    +0.012 A 
ATOM     11  C   UNL     1      -1.059   1.415   3.008  0.00  0.00    +0.030 A 
ATOM     12  C   UNL     1      -0.244   2.150   3.890  0.00  0.00    +0.089 A 
ATOM     13  C   UNL     1       0.743   1.478   4.657  0.00  0.00    +0.090 A 
ATOM     14  C   UNL     1       0.890   0.089   4.529  0.00  0.00    +0.040 A 
ATOM     15  N   UNL     1       1.517   2.177   5.496  0.00  0.00    -0.252 NA
ATOM     16  C   UNL     1       1.355   3.477   5.602  0.00  0.00    +0.131 A 
ATOM     17  C   UNL     1       0.383   4.137   4.847  0.00  0.00    +0.131 A 
ATOM     18  N   UNL     1      -0.388   3.472   4.016  0.00  0.00    -0.252 NA
ENDBRANCH   2   9
BRANCH   1  24
ATOM     19  C   UNL     1       0.388   1.228  -0.467  0.00  0.00    +0.068 C 
ATOM     20  C   UNL     1       0.388  -0.274  -0.356  0.00  0.00    +0.074 A 
ATOM     21  C   UNL     1       0.400  -1.045  -1.508  0.00  0.00    +0.144 A 
ATOM     22  C   UNL     1       0.399  -2.431  -1.401  0.00  0.00    +0.042 A 
ATOM     23  C   UNL     1       0.387  -2.996  -0.139  0.00  0.00    +0.033 A 
ATOM     24  C   UNL     1       0.375  -2.160   0.979  0.00  0.00    +0.090 A 
ATOM     25  N   UNL     1       0.382  -0.838   0.834  0.00  0.00    -0.247 NA
ATOM     26  F   UNL     1       0.411  -0.454  -2.723  0.00  0.00    -0.204 F 
ENDBRANCH   1  24
BRANCH   7  27
ATOM     27  C   UNL     1       0.542  -5.355   5.995  0.00  0.00    +0.236 C 
ATOM     28  O   UNL     1       0.420  -4.304   6.596  0.00  0.00    -0.274 OA
ATOM     29  C   UNL     1       0.741  -6.640   6.757  0.00  0.00    +0.111 C 
ENDBRANCH   7  27
TORSDOF 3
