REMARK  Name = CHEMBL593704
REMARK  4 active torsions:
REMARK  status: ('A' for Active; 'I' for Inactive)
REMARK    1  A    between atoms: C_1  and  N_2
REMARK    2  A    between atoms: C_3  and  C_14
REMARK    3  A    between atoms: C_4  and  C_9
REMARK    4  A    between atoms: N_7  and  C_8
REMARK                            x       y       z     vdW  Elec       q    Type
REMARK                         _______ _______ _______ _____ _____    ______ ____
ROOT
ATOM      1  C   UNL     1       0.069   1.451  -0.223  0.00  0.00    +0.171 C 
ATOM      2  N   UNL     1       0.041  -0.009  -0.100  0.00  0.00    -0.283 N 
ATOM      3  C   UNL     1      -1.093  -0.787  -0.129  0.00  0.00    +0.079 A 
ATOM      4  C   UNL     1      -0.706  -2.111   0.016  0.00  0.00    +0.080 A 
ATOM      5  C   UNL     1       0.756  -2.111   0.140  0.00  0.00    +0.276 A 
ATOM      6  O   UNL     1       1.469  -3.087   0.283  0.00  0.00    -0.266 OA
ATOM      7  N   UNL     1       1.162  -0.829   0.058  0.00  0.00    -0.252 N 
ATOM      8  C   UNL     1       2.551  -0.368   0.128  0.00  0.00    +0.174 C 
ENDROOT
BRANCH   3   9
ATOM      9  C   UNL     1      -2.475  -0.300  -0.288  0.00  0.00    +0.003 A 
ATOM     10  C   UNL     1      -2.926   0.788   0.484  0.00  0.00    +0.012 A 
ATOM     11  C   UNL     1      -4.193   1.254   0.356  0.00  0.00    +0.030 A 
ATOM     12  C   UNL     1      -5.079   0.649  -0.557  0.00  0.00    +0.089 A 
ATOM     13  C   UNL     1      -4.638  -0.448  -1.341  0.00  0.00    +0.090 A 
ATOM     14  C   UNL     1      -3.321  -0.913  -1.200  0.00  0.00    +0.040 A 
ATOM     15  N   UNL     1      -5.480  -1.021  -2.209  0.00  0.00    -0.252 NA
ATOM     16  C   UNL     1      -6.705  -0.562  -2.327  0.00  0.00    +0.131 A 
ATOM     17  C   UNL     1      -7.139   0.517  -1.555  0.00  0.00    +0.131 A 
ATOM     18  N   UNL     1      -6.331   1.096  -0.696  0.00  0.00    -0.252 NA
ENDBRANCH   3   9
BRANCH   4  19
ATOM     19  C   UNL     1      -1.593  -3.290   0.043  0.00  0.00    +0.027 A 
ATOM     20  C   UNL     1      -1.670  -4.333  -0.843  0.00  0.00    +0.016 A 
ATOM     21  C   UNL     1      -2.588  -5.334  -0.608  0.00  0.00    +0.008 A 
ATOM     22  C   UNL     1      -3.384  -5.258   0.489  0.00  0.00    +0.046 A 
ATOM     23  S   UNL     1      -2.838  -3.734   1.242  0.00  0.00    -0.096 S 
ENDBRANCH   4  19
TORSDOF 2
