REMARK  Name = CHEMBL567505
REMARK  8 active torsions:
REMARK  status: ('A' for Active; 'I' for Inactive)
REMARK    1  A    between atoms: C_1  and  C_2
REMARK    2  A    between atoms: C_2  and  C_3
REMARK    3  A    between atoms: C_7  and  C_9
REMARK    4  A    between atoms: C_10  and  C_25
REMARK    5  A    between atoms: C_12  and  C_15
REMARK    6  A    between atoms: C_15  and  N_16
REMARK    7  A    between atoms: N_16  and  C_17
REMARK    8  A    between atoms: C_20  and  C_23
REMARK                            x       y       z     vdW  Elec       q    Type
REMARK                         _______ _______ _______ _____ _____    ______ ____
ROOT
ATOM      1  C   UNL     1       0.413   0.096  -4.820  0.00  0.00    +0.093 A 
ATOM      2  C   UNL     1      -0.903   0.358  -5.161  0.00  0.00    +0.098 A 
ATOM      3  N   UNL     1      -0.927   0.642  -6.476  0.00  0.00    -0.230 NA
ATOM      4  C   UNL     1       0.281   0.570  -6.961  0.00  0.00    +0.125 A 
ATOM      5  N   UNL     1       1.145   0.242  -5.977  0.00  0.00    -0.339 N 
ATOM      6  H   UNL     1       2.104   0.128  -6.068  0.00  0.00    +0.167 HD
ENDROOT
BRANCH   2   7
ATOM      7  C   UNL     1      -2.068   0.332  -4.247  0.00  0.00    +0.000 C 
ATOM      8  C   UNL     1      -2.397  -0.805  -3.598  0.00  0.00    +0.011 C 
ATOM      9  C   UNL     1      -3.596  -0.778  -2.694  0.00  0.00    +0.149 C 
ATOM     10  C   UNL     1      -4.688   0.074  -3.349  0.00  0.00    +0.106 C 
ATOM     11  C   UNL     1      -4.139   1.446  -3.615  0.00  0.00    -0.005 C 
ATOM     12  C   UNL     1      -2.876   1.554  -4.035  0.00  0.00    +0.007 C 
ATOM     13  N   UNL     1      -5.846   0.092  -2.451  0.00  0.00    -0.303 NA
ATOM     14  C   UNL     1      -6.434  -1.257  -2.391  0.00  0.00    +0.128 C 
ATOM     15  C   UNL     1      -5.372  -2.307  -2.260  0.00  0.00    +0.093 C 
ATOM     16  N   UNL     1      -4.126  -2.099  -2.403  0.00  0.00    -0.285 NA
ATOM     17  H   UNL     1      -5.585   0.414  -1.531  0.00  0.00    +0.123 HD
ENDBRANCH   2   7
BRANCH   1  22
ATOM     18  C   UNL     1       0.693  -0.179  -1.188  0.00  0.00    +0.042 A 
ATOM     19  C   UNL     1       1.853  -0.909  -1.005  0.00  0.00    +0.023 A 
ATOM     20  C   UNL     1       2.576  -1.330  -2.113  0.00  0.00    +0.004 A 
ATOM     21  C   UNL     1       2.107  -1.003  -3.372  0.00  0.00    +0.030 A 
ATOM     22  C   UNL     1       0.928  -0.263  -3.485  0.00  0.00    +0.090 A 
ATOM     23  N   UNL     1       0.263   0.117  -2.398  0.00  0.00    -0.250 NA
BRANCH  18  25
ATOM     24  C   UNL     1      -0.292   1.795  -0.056  0.00  0.00    +0.010 C 
ATOM     25  C   UNL     1      -0.093   0.279   0.013  0.00  0.00    +0.052 C 
ENDBRANCH  18  25
ENDBRANCH   1  22
BRANCH   4  26
ATOM     26  C   UNL     1       0.657   0.822  -8.399  0.00  0.00    +0.175 C 
BRANCH  26  27
ATOM     27  N   UNL     1       0.470  -0.407  -9.174  0.00  0.00    -0.337 N 
ATOM     28  H   UNL     1       0.148  -1.212  -8.739  0.00  0.00    +0.147 HD
BRANCH  27  29
ATOM     29  C   UNL     1       0.755  -0.420 -10.537  0.00  0.00    +0.028 A 
ATOM     30  C   UNL     1       1.222   0.734 -11.159  0.00  0.00    +0.024 A 
ATOM     31  C   UNL     1       1.504   0.724 -12.507  0.00  0.00    +0.020 A 
ATOM     32  C   UNL     1       1.321  -0.446 -13.250  0.00  0.00    +0.052 A 
ATOM     33  C   UNL     1       0.852  -1.603 -12.621  0.00  0.00    +0.020 A 
ATOM     34  C   UNL     1       0.577  -1.588 -11.272  0.00  0.00    +0.024 A 
BRANCH  32  35
ATOM     35  C   UNL     1       1.614  -0.459 -14.651  0.00  0.00    +0.099 C 
ATOM     36  N   UNL     1       1.845  -0.470 -15.763  0.00  0.00    -0.191 NA
ENDBRANCH  32  35
ENDBRANCH  27  29
ENDBRANCH  26  27
ENDBRANCH   4  26
TORSDOF 7
