REMARK  Name = CHEMBL118928
REMARK  4 active torsions:
REMARK  status: ('A' for Active; 'I' for Inactive)
REMARK    1  A    between atoms: C_1  and  C_2
REMARK    2  A    between atoms: C_6  and  C_8
REMARK    3  A    between atoms: C_9  and  C_14
REMARK    4  A    between atoms: C_17  and  O_20
REMARK                            x       y       z     vdW  Elec       q    Type
REMARK                         _______ _______ _______ _____ _____    ______ ____
ROOT
ATOM      1  C   UNL     1       0.050  -2.682   2.488  0.00  0.00    +0.092 A 
ATOM      2  C   UNL     1       0.521  -2.171   3.690  0.00  0.00    +0.029 A 
ATOM      3  C   UNL     1       0.343  -3.167   4.666  0.00  0.00    +0.143 A 
ATOM      4  N   UNL     1      -0.197  -4.213   4.099  0.00  0.00    -0.181 NA
ATOM      5  H   UNL     1      -0.791  -4.550   2.092  0.00  0.00    +0.189 HD
ATOM      6  N   UNL     1      -0.400  -3.944   2.741  0.00  0.00    -0.275 N 
ENDROOT
BRANCH   1  12
ATOM      7  C   UNL     1      -0.018   1.503   0.010  0.00  0.00    +0.065 C 
ATOM      8  C   UNL     1       0.002  -0.004   0.002  0.00  0.00    +0.039 A 
ATOM      9  C   UNL     1       0.005  -0.679  -1.205  0.00  0.00    +0.023 A 
ATOM     10  C   UNL     1       0.024  -2.067  -1.210  0.00  0.00    +0.004 A 
ATOM     11  C   UNL     1       0.039  -2.732   0.004  0.00  0.00    +0.030 A 
ATOM     12  C   UNL     1       0.035  -1.988   1.184  0.00  0.00    +0.089 A 
ATOM     13  N   UNL     1       0.022  -0.659   1.144  0.00  0.00    -0.250 NA
ENDBRANCH   1  12
BRANCH   2  14
ATOM     14  C   UNL     1       1.103  -0.824   3.905  0.00  0.00    -0.014 A 
ATOM     15  C   UNL     1       2.112  -0.357   3.064  0.00  0.00    +0.012 A 
ATOM     16  C   UNL     1       2.652   0.896   3.266  0.00  0.00    +0.046 A 
ATOM     17  C   UNL     1       2.191   1.692   4.306  0.00  0.00    +0.117 A 
ATOM     18  C   UNL     1       1.187   1.230   5.145  0.00  0.00    +0.046 A 
ATOM     19  C   UNL     1       0.638  -0.019   4.944  0.00  0.00    +0.012 A 
BRANCH  17  20
ATOM     20  O   UNL     1       2.725   2.926   4.503  0.00  0.00    -0.507 OA
ATOM     21  H   UNL     1       2.271   3.632   4.023  0.00  0.00    +0.292 HD
ENDBRANCH  17  20
ENDBRANCH   2  14
TORSDOF 3
