REMARK  Name = CHEMBL565643
REMARK  3 active torsions:
REMARK  status: ('A' for Active; 'I' for Inactive)
REMARK    1  A    between atoms: C_1  and  C_2
REMARK    2  A    between atoms: C_9  and  C_12
REMARK    3  A    between atoms: C_13  and  C_18
REMARK                            x       y       z     vdW  Elec       q    Type
REMARK                         _______ _______ _______ _____ _____    ______ ____
ROOT
ATOM      1  C   UNL     1       0.359   0.091   4.748  0.00  0.00    +0.068 A 
ATOM      2  C   UNL     1       1.166   1.185   5.057  0.00  0.00    +0.108 A 
ATOM      3  N   UNL     1       1.176   1.556   6.328  0.00  0.00    -0.223 NA
ATOM      4  C   UNL     1       0.461   0.922   7.232  0.00  0.00    +0.157 A 
ATOM      5  S   UNL     1      -0.319  -0.284   6.357  0.00  0.00    -0.050 S 
ATOM      6  N   UNL     1       0.368   1.190   8.585  0.00  0.00    -0.337 N 
ATOM      7  H   UNL     1       0.870   1.925   8.970  0.00  0.00    +0.144 HD
ATOM      8  H   UNL     1      -0.200   0.642   9.149  0.00  0.00    +0.144 HD
ENDROOT
BRANCH   1  17
ATOM      9  C   UNL     1      -0.701   1.907   0.194  0.00  0.00    +0.046 C 
ATOM     10  C   UNL     1      -0.643   0.407   0.068  0.00  0.00    -0.024 A 
ATOM     11  C   UNL     1      -0.857  -0.186  -1.139  0.00  0.00    +0.005 A 
ATOM     12  C   UNL     1      -0.807  -1.571  -1.277  0.00  0.00    +0.001 A 
ATOM     13  C   UNL     1      -0.542  -2.372  -0.206  0.00  0.00    +0.010 A 
ATOM     14  C   UNL     1      -0.315  -1.795   1.052  0.00  0.00    +0.001 A 
ATOM     15  C   UNL     1      -0.360  -0.385   1.194  0.00  0.00    +0.075 A 
ATOM     16  N   UNL     1      -0.141   0.172   2.389  0.00  0.00    -0.246 NA
ATOM     17  C   UNL     1       0.124  -0.568   3.453  0.00  0.00    +0.080 A 
ATOM     18  C   UNL     1       0.188  -1.972   3.372  0.00  0.00    +0.029 A 
ATOM     19  C   UNL     1      -0.038  -2.593   2.182  0.00  0.00    +0.012 A 
ENDBRANCH   1  17
BRANCH   2  20
ATOM     20  C   UNL     1       1.965   1.887   4.028  0.00  0.00    +0.090 A 
ATOM     21  C   UNL     1       2.304   3.228   4.211  0.00  0.00    +0.030 A 
ATOM     22  C   UNL     1       3.051   3.870   3.240  0.00  0.00    +0.004 A 
ATOM     23  C   UNL     1       3.436   3.152   2.116  0.00  0.00    +0.020 A 
ATOM     24  C   UNL     1       3.065   1.825   1.999  0.00  0.00    +0.111 A 
ATOM     25  N   UNL     1       2.357   1.235   2.940  0.00  0.00    -0.253 NA
ENDBRANCH   2  20
TORSDOF 2
