REMARK  Name = CHEMBL576062
REMARK  3 active torsions:
REMARK  status: ('A' for Active; 'I' for Inactive)
REMARK    1  A    between atoms: C_1  and  C_2
REMARK    2  A    between atoms: C_7  and  C_8
REMARK    3  A    between atoms: C_9  and  C_14
REMARK                            x       y       z     vdW  Elec       q    Type
REMARK                         _______ _______ _______ _____ _____    ______ ____
ROOT
ATOM      1  C   UNL     1       0.371   0.169   2.396  0.00  0.00    +0.108 A 
ATOM      2  C   UNL     1       0.392  -0.445   3.647  0.00  0.00    +0.068 A 
ATOM      3  S   UNL     1       0.127   0.964   4.711  0.00  0.00    -0.050 S 
ATOM      4  C   UNL     1       0.020   2.147   3.519  0.00  0.00    +0.157 A 
ATOM      5  N   UNL     1       0.185   1.480   2.398  0.00  0.00    -0.223 NA
ATOM      6  N   UNL     1      -0.187   3.503   3.682  0.00  0.00    -0.337 N 
ATOM      7  H   UNL     1      -0.291   3.875   4.572  0.00  0.00    +0.144 HD
ATOM      8  H   UNL     1      -0.230   4.083   2.906  0.00  0.00    +0.144 HD
ENDROOT
BRANCH   2   9
ATOM      9  C   UNL     1       0.580  -1.863   3.995  0.00  0.00    +0.081 A 
ATOM     10  C   UNL     1       0.678  -2.235   5.350  0.00  0.00    +0.031 A 
ATOM     11  C   UNL     1       0.852  -3.542   5.684  0.00  0.00    +0.032 A 
ATOM     12  C   UNL     1       0.930  -4.497   4.645  0.00  0.00    +0.089 A 
ATOM     13  C   UNL     1       0.825  -4.059   3.302  0.00  0.00    +0.090 A 
ATOM     14  N   UNL     1       0.649  -2.764   3.029  0.00  0.00    -0.245 NA
ATOM     15  C   UNL     1       0.904  -5.015   2.270  0.00  0.00    +0.031 A 
ATOM     16  C   UNL     1       1.079  -6.325   2.615  0.00  0.00    +0.022 A 
ATOM     17  C   UNL     1       1.174  -6.685   3.957  0.00  0.00    +0.111 A 
ATOM     18  N   UNL     1       1.100  -5.792   4.915  0.00  0.00    -0.253 NA
ENDBRANCH   2   9
BRANCH   1  25
ATOM     19  C   UNL     1      -1.569   0.443   0.267  0.00  0.00    +0.046 C 
ATOM     20  C   UNL     1      -0.379  -0.468   0.112  0.00  0.00    -0.023 A 
ATOM     21  C   UNL     1      -0.192  -1.186  -1.056  0.00  0.00    +0.007 A 
ATOM     22  C   UNL     1       0.919  -2.013  -1.155  0.00  0.00    +0.020 A 
ATOM     23  C   UNL     1       1.800  -2.097  -0.093  0.00  0.00    +0.111 A 
ATOM     24  N   UNL     1       1.600  -1.403   1.009  0.00  0.00    -0.253 NA
ATOM     25  C   UNL     1       0.553  -0.596   1.142  0.00  0.00    +0.093 A 
ENDBRANCH   1  25
TORSDOF 2
