REMARK  Name = CHEMBL565422
REMARK  7 active torsions:
REMARK  status: ('A' for Active; 'I' for Inactive)
REMARK    1  A    between atoms: C_1  and  C_2
REMARK    2  A    between atoms: C_6  and  C_8
REMARK    3  A    between atoms: C_9  and  C_25
REMARK    4  A    between atoms: C_11  and  C_14
REMARK    5  A    between atoms: C_14  and  N_15
REMARK    6  A    between atoms: N_15  and  C_16
REMARK    7  A    between atoms: C_19  and  C_22
REMARK                            x       y       z     vdW  Elec       q    Type
REMARK                         _______ _______ _______ _____ _____    ______ ____
ROOT
ATOM      1  C   UNL     1      -0.038  -2.639   2.515  0.00  0.00    +0.093 A 
ATOM      2  C   UNL     1       0.599  -2.217   3.670  0.00  0.00    +0.098 A 
ATOM      3  N   UNL     1       0.478  -3.203   4.578  0.00  0.00    -0.230 NA
ATOM      4  C   UNL     1      -0.186  -4.197   4.058  0.00  0.00    +0.125 A 
ATOM      5  N   UNL     1      -0.532  -3.895   2.788  0.00  0.00    -0.339 N 
ATOM      6  H   UNL     1      -1.034  -4.459   2.180  0.00  0.00    +0.167 HD
ENDROOT
BRANCH   2   7
ATOM      7  C   UNL     1       1.285  -0.920   3.869  0.00  0.00    +0.000 C 
ATOM      8  C   UNL     1       2.335  -0.580   3.089  0.00  0.00    +0.011 C 
ATOM      9  C   UNL     1       3.001   0.742   3.345  0.00  0.00    +0.149 C 
ATOM     10  C   UNL     1       3.060   0.981   4.856  0.00  0.00    +0.106 C 
ATOM     11  C   UNL     1       1.665   0.926   5.411  0.00  0.00    -0.005 C 
ATOM     12  C   UNL     1       0.822   0.015   4.919  0.00  0.00    +0.007 C 
ATOM     13  N   UNL     1       3.708   2.276   5.084  0.00  0.00    -0.303 NA
ATOM     14  C   UNL     1       5.122   2.186   4.682  0.00  0.00    +0.128 C 
ATOM     15  C   UNL     1       5.271   1.467   3.375  0.00  0.00    +0.093 C 
ATOM     16  N   UNL     1       4.343   0.824   2.792  0.00  0.00    -0.285 NA
ATOM     17  H   UNL     1       3.235   3.011   4.580  0.00  0.00    +0.123 HD
ENDBRANCH   2   7
BRANCH   1  23
ATOM     18  C   UNL     1      -0.180   1.644   0.217  0.00  0.00    +0.065 C 
ATOM     19  C   UNL     1      -0.234   0.140   0.152  0.00  0.00    +0.039 A 
ATOM     20  C   UNL     1      -0.399  -0.484  -1.071  0.00  0.00    +0.023 A 
ATOM     21  C   UNL     1      -0.449  -1.871  -1.129  0.00  0.00    +0.004 A 
ATOM     22  C   UNL     1      -0.330  -2.586   0.049  0.00  0.00    +0.030 A 
ATOM     23  C   UNL     1      -0.165  -1.892   1.250  0.00  0.00    +0.090 A 
ATOM     24  N   UNL     1      -0.118  -0.563   1.260  0.00  0.00    -0.250 NA
ENDBRANCH   1  23
BRANCH   4  25
ATOM     25  C   UNL     1      -0.523  -5.483   4.767  0.00  0.00    +0.175 C 
BRANCH  25  26
ATOM     26  N   UNL     1       0.602  -6.414   4.650  0.00  0.00    -0.337 N 
ATOM     27  H   UNL     1       1.401  -6.151   4.168  0.00  0.00    +0.147 HD
BRANCH  26  28
ATOM     28  C   UNL     1       0.523  -7.676   5.230  0.00  0.00    +0.027 A 
ATOM     29  C   UNL     1      -0.627  -8.054   5.917  0.00  0.00    +0.023 A 
ATOM     30  C   UNL     1      -0.708  -9.302   6.492  0.00  0.00    +0.015 A 
ATOM     31  C   UNL     1       0.367 -10.189   6.386  0.00  0.00    +0.037 A 
ATOM     32  C   UNL     1       1.521  -9.806   5.696  0.00  0.00    +0.015 A 
ATOM     33  C   UNL     1       1.593  -8.559   5.118  0.00  0.00    +0.023 A 
BRANCH  31  34
ATOM     34  C   UNL     1       0.284 -11.527   7.001  0.00  0.00    +0.242 C 
ATOM     35  O   UNL     1      -0.720 -11.859   7.602  0.00  0.00    -0.270 OA
ATOM     36  N   UNL     1       1.321 -12.382   6.899  0.00  0.00    -0.325 N 
ATOM     37  H   UNL     1       2.122 -12.117   6.420  0.00  0.00    +0.145 HD
ATOM     38  H   UNL     1       1.266 -13.262   7.303  0.00  0.00    +0.145 HD
ENDBRANCH  31  34
ENDBRANCH  26  28
ENDBRANCH  25  26
ENDBRANCH   4  25
TORSDOF 6
