REMARK  Name = CHEMBL1164971
REMARK  6 active torsions:
REMARK  status: ('A' for Active; 'I' for Inactive)
REMARK    1  A    between atoms: C_1  and  C_2
REMARK    2  A    between atoms: C_6  and  C_8
REMARK    3  A    between atoms: N_10  and  C_23
REMARK    4  A    between atoms: C_12  and  C_13
REMARK    5  A    between atoms: C_23  and  C_24
REMARK    6  A    between atoms: C_28  and  C_30
REMARK                            x       y       z     vdW  Elec       q    Type
REMARK                         _______ _______ _______ _____ _____    ______ ____
ROOT
ATOM      1  C   UNL     1       0.051  -2.682   2.494  0.00  0.00    +0.046 A 
ATOM      2  C   UNL     1      -0.020  -4.030   2.692  0.00  0.00    +0.119 A 
ATOM      3  N   UNL     1       0.025  -4.254   4.020  0.00  0.00    -0.266 N 
ATOM      4  N   UNL     1       0.127  -3.022   4.675  0.00  0.00    -0.170 NA
ATOM      5  C   UNL     1       0.148  -2.069   3.769  0.00  0.00    +0.102 A 
ENDROOT
BRANCH   5   6
ATOM      6  C   UNL     1       0.253  -0.614   4.033  0.00  0.00    +0.003 A 
ATOM      7  C   UNL     1      -0.591   0.280   3.353  0.00  0.00    +0.012 A 
ATOM      8  C   UNL     1      -0.515   1.617   3.577  0.00  0.00    +0.029 A 
ATOM      9  C   UNL     1       0.417   2.127   4.500  0.00  0.00    +0.071 A 
ATOM     10  C   UNL     1       1.272   1.232   5.191  0.00  0.00    +0.001 A 
ATOM     11  C   UNL     1       1.175  -0.147   4.951  0.00  0.00    +0.020 A 
ATOM     12  C   UNL     1       2.201   1.749   6.113  0.00  0.00    +0.011 A 
ATOM     13  C   UNL     1       2.237   3.102   6.301  0.00  0.00    +0.020 A 
ATOM     14  C   UNL     1       1.369   3.926   5.590  0.00  0.00    +0.111 A 
ATOM     15  N   UNL     1       0.504   3.440   4.732  0.00  0.00    -0.255 NA
ENDBRANCH   5   6
BRANCH   1  21
ATOM     16  C   UNL     1       0.485   1.465  -0.016  0.00  0.00    +0.065 C 
ATOM     17  C   UNL     1       0.239  -0.022  -0.010  0.00  0.00    +0.039 A 
ATOM     18  C   UNL     1       0.010  -0.679  -1.204  0.00  0.00    +0.023 A 
ATOM     19  C   UNL     1      -0.216  -2.049  -1.195  0.00  0.00    +0.004 A 
ATOM     20  C   UNL     1      -0.203  -2.712   0.019  0.00  0.00    +0.028 A 
ATOM     21  C   UNL     1       0.034  -1.987   1.185  0.00  0.00    +0.075 A 
ATOM     22  N   UNL     1       0.251  -0.678   1.132  0.00  0.00    -0.252 NA
ENDBRANCH   1  21
BRANCH   3  23
ATOM     23  C   UNL     1      -0.023  -5.567   4.668  0.00  0.00    +0.178 C 
BRANCH  23  24
ATOM     24  C   UNL     1       1.174  -5.727   5.569  0.00  0.00    -0.025 A 
ATOM     25  C   UNL     1       2.346  -6.268   5.071  0.00  0.00    +0.005 A 
ATOM     26  C   UNL     1       3.450  -6.418   5.891  0.00  0.00    +0.002 A 
ATOM     27  C   UNL     1       3.389  -6.029   7.213  0.00  0.00    +0.019 A 
ATOM     28  C   UNL     1       2.209  -5.482   7.723  0.00  0.00    +0.052 A 
ATOM     29  C   UNL     1       1.101  -5.329   6.888  0.00  0.00    +0.024 A 
BRANCH  28  30
ATOM     30  C   UNL     1       2.139  -5.077   9.094  0.00  0.00    +0.099 C 
ATOM     31  N   UNL     1       2.083  -4.755  10.182  0.00  0.00    -0.191 NA
ENDBRANCH  28  30
ENDBRANCH  23  24
ENDBRANCH   3  23
TORSDOF 5
