REMARK  Name = CHEMBL585505
REMARK  9 active torsions:
REMARK  status: ('A' for Active; 'I' for Inactive)
REMARK    1  A    between atoms: C_1  and  C_2
REMARK    2  A    between atoms: C_6  and  C_8
REMARK    3  A    between atoms: C_9  and  C_17
REMARK    4  A    between atoms: C_12  and  C_14
REMARK    5  A    between atoms: C_14  and  C_15
REMARK    6  A    between atoms: C_14  and  C_16
REMARK    7  A    between atoms: C_21  and  C_23
REMARK    8  A    between atoms: C_26  and  C_29
REMARK    9  A    between atoms: N_31  and  C_32
REMARK                            x       y       z     vdW  Elec       q    Type
REMARK                         _______ _______ _______ _____ _____    ______ ____
ROOT
ATOM      1  C   UNL     1       1.089  -0.826   3.913  0.00  0.00    +0.004 A 
ATOM      2  C   UNL     1       2.033  -0.289   3.026  0.00  0.00    +0.030 A 
ATOM      3  C   UNL     1       2.547   0.967   3.269  0.00  0.00    +0.112 A 
ATOM      4  N   UNL     1       2.166   1.667   4.319  0.00  0.00    -0.255 NA
ATOM      5  C   UNL     1       1.275   1.202   5.188  0.00  0.00    +0.072 A 
ATOM      6  C   UNL     1       0.703  -0.054   5.014  0.00  0.00    +0.038 A 
ENDROOT
BRANCH   1   8
ATOM      7  C   UNL     1       0.050  -2.682   2.492  0.00  0.00    +0.115 A 
ATOM      8  C   UNL     1       0.515  -2.167   3.689  0.00  0.00    +0.076 A 
ATOM      9  N   UNL     1       0.334  -3.155   4.627  0.00  0.00    -0.341 N 
ATOM     10  H   UNL     1       0.561  -3.102   5.569  0.00  0.00    +0.167 HD
ATOM     11  C   UNL     1      -0.219  -4.214   3.997  0.00  0.00    +0.111 A 
ATOM     12  N   UNL     1      -0.391  -3.930   2.736  0.00  0.00    -0.230 NA
BRANCH   7  18
ATOM     13  C   UNL     1      -0.018   1.503   0.010  0.00  0.00    +0.065 C 
ATOM     14  C   UNL     1       0.002  -0.004   0.002  0.00  0.00    +0.039 A 
ATOM     15  C   UNL     1       0.005  -0.679  -1.205  0.00  0.00    +0.023 A 
ATOM     16  C   UNL     1       0.024  -2.067  -1.208  0.00  0.00    +0.004 A 
ATOM     17  C   UNL     1       0.039  -2.731   0.005  0.00  0.00    +0.030 A 
ATOM     18  C   UNL     1       0.035  -1.987   1.185  0.00  0.00    +0.092 A 
ATOM     19  N   UNL     1       0.022  -0.660   1.145  0.00  0.00    -0.250 NA
ENDBRANCH   7  18
BRANCH  11  20
ATOM     20  C   UNL     1      -0.586  -5.521   4.652  0.00  0.00    +0.049 C 
ATOM     21  C   UNL     1       0.642  -6.432   4.696  0.00  0.00    +0.015 C 
ATOM     22  C   UNL     1      -1.077  -5.257   6.077  0.00  0.00    +0.015 C 
ENDBRANCH  11  20
ENDBRANCH   1   8
BRANCH   5  23
ATOM     23  C   UNL     1       0.883   2.032   6.353  0.00  0.00    +0.000 A 
ATOM     24  C   UNL     1      -0.047   1.548   7.272  0.00  0.00    +0.011 A 
ATOM     25  C   UNL     1      -0.412   2.318   8.354  0.00  0.00    +0.014 A 
ATOM     26  C   UNL     1       0.150   3.585   8.530  0.00  0.00    +0.037 A 
ATOM     27  C   UNL     1       1.081   4.069   7.608  0.00  0.00    +0.014 A 
ATOM     28  C   UNL     1       1.449   3.295   6.530  0.00  0.00    +0.011 A 
BRANCH  26  29
ATOM     29  C   UNL     1      -0.241   4.412   9.690  0.00  0.00    +0.244 C 
ATOM     30  O   UNL     1      -1.052   3.991  10.491  0.00  0.00    -0.270 OA
ATOM     31  N   UNL     1       0.301   5.635   9.859  0.00  0.00    -0.308 N 
ATOM     32  H   UNL     1       0.948   5.971   9.220  0.00  0.00    +0.149 HD
BRANCH  31  33
ATOM     33  C   UNL     1      -0.087   6.455  11.009  0.00  0.00    +0.078 C 
ATOM     34  C   UNL     1      -1.359   7.239  10.674  0.00  0.00    +0.050 C 
ATOM     35  C   UNL     1      -1.712   8.152  11.851  0.00  0.00    +0.161 C 
ATOM     36  O   UNL     1      -0.612   9.024  12.122  0.00  0.00    -0.380 OA
ATOM     37  C   UNL     1       0.592   8.348  12.488  0.00  0.00    +0.161 C 
ATOM     38  C   UNL     1       1.038   7.443  11.336  0.00  0.00    +0.050 C 
ENDBRANCH  31  33
ENDBRANCH  26  29
ENDBRANCH   5  23
TORSDOF 6
