REMARK  Name = CHEMBL574415
REMARK  11 active torsions:
REMARK  status: ('A' for Active; 'I' for Inactive)
REMARK    1  A    between atoms: C_1  and  C_2
REMARK    2  A    between atoms: C_5  and  O_9
REMARK    3  A    between atoms: C_6  and  C_8
REMARK    4  A    between atoms: O_9  and  C_10
REMARK    5  A    between atoms: N_16  and  C_17
REMARK    6  A    between atoms: C_19  and  O_27
REMARK    7  A    between atoms: C_20  and  O_25
REMARK    8  A    between atoms: C_21  and  O_23
REMARK    9  A    between atoms: O_23  and  C_24
REMARK   10  A    between atoms: O_25  and  C_26
REMARK   11  A    between atoms: O_27  and  C_28
REMARK                            x       y       z     vdW  Elec       q    Type
REMARK                         _______ _______ _______ _____ _____    ______ ____
ROOT
ATOM      1  C   UNL     1      -0.617  -4.613  -1.239  0.00  0.00    +0.133 A 
ATOM      2  C   UNL     1      -0.600  -6.022  -1.317  0.00  0.00    +0.064 A 
ATOM      3  C   UNL     1      -0.303  -6.634  -2.480  0.00  0.00    +0.088 A 
ATOM      4  N   UNL     1      -0.014  -5.910  -3.598  0.00  0.00    -0.346 N 
ATOM      5  C   UNL     1      -0.020  -4.537  -3.563  0.00  0.00    +0.135 A 
ATOM      6  C   UNL     1      -0.332  -3.870  -2.365  0.00  0.00    +0.092 A 
ATOM      7  N   UNL     1       0.263  -3.841  -4.659  0.00  0.00    -0.230 NA
ATOM      8  H   UNL     1       0.197  -6.369  -4.426  0.00  0.00    +0.167 HD
ENDROOT
BRANCH   7   9
ATOM      9  C   UNL     1       0.382  -2.481  -4.593  0.00  0.00    +0.073 A 
ATOM     10  C   UNL     1       1.298  -1.900  -3.713  0.00  0.00    +0.077 A 
ATOM     11  C   UNL     1       1.415  -0.522  -3.649  0.00  0.00    +0.167 A 
ATOM     12  C   UNL     1       0.622   0.283  -4.458  0.00  0.00    +0.204 A 
ATOM     13  C   UNL     1      -0.291  -0.292  -5.335  0.00  0.00    +0.167 A 
ATOM     14  C   UNL     1      -0.409  -1.669  -5.409  0.00  0.00    +0.077 A 
BRANCH  13  15
ATOM     15  O   UNL     1      -1.065   0.500  -6.125  0.00  0.00    -0.491 OA
ATOM     16  C   UNL     1      -1.982  -0.157  -7.003  0.00  0.00    +0.277 C 
ENDBRANCH  13  15
BRANCH  12  17
ATOM     17  O   UNL     1       0.739   1.639  -4.392  0.00  0.00    -0.488 OA
ATOM     18  C   UNL     1       1.688   2.251  -5.268  0.00  0.00    +0.277 C 
ENDBRANCH  12  17
BRANCH  11  19
ATOM     19  O   UNL     1       2.307   0.045  -2.792  0.00  0.00    -0.491 OA
ATOM     20  C   UNL     1       3.089  -0.842  -1.990  0.00  0.00    +0.277 C 
ENDBRANCH  11  19
ENDBRANCH   7   9
BRANCH   1  21
ATOM     21  O   UNL     1      -0.915  -3.996  -0.070  0.00  0.00    -0.454 OA
BRANCH  21  26
ATOM     22  C   UNL     1       2.578  -4.478   4.264  0.00  0.00    +0.065 C 
ATOM     23  C   UNL     1       1.652  -4.360   3.081  0.00  0.00    +0.039 A 
ATOM     24  C   UNL     1       2.027  -4.900   1.865  0.00  0.00    +0.026 A 
ATOM     25  C   UNL     1       1.171  -4.788   0.782  0.00  0.00    +0.050 A 
ATOM     26  C   UNL     1      -0.042  -4.131   0.964  0.00  0.00    +0.149 A 
ATOM     27  C   UNL     1      -0.349  -3.615   2.215  0.00  0.00    +0.081 A 
ATOM     28  N   UNL     1       0.493  -3.748   3.221  0.00  0.00    -0.253 NA
ATOM     29  C   UNL     1      -1.659  -2.902   2.427  0.00  0.00    +0.069 C 
ENDBRANCH  21  26
ENDBRANCH   1  21
TORSDOF 6
