REMARK  Name = CHEMBL125846
REMARK  3 active torsions:
REMARK  status: ('A' for Active; 'I' for Inactive)
REMARK    1  A    between atoms: C_1  and  C_2
REMARK    2  A    between atoms: C_6  and  C_8
REMARK    3  A    between atoms: C_9  and  C_14
REMARK                            x       y       z     vdW  Elec       q    Type
REMARK                         _______ _______ _______ _____ _____    ______ ____
ROOT
ATOM      1  C   UNL     1       0.051  -2.682   2.488  0.00  0.00    +0.092 A 
ATOM      2  C   UNL     1       0.516  -2.168   3.691  0.00  0.00    +0.029 A 
ATOM      3  C   UNL     1       0.341  -3.165   4.667  0.00  0.00    +0.143 A 
ATOM      4  N   UNL     1      -0.194  -4.213   4.099  0.00  0.00    -0.181 NA
ATOM      5  N   UNL     1      -0.394  -3.946   2.740  0.00  0.00    -0.275 N 
ATOM      6  H   UNL     1      -0.781  -4.553   2.090  0.00  0.00    +0.189 HD
ENDROOT
BRANCH   1  12
ATOM      7  C   UNL     1      -0.018   1.503   0.010  0.00  0.00    +0.065 C 
ATOM      8  C   UNL     1       0.002  -0.004   0.002  0.00  0.00    +0.039 A 
ATOM      9  C   UNL     1       0.006  -0.679  -1.205  0.00  0.00    +0.023 A 
ATOM     10  C   UNL     1       0.025  -2.067  -1.210  0.00  0.00    +0.004 A 
ATOM     11  C   UNL     1       0.040  -2.732   0.004  0.00  0.00    +0.030 A 
ATOM     12  C   UNL     1       0.035  -1.988   1.184  0.00  0.00    +0.089 A 
ATOM     13  N   UNL     1       0.022  -0.659   1.144  0.00  0.00    -0.250 NA
ENDBRANCH   1  12
BRANCH   2  14
ATOM     14  C   UNL     1       1.092  -0.819   3.907  0.00  0.00    -0.014 A 
ATOM     15  C   UNL     1       2.101  -0.347   3.070  0.00  0.00    +0.011 A 
ATOM     16  C   UNL     1       2.633   0.909   3.274  0.00  0.00    +0.039 A 
ATOM     17  C   UNL     1       2.167   1.701   4.311  0.00  0.00    +0.123 A 
ATOM     18  C   UNL     1       1.164   1.236   5.147  0.00  0.00    +0.039 A 
ATOM     19  C   UNL     1       0.621  -0.016   4.946  0.00  0.00    +0.011 A 
ATOM     20  F   UNL     1       2.691   2.931   4.508  0.00  0.00    -0.205 F 
ENDBRANCH   2  14
TORSDOF 2
