REMARK  Name = CHEMBL593725
REMARK  4 active torsions:
REMARK  status: ('A' for Active; 'I' for Inactive)
REMARK    1  A    between atoms: C_1  and  N_2
REMARK    2  A    between atoms: C_3  and  C_15
REMARK    3  A    between atoms: C_4  and  C_9
REMARK    4  A    between atoms: N_7  and  C_8
REMARK                            x       y       z     vdW  Elec       q    Type
REMARK                         _______ _______ _______ _____ _____    ______ ____
ROOT
ATOM      1  C   UNL     1       0.100   1.341   0.773  0.00  0.00    +0.171 C 
ATOM      2  N   UNL     1       0.054  -0.058   0.341  0.00  0.00    -0.283 N 
ATOM      3  C   UNL     1      -1.087  -0.761   0.053  0.00  0.00    +0.080 A 
ATOM      4  C   UNL     1      -0.717  -2.046  -0.318  0.00  0.00    +0.092 A 
ATOM      5  C   UNL     1       0.746  -2.099  -0.243  0.00  0.00    +0.277 A 
ATOM      6  O   UNL     1       1.449  -3.062  -0.494  0.00  0.00    -0.265 OA
ATOM      7  N   UNL     1       1.168  -0.881   0.151  0.00  0.00    -0.252 N 
ATOM      8  C   UNL     1       2.564  -0.486   0.352  0.00  0.00    +0.174 C 
ENDROOT
BRANCH   3   9
ATOM      9  C   UNL     1      -2.466  -0.243   0.126  0.00  0.00    +0.003 A 
ATOM     10  C   UNL     1      -3.446  -0.962   0.836  0.00  0.00    +0.012 A 
ATOM     11  C   UNL     1      -4.721  -0.505   0.916  0.00  0.00    +0.030 A 
ATOM     12  C   UNL     1      -5.080   0.701   0.286  0.00  0.00    +0.089 A 
ATOM     13  C   UNL     1      -4.103   1.436  -0.432  0.00  0.00    +0.090 A 
ATOM     14  C   UNL     1      -2.787   0.951  -0.501  0.00  0.00    +0.040 A 
ATOM     15  N   UNL     1      -4.445   2.583  -1.030  0.00  0.00    -0.252 NA
ATOM     16  C   UNL     1      -5.681   3.017  -0.947  0.00  0.00    +0.131 A 
ATOM     17  C   UNL     1      -6.644   2.294  -0.239  0.00  0.00    +0.131 A 
ATOM     18  N   UNL     1      -6.332   1.165   0.356  0.00  0.00    -0.252 NA
ENDBRANCH   3   9
BRANCH   4  19
ATOM     19  C   UNL     1      -1.621  -3.146  -0.713  0.00  0.00    +0.078 A 
ATOM     20  C   UNL     1      -1.104  -4.425  -0.929  0.00  0.00    +0.028 A 
ATOM     21  C   UNL     1      -1.963  -5.443  -1.297  0.00  0.00    +0.004 A 
ATOM     22  C   UNL     1      -3.314  -5.153  -1.438  0.00  0.00    +0.020 A 
ATOM     23  C   UNL     1      -3.760  -3.866  -1.208  0.00  0.00    +0.111 A 
ATOM     24  N   UNL     1      -2.921  -2.912  -0.853  0.00  0.00    -0.255 NA
ENDBRANCH   4  19
TORSDOF 2
