REMARK  Name = CHEMBL560415
REMARK  5 active torsions:
REMARK  status: ('A' for Active; 'I' for Inactive)
REMARK    1  A    between atoms: C_1  and  C_2
REMARK    2  A    between atoms: C_6  and  C_8
REMARK    3  A    between atoms: C_16  and  N_18
REMARK    4  A    between atoms: N_18  and  C_19
REMARK    5  A    between atoms: C_23  and  C_25
REMARK                            x       y       z     vdW  Elec       q    Type
REMARK                         _______ _______ _______ _____ _____    ______ ____
ROOT
ATOM      1  C   UNL     1      -0.046  -2.677   2.495  0.00  0.00    +0.181 A 
ATOM      2  N   UNL     1      -0.235  -3.982   2.509  0.00  0.00    -0.226 NA
ATOM      3  C   UNL     1      -0.346  -4.639   3.672  0.00  0.00    +0.077 A 
ATOM      4  C   UNL     1      -0.547  -6.026   3.724  0.00  0.00    +0.028 A 
ATOM      5  C   UNL     1      -0.652  -6.645   4.933  0.00  0.00    +0.002 A 
ATOM      6  C   UNL     1      -0.564  -5.923   6.120  0.00  0.00    +0.001 A 
ATOM      7  C   UNL     1      -0.369  -4.573   6.105  0.00  0.00    +0.013 A 
ATOM      8  C   UNL     1      -0.256  -3.905   4.881  0.00  0.00    +0.040 A 
ATOM      9  C   UNL     1      -0.052  -2.505   4.804  0.00  0.00    +0.135 A 
ATOM     10  N   UNL     1       0.049  -1.950   3.606  0.00  0.00    -0.210 NA
ENDROOT
BRANCH   1  16
ATOM     11  C   UNL     1       0.597   1.460   0.012  0.00  0.00    +0.065 C 
ATOM     12  C   UNL     1       0.376  -0.031   0.003  0.00  0.00    +0.039 A 
ATOM     13  C   UNL     1       0.290  -0.701  -1.205  0.00  0.00    +0.023 A 
ATOM     14  C   UNL     1       0.086  -2.073  -1.208  0.00  0.00    +0.004 A 
ATOM     15  C   UNL     1      -0.025  -2.728   0.008  0.00  0.00    +0.031 A 
ATOM     16  C   UNL     1       0.071  -1.990   1.185  0.00  0.00    +0.108 A 
ATOM     17  N   UNL     1       0.272  -0.679   1.145  0.00  0.00    -0.249 NA
ENDBRANCH   1  16
BRANCH   9  18
ATOM     18  N   UNL     1       0.042  -1.740   5.949  0.00  0.00    -0.299 N 
ATOM     19  H   UNL     1       0.053  -2.168   6.820  0.00  0.00    +0.154 HD
BRANCH  18  20
ATOM     20  C   UNL     1       0.123  -0.352   5.855  0.00  0.00    +0.035 A 
ATOM     21  C   UNL     1      -0.483   0.330   4.801  0.00  0.00    +0.041 A 
ATOM     22  C   UNL     1      -0.381   1.704   4.744  0.00  0.00    +0.084 A 
ATOM     23  N   UNL     1       0.281   2.372   5.670  0.00  0.00    -0.364 N 
ATOM     24  C   UNL     1       0.869   1.763   6.683  0.00  0.00    +0.015 A 
ATOM     25  C   UNL     1       0.808   0.392   6.816  0.00  0.00    +0.044 A 
ATOM     26  C   UNL     1       1.612   2.578   7.711  0.00  0.00    +0.063 C 
ATOM     27  H   UNL     1       0.338   3.338   5.605  0.00  0.00    +0.165 HD
ENDBRANCH  18  20
ENDBRANCH   9  18
TORSDOF 3
