REMARK  Name = CHEMBL378167
REMARK  6 active torsions:
REMARK  status: ('A' for Active; 'I' for Inactive)
REMARK    1  A    between atoms: C_5  and  C_7
REMARK    2  A    between atoms: C_8  and  C_15
REMARK    3  A    between atoms: N_21  and  C_24
REMARK    4  A    between atoms: C_24  and  C_25
REMARK    5  A    between atoms: C_25  and  C_26
REMARK    6  A    between atoms: C_26  and  N_27
REMARK                            x       y       z     vdW  Elec       q    Type
REMARK                         _______ _______ _______ _____ _____    ______ ____
ROOT
ATOM      1  C   UNL     1       3.590  -2.466  -1.117  0.00  0.00    -0.012 A 
ATOM      2  C   UNL     1       3.866  -2.722  -2.464  0.00  0.00    +0.011 A 
ATOM      3  C   UNL     1       5.027  -2.282  -3.029  0.00  0.00    +0.030 A 
ATOM      4  C   UNL     1       5.953  -1.568  -2.262  0.00  0.00    +0.089 A 
ATOM      5  C   UNL     1       5.680  -1.308  -0.907  0.00  0.00    +0.069 A 
ATOM      6  C   UNL     1       4.496  -1.753  -0.341  0.00  0.00    +0.036 A 
ATOM      7  N   UNL     1       6.765  -0.598  -0.430  0.00  0.00    -0.330 N 
ATOM      8  C   UNL     1       7.637  -0.450  -1.464  0.00  0.00    +0.200 A 
ATOM      9  N   UNL     1       7.163  -1.016  -2.535  0.00  0.00    -0.236 NA
ENDROOT
BRANCH   1  11
ATOM     10  C   UNL     1       1.267  -2.146  -0.023  0.00  0.00    +0.119 A 
ATOM     11  C   UNL     1       2.323  -2.951  -0.517  0.00  0.00    +0.032 A 
ATOM     12  C   UNL     1       1.961  -4.255  -0.340  0.00  0.00    +0.048 A 
ATOM     13  N   UNL     1       0.745  -4.276   0.239  0.00  0.00    -0.267 N 
ATOM     14  N   UNL     1       0.329  -2.947   0.431  0.00  0.00    -0.169 NA
ATOM     15  C   UNL     1       0.293  -5.658   0.467  0.00  0.00    +0.144 C 
ATOM     16  C   UNL     1       1.184  -6.540  -0.434  0.00  0.00    +0.029 C 
ATOM     17  C   UNL     1       2.454  -5.669  -0.569  0.00  0.00    +0.057 C 
BRANCH  10  22
ATOM     18  C   UNL     1      -0.017   1.379   0.010  0.00  0.00    +0.004 A 
ATOM     19  C   UNL     1       1.194   2.059   0.002  0.00  0.00    +0.020 A 
ATOM     20  C   UNL     1       2.375   1.340  -0.013  0.00  0.00    +0.111 A 
ATOM     21  N   UNL     1       2.365   0.022  -0.021  0.00  0.00    -0.253 NA
ATOM     22  C   UNL     1       1.230  -0.665  -0.014  0.00  0.00    +0.091 A 
ATOM     23  C   UNL     1       0.002  -0.004   0.002  0.00  0.00    +0.030 A 
ENDBRANCH  10  22
ENDBRANCH   1  11
BRANCH   7  24
ATOM     24  C   UNL     1       6.943  -0.098   0.935  0.00  0.00    +0.121 C 
BRANCH  24  25
ATOM     25  C   UNL     1       7.537  -1.204   1.810  0.00  0.00    +0.003 C 
BRANCH  25  26
ATOM     26  C   UNL     1       7.723  -0.681   3.236  0.00  0.00    -0.077 C 
BRANCH  26  27
ATOM     27  N   UNL     1       8.294  -1.743   4.076  0.00  0.00    +0.380 N 
ATOM     28  C   UNL     1       9.693  -2.024   3.666  0.00  0.00    -0.079 C 
ATOM     29  C   UNL     1      10.305  -2.688   4.925  0.00  0.00    -0.020 C 
ATOM     30  C   UNL     1       9.650  -1.901   6.083  0.00  0.00    -0.020 C 
ATOM     31  C   UNL     1       8.368  -1.294   5.484  0.00  0.00    -0.079 C 
ATOM     32  H   UNL     1       7.735  -2.580   4.007  0.00  0.00    -0.082 HD
ENDBRANCH  26  27
ENDBRANCH  25  26
ENDBRANCH  24  25
ENDBRANCH   7  24
TORSDOF 6
