REMARK  Name = CHEMBL565422
REMARK  7 active torsions:
REMARK  status: ('A' for Active; 'I' for Inactive)
REMARK    1  A    between atoms: C_1  and  C_2
REMARK    2  A    between atoms: C_6  and  C_8
REMARK    3  A    between atoms: C_9  and  C_25
REMARK    4  A    between atoms: C_11  and  C_14
REMARK    5  A    between atoms: C_14  and  N_15
REMARK    6  A    between atoms: N_15  and  C_16
REMARK    7  A    between atoms: C_19  and  C_22
REMARK                            x       y       z     vdW  Elec       q    Type
REMARK                         _______ _______ _______ _____ _____    ______ ____
ROOT
ATOM      1  C   UNL     1      -0.023  -2.646   2.510  0.00  0.00    +0.093 A 
ATOM      2  C   UNL     1       0.599  -2.217   3.670  0.00  0.00    +0.098 A 
ATOM      3  N   UNL     1       0.464  -3.196   4.583  0.00  0.00    -0.230 NA
ATOM      4  C   UNL     1      -0.196  -4.192   4.061  0.00  0.00    +0.125 A 
ATOM      5  N   UNL     1      -0.524  -3.899   2.785  0.00  0.00    -0.339 N 
ATOM      6  H   UNL     1      -1.019  -4.466   2.174  0.00  0.00    +0.167 HD
ENDROOT
BRANCH   2   7
ATOM      7  C   UNL     1       1.285  -0.920   3.869  0.00  0.00    -0.000 C 
ATOM      8  C   UNL     1       0.868  -0.076   4.824  0.00  0.00    +0.004 C 
ATOM      9  C   UNL     1       1.574   1.230   5.052  0.00  0.00    +0.106 C 
ATOM     10  C   UNL     1       2.139   1.783   3.751  0.00  0.00    +0.148 C 
ATOM     11  C   UNL     1       2.842   0.708   2.969  0.00  0.00    +0.002 C 
ATOM     12  C   UNL     1       2.437  -0.552   3.020  0.00  0.00    +0.008 C 
ATOM     13  N   UNL     1       3.057   2.885   4.014  0.00  0.00    -0.285 NA
ATOM     14  C   UNL     1       3.550   3.139   5.151  0.00  0.00    +0.093 C 
ATOM     15  C   UNL     1       3.246   2.342   6.386  0.00  0.00    +0.128 C 
ATOM     16  N   UNL     1       2.670   1.041   6.015  0.00  0.00    -0.303 NA
ATOM     17  H   UNL     1       2.352   0.541   6.831  0.00  0.00    +0.123 HD
ENDBRANCH   2   7
BRANCH   1  23
ATOM     18  C   UNL     1      -0.124   1.620   0.179  0.00  0.00    +0.065 C 
ATOM     19  C   UNL     1      -0.181   0.116   0.124  0.00  0.00    +0.039 A 
ATOM     20  C   UNL     1      -0.331  -0.517  -1.097  0.00  0.00    +0.023 A 
ATOM     21  C   UNL     1      -0.382  -1.903  -1.145  0.00  0.00    +0.004 A 
ATOM     22  C   UNL     1      -0.281  -2.610   0.039  0.00  0.00    +0.030 A 
ATOM     23  C   UNL     1      -0.131  -1.908   1.237  0.00  0.00    +0.090 A 
ATOM     24  N   UNL     1      -0.082  -0.580   1.238  0.00  0.00    -0.250 NA
ENDBRANCH   1  23
BRANCH   4  25
ATOM     25  C   UNL     1      -0.545  -5.473   4.775  0.00  0.00    +0.175 C 
BRANCH  25  26
ATOM     26  N   UNL     1       0.579  -6.407   4.681  0.00  0.00    -0.337 N 
ATOM     27  H   UNL     1       1.386  -6.149   4.208  0.00  0.00    +0.147 HD
BRANCH  26  28
ATOM     28  C   UNL     1       0.490  -7.664   5.269  0.00  0.00    +0.027 A 
ATOM     29  C   UNL     1      -0.670  -8.035   5.942  0.00  0.00    +0.023 A 
ATOM     30  C   UNL     1      -0.762  -9.278   6.525  0.00  0.00    +0.015 A 
ATOM     31  C   UNL     1       0.313 -10.169   6.440  0.00  0.00    +0.037 A 
ATOM     32  C   UNL     1       1.476  -9.793   5.763  0.00  0.00    +0.015 A 
ATOM     33  C   UNL     1       1.560  -8.551   5.178  0.00  0.00    +0.023 A 
BRANCH  31  34
ATOM     34  C   UNL     1       0.218 -11.502   7.064  0.00  0.00    +0.242 C 
ATOM     35  O   UNL     1      -0.795 -11.828   7.653  0.00  0.00    -0.270 OA
ATOM     36  N   UNL     1       1.255 -12.360   6.982  0.00  0.00    -0.325 N 
ATOM     37  H   UNL     1       2.063 -12.100   6.512  0.00  0.00    +0.145 HD
ATOM     38  H   UNL     1       1.193 -13.236   7.392  0.00  0.00    +0.145 HD
ENDBRANCH  31  34
ENDBRANCH  26  28
ENDBRANCH  25  26
ENDBRANCH   4  25
TORSDOF 6
