REMARK  Name = CHEMBL125738
REMARK  3 active torsions:
REMARK  status: ('A' for Active; 'I' for Inactive)
REMARK    1  A    between atoms: C_1  and  C_2
REMARK    2  A    between atoms: C_6  and  C_8
REMARK    3  A    between atoms: C_9  and  C_14
REMARK                            x       y       z     vdW  Elec       q    Type
REMARK                         _______ _______ _______ _____ _____    ______ ____
ROOT
ATOM      1  C   UNL     1       0.050  -2.682   2.494  0.00  0.00    +0.118 A 
ATOM      2  C   UNL     1       0.528  -2.148   3.717  0.00  0.00    +0.029 A 
ATOM      3  C   UNL     1       0.363  -3.105   4.673  0.00  0.00    +0.114 A 
ATOM      4  N   UNL     1      -0.190  -4.186   4.085  0.00  0.00    -0.284 N 
ATOM      5  N   UNL     1      -0.382  -3.902   2.728  0.00  0.00    -0.172 NA
ATOM      6  H   UNL     1      -0.418  -5.019   4.528  0.00  0.00    +0.188 HD
ENDROOT
BRANCH   1  12
ATOM      7  C   UNL     1      -0.018   1.503   0.010  0.00  0.00    +0.065 C 
ATOM      8  C   UNL     1       0.002  -0.004   0.002  0.00  0.00    +0.039 A 
ATOM      9  C   UNL     1       0.005  -0.679  -1.205  0.00  0.00    +0.023 A 
ATOM     10  C   UNL     1       0.024  -2.067  -1.208  0.00  0.00    +0.004 A 
ATOM     11  C   UNL     1       0.039  -2.731   0.007  0.00  0.00    +0.030 A 
ATOM     12  C   UNL     1       0.035  -1.986   1.185  0.00  0.00    +0.092 A 
ATOM     13  N   UNL     1       0.022  -0.660   1.144  0.00  0.00    -0.250 NA
ENDBRANCH   1  12
BRANCH   2  14
ATOM     14  C   UNL     1       1.102  -0.796   3.920  0.00  0.00    -0.014 A 
ATOM     15  C   UNL     1       2.108  -0.329   3.075  0.00  0.00    +0.010 A 
ATOM     16  C   UNL     1       2.639   0.930   3.268  0.00  0.00    +0.020 A 
ATOM     17  C   UNL     1       2.175   1.729   4.298  0.00  0.00    +0.041 A 
ATOM     18  C   UNL     1       1.176   1.270   5.140  0.00  0.00    +0.020 A 
ATOM     19  C   UNL     1       0.634   0.015   4.952  0.00  0.00    +0.010 A 
ATOM     20 CL   UNL     1       2.847   3.312   4.535  0.00  0.00    -0.084 Cl
ENDBRANCH   2  14
TORSDOF 2
