REMARK  Name = CHEMBL519939
REMARK  5 active torsions:
REMARK  status: ('A' for Active; 'I' for Inactive)
REMARK    1  A    between atoms: C_1  and  C_2
REMARK    2  A    between atoms: C_6  and  C_8
REMARK    3  A    between atoms: C_9  and  C_18
REMARK    4  A    between atoms: N_14  and  C_15
REMARK    5  A    between atoms: C_15  and  C_17
REMARK                            x       y       z     vdW  Elec       q    Type
REMARK                         _______ _______ _______ _____ _____    ______ ____
ROOT
ATOM      1  C   UNL     1       0.402  -2.704   2.578  0.00  0.00    +0.092 A 
ATOM      2  C   UNL     1       0.287  -2.103   3.794  0.00  0.00    +0.075 A 
ATOM      3  N   UNL     1       0.316  -3.098   4.758  0.00  0.00    -0.325 N 
ATOM      4  H   UNL     1       0.253  -2.963   5.717  0.00  0.00    +0.169 HD
ATOM      5  C   UNL     1       0.447  -4.294   4.128  0.00  0.00    +0.198 A 
ATOM      6  N   UNL     1       0.496  -4.071   2.790  0.00  0.00    -0.324 N 
ATOM      7  N   UNL     1       0.512  -5.485   4.723  0.00  0.00    -0.147 NA
ATOM      8  H   UNL     1       0.583  -4.749   2.102  0.00  0.00    +0.169 HD
ENDROOT
BRANCH   2   9
ATOM      9  C   UNL     1       0.156  -0.654   4.041  0.00  0.00    +0.003 A 
ATOM     10  C   UNL     1      -0.814   0.089   3.342  0.00  0.00    +0.012 A 
ATOM     11  C   UNL     1      -0.953   1.422   3.552  0.00  0.00    +0.030 A 
ATOM     12  C   UNL     1      -0.122   2.080   4.478  0.00  0.00    +0.089 A 
ATOM     13  C   UNL     1       0.860   1.343   5.189  0.00  0.00    +0.090 A 
ATOM     14  C   UNL     1       0.985  -0.036   4.963  0.00  0.00    +0.040 A 
ATOM     15  N   UNL     1       1.648   1.970   6.070  0.00  0.00    -0.252 NA
ATOM     16  C   UNL     1       1.506   3.261   6.268  0.00  0.00    +0.131 A 
ATOM     17  C   UNL     1       0.540   3.986   5.568  0.00  0.00    +0.131 A 
ATOM     18  N   UNL     1      -0.245   3.393   4.697  0.00  0.00    -0.252 NA
ENDBRANCH   2   9
BRANCH   1  24
ATOM     19  C   UNL     1       0.473   1.458   0.063  0.00  0.00    +0.068 C 
ATOM     20  C   UNL     1       0.450  -0.049   0.068  0.00  0.00    +0.074 A 
ATOM     21  C   UNL     1       0.444  -0.737  -1.134  0.00  0.00    +0.144 A 
ATOM     22  C   UNL     1       0.423  -2.127  -1.125  0.00  0.00    +0.042 A 
ATOM     23  C   UNL     1       0.409  -2.779   0.094  0.00  0.00    +0.033 A 
ATOM     24  C   UNL     1       0.417  -2.023   1.268  0.00  0.00    +0.090 A 
ATOM     25  N   UNL     1       0.442  -0.695   1.216  0.00  0.00    -0.247 NA
ATOM     26  F   UNL     1       0.457  -0.063  -2.305  0.00  0.00    -0.204 F 
ENDBRANCH   1  24
BRANCH   7  27
ATOM     27  C   UNL     1       0.528  -6.592   3.990  0.00  0.00    +0.236 C 
ATOM     28  O   UNL     1       0.572  -6.519   2.777  0.00  0.00    -0.274 OA
ATOM     29  C   UNL     1       0.491  -7.941   4.662  0.00  0.00    +0.111 C 
ENDBRANCH   7  27
TORSDOF 3
