REMARK  Name = CHEMBL268889
REMARK  2 active torsions:
REMARK  status: ('A' for Active; 'I' for Inactive)
REMARK    1  A    between atoms: C_5  and  C_7
REMARK    2  A    between atoms: C_8  and  C_15
REMARK                            x       y       z     vdW  Elec       q    Type
REMARK                         _______ _______ _______ _____ _____    ______ ____
ROOT
ATOM      1  C   UNL     1       1.269  -2.144  -0.022  0.00  0.00    +0.115 A 
ATOM      2  C   UNL     1       2.297  -2.933  -0.503  0.00  0.00    +0.078 A 
ATOM      3  N   UNL     1       1.905  -4.239  -0.308  0.00  0.00    -0.327 N 
ATOM      4  C   UNL     1       0.678  -4.212   0.268  0.00  0.00    +0.111 A 
ATOM      5  N   UNL     1       0.311  -2.968   0.442  0.00  0.00    -0.230 NA
ATOM      6  C   UNL     1       0.190  -5.628   0.502  0.00  0.00    +0.076 C 
ATOM      7  C   UNL     1       1.099  -6.498  -0.395  0.00  0.00    +0.029 C 
ATOM      8  C   UNL     1       2.364  -5.621  -0.511  0.00  0.00    +0.124 C 
ENDROOT
BRANCH   2   9
ATOM      9  C   UNL     1       3.563  -2.469  -1.104  0.00  0.00    +0.004 A 
ATOM     10  C   UNL     1       4.773  -3.058  -0.732  0.00  0.00    +0.014 A 
ATOM     11  C   UNL     1       5.954  -2.623  -1.296  0.00  0.00    +0.050 A 
ATOM     12  C   UNL     1       5.946  -1.601  -2.233  0.00  0.00    +0.166 A 
ATOM     13  C   UNL     1       4.741  -1.007  -2.609  0.00  0.00    +0.167 A 
ATOM     14  C   UNL     1       3.553  -1.443  -2.051  0.00  0.00    +0.059 A 
ATOM     15  O   UNL     1       5.003  -0.038  -3.534  0.00  0.00    -0.453 OA
ATOM     16  C   UNL     1       6.412   0.234  -3.417  0.00  0.00    +0.466 C 
ATOM     17  O   UNL     1       6.960  -1.002  -2.923  0.00  0.00    -0.453 OA
ENDBRANCH   2   9
BRANCH   1  22
ATOM     18  C   UNL     1      -0.017   1.379   0.010  0.00  0.00    +0.004 A 
ATOM     19  C   UNL     1       1.194   2.059   0.002  0.00  0.00    +0.020 A 
ATOM     20  C   UNL     1       2.375   1.341  -0.013  0.00  0.00    +0.111 A 
ATOM     21  N   UNL     1       2.367   0.023  -0.020  0.00  0.00    -0.253 NA
ATOM     22  C   UNL     1       1.231  -0.665  -0.013  0.00  0.00    +0.091 A 
ATOM     23  C   UNL     1       0.002  -0.004   0.002  0.00  0.00    +0.030 A 
ENDBRANCH   1  22
TORSDOF 2
