REMARK  Name = CHEMBL436944
REMARK  4 active torsions:
REMARK  status: ('A' for Active; 'I' for Inactive)
REMARK    1  A    between atoms: C_5  and  C_7
REMARK    2  A    between atoms: C_8  and  C_13
REMARK    3  A    between atoms: C_17  and  C_19
REMARK    4  A    between atoms: C_22  and  C_25
REMARK                            x       y       z     vdW  Elec       q    Type
REMARK                         _______ _______ _______ _____ _____    ______ ____
ROOT
ATOM      1  C   UNL     1       3.626  -2.279  -1.036  0.00  0.00    -0.011 A 
ATOM      2  C   UNL     1       3.595  -1.556  -2.233  0.00  0.00    +0.028 A 
ATOM      3  C   UNL     1       4.772  -1.345  -2.924  0.00  0.00    +0.112 A 
ATOM      4  N   UNL     1       5.917  -1.815  -2.472  0.00  0.00    -0.255 NA
ATOM      5  C   UNL     1       5.996  -2.507  -1.342  0.00  0.00    +0.072 A 
ATOM      6  C   UNL     1       4.857  -2.757  -0.583  0.00  0.00    +0.037 A 
ENDROOT
BRANCH   1   8
ATOM      7  C   UNL     1       1.420  -1.556   0.108  0.00  0.00    +0.118 A 
ATOM      8  C   UNL     1       2.384  -2.527  -0.265  0.00  0.00    +0.029 A 
ATOM      9  C   UNL     1       1.959  -3.730   0.215  0.00  0.00    +0.114 A 
ATOM     10  N   UNL     1       0.790  -3.529   0.857  0.00  0.00    -0.284 N 
ATOM     11  H   UNL     1       0.261  -4.212   1.298  0.00  0.00    +0.188 HD
ATOM     12  N   UNL     1       0.473  -2.168   0.785  0.00  0.00    -0.172 NA
BRANCH   7  17
ATOM     13  C   UNL     1       0.360   1.984  -0.547  0.00  0.00    +0.004 A 
ATOM     14  C   UNL     1       1.605   2.551  -0.780  0.00  0.00    +0.020 A 
ATOM     15  C   UNL     1       2.735   1.758  -0.713  0.00  0.00    +0.111 A 
ATOM     16  N   UNL     1       2.645   0.474  -0.433  0.00  0.00    -0.253 NA
ATOM     17  C   UNL     1       1.474  -0.107  -0.204  0.00  0.00    +0.091 A 
ATOM     18  C   UNL     1       0.294   0.633  -0.254  0.00  0.00    +0.030 A 
ENDBRANCH   7  17
ENDBRANCH   1   8
BRANCH   5  19
ATOM     19  C   UNL     1       7.311  -3.013  -0.880  0.00  0.00    +0.000 A 
ATOM     20  C   UNL     1       7.400  -3.745   0.304  0.00  0.00    +0.011 A 
ATOM     21  C   UNL     1       8.621  -4.215   0.733  0.00  0.00    +0.014 A 
ATOM     22  C   UNL     1       9.771  -3.959  -0.018  0.00  0.00    +0.037 A 
ATOM     23  C   UNL     1       9.681  -3.225  -1.203  0.00  0.00    +0.014 A 
ATOM     24  C   UNL     1       8.458  -2.760  -1.633  0.00  0.00    +0.011 A 
BRANCH  22  25
ATOM     25  C   UNL     1      11.082  -4.463   0.442  0.00  0.00    +0.247 C 
ATOM     26  O   UNL     1      11.164  -5.560   0.959  0.00  0.00    -0.270 OA
ATOM     27  N   UNL     1      12.186  -3.706   0.289  0.00  0.00    -0.293 N 
ATOM     28  C   UNL     1      12.094  -2.324  -0.209  0.00  0.00    +0.136 C 
ATOM     29  C   UNL     1      12.872  -1.413   0.746  0.00  0.00    +0.179 C 
ATOM     30  O   UNL     1      14.190  -1.936   0.928  0.00  0.00    -0.377 OA
ATOM     31  C   UNL     1      14.228  -3.231   1.532  0.00  0.00    +0.179 C 
ATOM     32  C   UNL     1      13.519  -4.234   0.622  0.00  0.00    +0.136 C 
ENDBRANCH  22  25
ENDBRANCH   5  19
TORSDOF 4
