REMARK  Name = CHEMBL6252
REMARK  4 active torsions:
REMARK  status: ('A' for Active; 'I' for Inactive)
REMARK    1  A    between atoms: C_3  and  C_26
REMARK    2  A    between atoms: C_6  and  C_7
REMARK    3  A    between atoms: C_10  and  C_20
REMARK    4  A    between atoms: C_11  and  C_13
REMARK                            x       y       z     vdW  Elec       q    Type
REMARK                         _______ _______ _______ _____ _____    ______ ____
ROOT
ATOM      1  C   UNL     1      -1.272  -0.763  -0.100  0.00  0.00    +0.139 A 
ATOM      2  N   UNL     1      -1.390  -2.123  -0.108  0.00  0.00    -0.337 N 
ATOM      3  H   UNL     1      -0.669  -2.763  -0.214  0.00  0.00    +0.167 HD
ATOM      4  C   UNL     1      -2.722  -2.416   0.062  0.00  0.00    +0.074 A 
ATOM      5  C   UNL     1      -3.380  -1.199   0.170  0.00  0.00    +0.097 A 
ATOM      6  N   UNL     1      -2.460  -0.228   0.072  0.00  0.00    -0.227 NA
ENDROOT
BRANCH   5   7
ATOM      7  C   UNL     1      -4.836  -1.007   0.365  0.00  0.00    +0.003 A 
ATOM      8  C   UNL     1      -5.532  -1.806   1.271  0.00  0.00    +0.013 A 
ATOM      9  C   UNL     1      -6.887  -1.623   1.449  0.00  0.00    +0.039 A 
ATOM     10  C   UNL     1      -7.558  -0.648   0.728  0.00  0.00    +0.123 A 
ATOM     11  C   UNL     1      -6.871   0.148  -0.174  0.00  0.00    +0.039 A 
ATOM     12  C   UNL     1      -5.514  -0.023  -0.354  0.00  0.00    +0.013 A 
ATOM     13  F   UNL     1      -8.886  -0.474   0.905  0.00  0.00    -0.205 F 
ENDBRANCH   5   7
BRANCH   1  19
ATOM     14  C   UNL     1      -0.019   1.385  -0.221  0.00  0.00    +0.012 A 
ATOM     15  C   UNL     1       1.153   2.082  -0.362  0.00  0.00    +0.016 A 
ATOM     16  C   UNL     1       2.358   1.395  -0.538  0.00  0.00    +0.063 A 
ATOM     17  C   UNL     1       2.368  -0.003  -0.570  0.00  0.00    +0.016 A 
ATOM     18  C   UNL     1       1.195  -0.700  -0.428  0.00  0.00    +0.012 A 
ATOM     19  C   UNL     1      -0.009  -0.012  -0.253  0.00  0.00    +0.017 A 
BRANCH  16  20
ATOM     20  C   UNL     1       3.618   2.144  -0.691  0.00  0.00    +0.387 C 
ATOM     21  O   UNL     1       3.610   3.367  -0.663  0.00  0.00    -0.241 OA
ATOM     22  O   UNL     1       4.673   1.543  -0.845  0.00  0.00    -0.241 OA
ENDBRANCH  16  20
ENDBRANCH   1  19
BRANCH   4  23
ATOM     23  C   UNL     1      -3.332  -3.758   0.118  0.00  0.00    +0.003 A 
ATOM     24  C   UNL     1      -4.475  -4.062  -0.633  0.00  0.00    +0.030 A 
ATOM     25  C   UNL     1      -5.011  -5.329  -0.549  0.00  0.00    +0.111 A 
ATOM     26  N   UNL     1      -4.463  -6.248   0.224  0.00  0.00    -0.263 NA
ATOM     27  C   UNL     1      -3.387  -6.004   0.948  0.00  0.00    +0.111 A 
ATOM     28  C   UNL     1      -2.781  -4.766   0.921  0.00  0.00    +0.030 A 
ENDBRANCH   4  23
TORSDOF 4
