REMARK  Name = CHEMBL575311
REMARK  8 active torsions:
REMARK  status: ('A' for Active; 'I' for Inactive)
REMARK    1  A    between atoms: C_1  and  C_2
REMARK    2  A    between atoms: C_4  and  O_15
REMARK    3  A    between atoms: C_5  and  C_9
REMARK    4  A    between atoms: C_7  and  C_8
REMARK    5  A    between atoms: O_15  and  C_16
REMARK    6  A    between atoms: C_20  and  N_22
REMARK    7  A    between atoms: N_22  and  C_23
REMARK    8  A    between atoms: C_26  and  N_29
REMARK                            x       y       z     vdW  Elec       q    Type
REMARK                         _______ _______ _______ _____ _____    ______ ____
ROOT
ATOM      1  C   UNL     1      -0.747  -2.146  -3.591  0.00  0.00    +0.133 A 
ATOM      2  C   UNL     1      -0.798  -0.761  -3.751  0.00  0.00    +0.064 A 
ATOM      3  C   UNL     1      -0.649  -0.223  -5.011  0.00  0.00    +0.088 A 
ATOM      4  N   UNL     1      -0.459  -0.999  -6.062  0.00  0.00    -0.349 N 
ATOM      5  C   UNL     1      -0.404  -2.318  -5.954  0.00  0.00    +0.104 A 
ATOM      6  C   UNL     1      -0.540  -2.934  -4.716  0.00  0.00    +0.088 A 
ATOM      7  H   UNL     1      -0.357  -0.592  -6.937  0.00  0.00    +0.167 HD
ENDROOT
BRANCH   5   8
ATOM      8  N   UNL     1      -0.202  -3.095  -7.090  0.00  0.00    -0.301 N 
ATOM      9  H   UNL     1       0.026  -2.671  -7.933  0.00  0.00    +0.154 HD
BRANCH   8  10
ATOM     10  C   UNL     1      -0.328  -4.488  -7.018  0.00  0.00    +0.032 A 
ATOM     11  C   UNL     1      -1.363  -5.054  -6.286  0.00  0.00    +0.025 A 
ATOM     12  C   UNL     1      -1.487  -6.428  -6.214  0.00  0.00    +0.025 A 
ATOM     13  C   UNL     1      -0.577  -7.242  -6.876  0.00  0.00    +0.030 A 
ATOM     14  C   UNL     1       0.458  -6.676  -7.609  0.00  0.00    +0.025 A 
ATOM     15  C   UNL     1       0.578  -5.302  -7.684  0.00  0.00    +0.025 A 
BRANCH  13  16
ATOM     16  N   UNL     1      -0.702  -8.634  -6.803  0.00  0.00    -0.326 N 
ATOM     17  C   UNL     1       0.321  -9.518  -7.383  0.00  0.00    +0.133 C 
ATOM     18  C   UNL     1       0.730 -10.547  -6.322  0.00  0.00    +0.178 C 
ATOM     19  O   UNL     1      -0.443 -11.184  -5.808  0.00  0.00    -0.377 OA
ATOM     20  C   UNL     1      -1.346 -10.298  -5.143  0.00  0.00    +0.178 C 
ATOM     21  C   UNL     1      -1.858  -9.257  -6.138  0.00  0.00    +0.133 C 
ENDBRANCH  13  16
ENDBRANCH   8  10
ENDBRANCH   5   8
BRANCH   1  22
ATOM     22  O   UNL     1      -0.890  -2.709  -2.364  0.00  0.00    -0.454 OA
BRANCH  22  26
ATOM     23  C   UNL     1      -5.691  -1.794  -2.653  0.00  0.00    +0.046 C 
ATOM     24  C   UNL     1      -4.487  -2.372  -1.956  0.00  0.00    -0.026 A 
ATOM     25  C   UNL     1      -3.228  -2.253  -2.523  0.00  0.00    +0.053 A 
ATOM     26  C   UNL     1      -2.143  -2.801  -1.847  0.00  0.00    +0.156 A 
ATOM     27  C   UNL     1      -2.362  -3.448  -0.627  0.00  0.00    +0.131 A 
ATOM     28  N   UNL     1      -3.586  -3.538  -0.124  0.00  0.00    -0.246 NA
ATOM     29  C   UNL     1      -4.628  -3.022  -0.742  0.00  0.00    +0.042 A 
ATOM     30  C   UNL     1      -5.995  -3.146  -0.122  0.00  0.00    +0.066 C 
BRANCH  27  31
ATOM     31  C   UNL     1      -1.219  -4.039   0.109  0.00  0.00    +0.093 A 
ATOM     32  C   UNL     1      -1.300  -4.212   1.489  0.00  0.00    +0.030 A 
ATOM     33  C   UNL     1      -0.225  -4.766   2.162  0.00  0.00    +0.004 A 
ATOM     34  C   UNL     1       0.898  -5.128   1.432  0.00  0.00    +0.020 A 
ATOM     35  C   UNL     1       0.911  -4.928   0.064  0.00  0.00    +0.111 A 
ATOM     36  N   UNL     1      -0.128  -4.404  -0.553  0.00  0.00    -0.253 NA
ENDBRANCH  27  31
ENDBRANCH  22  26
ENDBRANCH   1  22
TORSDOF 6
