REMARK  Name = CHEMBL380916
REMARK  4 active torsions:
REMARK  status: ('A' for Active; 'I' for Inactive)
REMARK    1  A    between atoms: C_5  and  C_7
REMARK    2  A    between atoms: C_8  and  C_13
REMARK    3  A    between atoms: C_17  and  C_19
REMARK    4  A    between atoms: C_22  and  C_25
REMARK                            x       y       z     vdW  Elec       q    Type
REMARK                         _______ _______ _______ _____ _____    ______ ____
ROOT
ATOM      1  C   UNL     1       3.585  -2.534  -1.180  0.00  0.00    -0.011 A 
ATOM      2  C   UNL     1       3.577  -1.528  -2.151  0.00  0.00    +0.028 A 
ATOM      3  C   UNL     1       4.778  -1.056  -2.643  0.00  0.00    +0.112 A 
ATOM      4  N   UNL     1       5.926  -1.540  -2.212  0.00  0.00    -0.255 NA
ATOM      5  C   UNL     1       5.983  -2.495  -1.292  0.00  0.00    +0.072 A 
ATOM      6  C   UNL     1       4.819  -3.020  -0.741  0.00  0.00    +0.037 A 
ENDROOT
BRANCH   1   8
ATOM      7  C   UNL     1       1.236  -2.303  -0.119  0.00  0.00    +0.118 A 
ATOM      8  C   UNL     1       2.317  -3.068  -0.626  0.00  0.00    +0.029 A 
ATOM      9  C   UNL     1       1.977  -4.383  -0.513  0.00  0.00    +0.114 A 
ATOM     10  N   UNL     1       0.748  -4.445   0.037  0.00  0.00    -0.284 N 
ATOM     11  H   UNL     1       0.256  -5.257   0.235  0.00  0.00    +0.188 HD
ATOM     12  N   UNL     1       0.304  -3.140   0.281  0.00  0.00    -0.172 NA
BRANCH   7  17
ATOM     13  C   UNL     1      -0.113   1.195   0.042  0.00  0.00    +0.004 A 
ATOM     14  C   UNL     1       1.085   1.895   0.087  0.00  0.00    +0.020 A 
ATOM     15  C   UNL     1       2.279   1.199   0.065  0.00  0.00    +0.111 A 
ATOM     16  N   UNL     1       2.293  -0.117  -0.000  0.00  0.00    -0.253 NA
ATOM     17  C   UNL     1       1.171  -0.824  -0.046  0.00  0.00    +0.091 A 
ATOM     18  C   UNL     1      -0.068  -0.186  -0.026  0.00  0.00    +0.030 A 
ENDBRANCH   7  17
ENDBRANCH   1   8
BRANCH   5  19
ATOM     19  C   UNL     1       7.302  -3.004  -0.843  0.00  0.00    +0.000 A 
ATOM     20  C   UNL     1       7.369  -4.012   0.119  0.00  0.00    +0.011 A 
ATOM     21  C   UNL     1       8.593  -4.485   0.536  0.00  0.00    +0.014 A 
ATOM     22  C   UNL     1       9.768  -3.956  -0.005  0.00  0.00    +0.037 A 
ATOM     23  C   UNL     1       9.699  -2.947  -0.968  0.00  0.00    +0.014 A 
ATOM     24  C   UNL     1       8.473  -2.479  -1.388  0.00  0.00    +0.011 A 
BRANCH  22  25
ATOM     25  C   UNL     1      11.082  -4.463   0.442  0.00  0.00    +0.247 C 
ATOM     26  O   UNL     1      11.149  -5.232   1.381  0.00  0.00    -0.270 OA
ATOM     27  N   UNL     1      12.206  -4.072  -0.191  0.00  0.00    -0.298 N 
ATOM     28  C   UNL     1      12.281  -3.064  -1.258  0.00  0.00    +0.108 C 
ATOM     29  C   UNL     1      13.759  -2.968  -1.693  0.00  0.00    +0.020 C 
ATOM     30  C   UNL     1      14.344  -4.331  -1.240  0.00  0.00    +0.020 C 
ATOM     31  C   UNL     1      13.563  -4.580   0.077  0.00  0.00    +0.108 C 
ENDBRANCH  22  25
ENDBRANCH   5  19
TORSDOF 4
