REMARK  Name = CHEMBL226734
REMARK  6 active torsions:
REMARK  status: ('A' for Active; 'I' for Inactive)
REMARK    1  A    between atoms: C_1  and  C_2
REMARK    2  A    between atoms: C_6  and  C_8
REMARK    3  A    between atoms: C_9  and  C_24
REMARK    4  A    between atoms: N_14  and  C_15
REMARK    5  A    between atoms: C_15  and  C_16
REMARK    6  A    between atoms: C_20  and  C_22
REMARK                            x       y       z     vdW  Elec       q    Type
REMARK                         _______ _______ _______ _____ _____    ______ ____
ROOT
ATOM      1  C   UNL     1       0.050  -2.682   2.485  0.00  0.00    +0.094 A 
ATOM      2  C   UNL     1       0.511  -2.180   3.687  0.00  0.00    +0.100 A 
ATOM      3  N   UNL     1       0.342  -3.135   4.620  0.00  0.00    -0.214 NA
ATOM      4  C   UNL     1      -0.195  -4.199   4.071  0.00  0.00    +0.194 A 
ATOM      5  N   UNL     1      -0.401  -3.965   2.747  0.00  0.00    -0.324 N 
ATOM      6  H   UNL     1      -0.788  -4.582   2.107  0.00  0.00    +0.169 HD
ATOM      7  N   UNL     1      -0.507  -5.369   4.734  0.00  0.00    -0.311 N 
ATOM      8  H   UNL     1      -0.331  -5.451   5.685  0.00  0.00    +0.149 HD
ENDROOT
BRANCH   2   9
ATOM      9  C   UNL     1       1.087  -0.833   3.908  0.00  0.00    +0.006 A 
ATOM     10  C   UNL     1       1.858  -0.231   2.914  0.00  0.00    +0.014 A 
ATOM     11  C   UNL     1       2.394   1.023   3.121  0.00  0.00    +0.050 A 
ATOM     12  C   UNL     1       2.169   1.689   4.316  0.00  0.00    +0.166 A 
ATOM     13  C   UNL     1       1.398   1.093   5.313  0.00  0.00    +0.167 A 
ATOM     14  C   UNL     1       0.855  -0.162   5.108  0.00  0.00    +0.059 A 
ATOM     15  O   UNL     1       1.328   1.945   6.378  0.00  0.00    -0.453 OA
ATOM     16  C   UNL     1       2.397   2.889   6.186  0.00  0.00    +0.466 C 
ATOM     17  O   UNL     1       2.579   2.914   4.758  0.00  0.00    -0.453 OA
ENDBRANCH   2   9
BRANCH   1  23
ATOM     18  C   UNL     1      -0.018   1.503   0.010  0.00  0.00    +0.065 C 
ATOM     19  C   UNL     1       0.002  -0.004   0.002  0.00  0.00    +0.039 A 
ATOM     20  C   UNL     1       0.005  -0.679  -1.204  0.00  0.00    +0.023 A 
ATOM     21  C   UNL     1       0.024  -2.068  -1.210  0.00  0.00    +0.004 A 
ATOM     22  C   UNL     1       0.039  -2.733   0.001  0.00  0.00    +0.030 A 
ATOM     23  C   UNL     1       0.035  -1.989   1.184  0.00  0.00    +0.090 A 
ATOM     24  N   UNL     1       0.022  -0.660   1.145  0.00  0.00    -0.250 NA
ENDBRANCH   1  23
BRANCH   7  25
ATOM     25  C   UNL     1      -1.106  -6.489   4.003  0.00  0.00    +0.139 C 
BRANCH  25  26
ATOM     26  C   UNL     1      -1.347  -7.636   4.949  0.00  0.00    -0.029 A 
ATOM     27  C   UNL     1      -0.361  -8.587   5.147  0.00  0.00    +0.005 A 
ATOM     28  C   UNL     1      -0.574  -9.644   6.014  0.00  0.00    +0.002 A 
ATOM     29  C   UNL     1      -1.772  -9.756   6.688  0.00  0.00    +0.019 A 
ATOM     30  C   UNL     1      -2.771  -8.800   6.494  0.00  0.00    +0.052 A 
ATOM     31  C   UNL     1      -2.548  -7.733   5.621  0.00  0.00    +0.024 A 
BRANCH  30  32
ATOM     32  C   UNL     1      -4.018  -8.911   7.190  0.00  0.00    +0.099 C 
ATOM     33  N   UNL     1      -5.006  -8.998   7.743  0.00  0.00    -0.191 NA
ENDBRANCH  30  32
ENDBRANCH  25  26
ENDBRANCH   7  25
TORSDOF 5
