REMARK  Name = CHEMBL338196
REMARK  3 active torsions:
REMARK  status: ('A' for Active; 'I' for Inactive)
REMARK    1  A    between atoms: C_7  and  C_11
REMARK    2  A    between atoms: C_12  and  C_20
REMARK    3  A    between atoms: C_16  and  C_17
REMARK                            x       y       z     vdW  Elec       q    Type
REMARK                         _______ _______ _______ _____ _____    ______ ____
ROOT
ATOM      1  C   UNL     1       0.060  -2.916  -0.014  0.00  0.00    +0.033 A 
ATOM      2  C   UNL     1      -0.635  -3.372  -1.129  0.00  0.00    +0.092 A 
ATOM      3  N   UNL     1      -1.702  -4.083  -0.669  0.00  0.00    -0.275 N 
ATOM      4  N   UNL     1      -1.666  -4.067   0.730  0.00  0.00    -0.177 NA
ATOM      5  H   UNL     1      -2.370  -4.525  -1.216  0.00  0.00    +0.189 HD
ATOM      6  C   UNL     1      -0.625  -3.384   1.124  0.00  0.00    +0.074 A 
ENDROOT
BRANCH   1  13
ATOM      7  C   UNL     1      -0.016   1.359   0.009  0.00  0.00    +0.001 A 
ATOM      8  C   UNL     1       1.170   2.088   0.002  0.00  0.00    +0.002 A 
ATOM      9  C   UNL     1       2.379   1.462  -0.013  0.00  0.00    +0.028 A 
ATOM     10  C   UNL     1       2.437   0.058  -0.021  0.00  0.00    +0.072 A 
ATOM     11  C   UNL     1       1.229  -0.680  -0.013  0.00  0.00    +0.008 A 
ATOM     12  C   UNL     1       0.002  -0.004   0.002  0.00  0.00    +0.010 A 
ATOM     13  C   UNL     1       1.291  -2.097  -0.021  0.00  0.00    -0.003 A 
ATOM     14  C   UNL     1       2.548  -2.691  -0.037  0.00  0.00    +0.029 A 
ATOM     15  C   UNL     1       3.684  -1.893  -0.043  0.00  0.00    +0.112 A 
ATOM     16  N   UNL     1       3.611  -0.582  -0.035  0.00  0.00    -0.255 NA
ENDBRANCH   1  13
BRANCH   2  17
ATOM     17  C   UNL     1      -0.284  -3.131  -2.543  0.00  0.00    +0.089 A 
ATOM     18  C   UNL     1      -0.717  -4.022  -3.526  0.00  0.00    +0.030 A 
ATOM     19  C   UNL     1      -0.379  -3.781  -4.846  0.00  0.00    +0.004 A 
ATOM     20  C   UNL     1       0.380  -2.658  -5.142  0.00  0.00    +0.020 A 
ATOM     21  C   UNL     1       0.776  -1.816  -4.119  0.00  0.00    +0.111 A 
ATOM     22  N   UNL     1       0.438  -2.064  -2.870  0.00  0.00    -0.253 NA
ENDBRANCH   2  17
BRANCH   6  23
ATOM     23  C   UNL     1      -0.225  -3.136   2.555  0.00  0.00    +0.040 C 
ATOM     24  C   UNL     1      -0.985  -3.898   3.643  0.00  0.00    +0.010 C 
ATOM     25  C   UNL     1      -1.224  -2.399   3.450  0.00  0.00    +0.010 C 
ENDBRANCH   6  23
TORSDOF 3
