REMARK  Name = CHEMBL267228
REMARK  5 active torsions:
REMARK  status: ('A' for Active; 'I' for Inactive)
REMARK    1  A    between atoms: C_5  and  C_7
REMARK    2  A    between atoms: C_8  and  C_21
REMARK    3  A    between atoms: C_10  and  C_13
REMARK    4  A    between atoms: C_16  and  C_19
REMARK    5  A    between atoms: C_19  and  O_20
REMARK                            x       y       z     vdW  Elec       q    Type
REMARK                         _______ _______ _______ _____ _____    ______ ____
ROOT
ATOM      1  C   UNL     1       1.272  -2.140  -0.022  0.00  0.00    +0.093 A 
ATOM      2  C   UNL     1       2.296  -2.941  -0.501  0.00  0.00    +0.099 A 
ATOM      3  N   UNL     1       1.933  -4.220  -0.321  0.00  0.00    -0.227 NA
ATOM      4  C   UNL     1       0.745  -4.266   0.239  0.00  0.00    +0.139 A 
ATOM      5  N   UNL     1       0.299  -2.994   0.449  0.00  0.00    -0.336 N 
ATOM      6  H   UNL     1      -0.545  -2.739   0.852  0.00  0.00    +0.167 HD
ENDROOT
BRANCH   2   7
ATOM      7  C   UNL     1       3.565  -2.469  -1.103  0.00  0.00    +0.006 A 
ATOM      8  C   UNL     1       3.582  -1.311  -1.879  0.00  0.00    +0.014 A 
ATOM      9  C   UNL     1       4.764  -0.873  -2.440  0.00  0.00    +0.050 A 
ATOM     10  C   UNL     1       5.939  -1.582  -2.234  0.00  0.00    +0.166 A 
ATOM     11  C   UNL     1       5.928  -2.740  -1.459  0.00  0.00    +0.167 A 
ATOM     12  C   UNL     1       4.746  -3.180  -0.890  0.00  0.00    +0.059 A 
ATOM     13  O   UNL     1       7.195  -3.245  -1.411  0.00  0.00    -0.453 OA
ATOM     14  C   UNL     1       7.901  -2.615  -2.496  0.00  0.00    +0.466 C 
ATOM     15  O   UNL     1       7.213  -1.362  -2.670  0.00  0.00    -0.453 OA
ENDBRANCH   2   7
BRANCH   1  20
ATOM     16  C   UNL     1      -0.017   1.378   0.010  0.00  0.00    +0.004 A 
ATOM     17  C   UNL     1       1.194   2.059   0.002  0.00  0.00    +0.020 A 
ATOM     18  C   UNL     1       2.376   1.342  -0.013  0.00  0.00    +0.111 A 
ATOM     19  N   UNL     1       2.369   0.025  -0.021  0.00  0.00    -0.253 NA
ATOM     20  C   UNL     1       1.233  -0.666  -0.014  0.00  0.00    +0.089 A 
ATOM     21  C   UNL     1       0.002  -0.004   0.002  0.00  0.00    +0.030 A 
ENDBRANCH   1  20
BRANCH   4  22
ATOM     22  C   UNL     1       0.012  -5.500   0.593  0.00  0.00    +0.017 A 
ATOM     23  C   UNL     1      -1.251  -5.420   1.182  0.00  0.00    +0.012 A 
ATOM     24  C   UNL     1      -1.930  -6.575   1.509  0.00  0.00    +0.006 A 
ATOM     25  C   UNL     1      -1.362  -7.811   1.255  0.00  0.00    -0.022 A 
ATOM     26  C   UNL     1      -0.110  -7.897   0.672  0.00  0.00    +0.006 A 
ATOM     27  C   UNL     1       0.577  -6.749   0.335  0.00  0.00    +0.012 A 
BRANCH  25  28
ATOM     28  C   UNL     1      -2.109  -9.069   1.616  0.00  0.00    +0.191 C 
BRANCH  28  29
ATOM     29  O   UNL     1      -2.915  -9.478   0.509  0.00  0.00    -0.390 OA
ATOM     30  H   UNL     1      -3.426 -10.283   0.671  0.00  0.00    +0.210 HD
ENDBRANCH  28  29
ENDBRANCH  25  28
ENDBRANCH   4  22
TORSDOF 5
