REMARK  Name = CHEMBL574415
REMARK  12 active torsions:
REMARK  status: ('A' for Active; 'I' for Inactive)
REMARK    1  A    between atoms: C_1  and  C_2
REMARK    2  A    between atoms: C_5  and  O_9
REMARK    3  A    between atoms: C_6  and  C_8
REMARK    4  A    between atoms: O_9  and  C_10
REMARK    5  A    between atoms: C_14  and  N_16
REMARK    6  A    between atoms: N_16  and  C_17
REMARK    7  A    between atoms: C_19  and  O_27
REMARK    8  A    between atoms: C_20  and  O_25
REMARK    9  A    between atoms: C_21  and  O_23
REMARK   10  A    between atoms: O_23  and  C_24
REMARK   11  A    between atoms: O_25  and  C_26
REMARK   12  A    between atoms: O_27  and  C_28
REMARK                            x       y       z     vdW  Elec       q    Type
REMARK                         _______ _______ _______ _____ _____    ______ ____
ROOT
ATOM      1  C   UNL     1      -0.279  -4.844  -1.073  0.00  0.00    +0.133 A 
ATOM      2  C   UNL     1      -0.423  -4.274  -2.337  0.00  0.00    +0.066 A 
ATOM      3  C   UNL     1      -0.454  -5.092  -3.446  0.00  0.00    +0.116 A 
ATOM      4  N   UNL     1      -0.349  -6.403  -3.325  0.00  0.00    -0.240 NA
ATOM      5  C   UNL     1      -0.210  -6.985  -2.142  0.00  0.00    +0.126 A 
ATOM      6  C   UNL     1      -0.165  -6.226  -0.980  0.00  0.00    +0.090 A 
ENDROOT
BRANCH   5   7
ATOM      7  N   UNL     1      -0.104  -8.370  -2.065  0.00  0.00    -0.299 N 
ATOM      8  H   UNL     1      -0.079  -8.806  -1.199  0.00  0.00    +0.154 HD
BRANCH   7   9
ATOM      9  C   UNL     1      -0.032  -9.133  -3.236  0.00  0.00    +0.040 A 
ATOM     10  C   UNL     1       0.595  -8.617  -4.363  0.00  0.00    +0.073 A 
ATOM     11  C   UNL     1       0.665  -9.372  -5.523  0.00  0.00    +0.167 A 
ATOM     12  C   UNL     1       0.109 -10.645  -5.559  0.00  0.00    +0.204 A 
ATOM     13  C   UNL     1      -0.518 -11.161  -4.430  0.00  0.00    +0.167 A 
ATOM     14  C   UNL     1      -0.583 -10.407  -3.269  0.00  0.00    +0.073 A 
BRANCH  13  15
ATOM     15  O   UNL     1      -1.063 -12.406  -4.464  0.00  0.00    -0.491 OA
ATOM     16  C   UNL     1      -1.691 -12.872  -3.268  0.00  0.00    +0.277 C 
ENDBRANCH  13  15
BRANCH  12  17
ATOM     17  O   UNL     1       0.178 -11.387  -6.698  0.00  0.00    -0.488 OA
ATOM     18  C   UNL     1       1.318 -12.235  -6.853  0.00  0.00    +0.277 C 
ENDBRANCH  12  17
BRANCH  11  19
ATOM     19  O   UNL     1       1.278  -8.867  -6.627  0.00  0.00    -0.491 OA
ATOM     20  C   UNL     1       1.827  -7.552  -6.519  0.00  0.00    +0.277 C 
ENDBRANCH  11  19
ENDBRANCH   7   9
ENDBRANCH   5   7
BRANCH   1  21
ATOM     21  O   UNL     1      -0.244  -4.067   0.040  0.00  0.00    -0.454 OA
BRANCH  21  26
ATOM     22  C   UNL     1      -5.016  -2.061   2.143  0.00  0.00    +0.065 C 
ATOM     23  C   UNL     1      -3.741  -2.612   1.557  0.00  0.00    +0.039 A 
ATOM     24  C   UNL     1      -3.790  -3.343   0.385  0.00  0.00    +0.026 A 
ATOM     25  C   UNL     1      -2.614  -3.846  -0.148  0.00  0.00    +0.050 A 
ATOM     26  C   UNL     1      -1.423  -3.594   0.524  0.00  0.00    +0.149 A 
ATOM     27  C   UNL     1      -1.454  -2.852   1.696  0.00  0.00    +0.081 A 
ATOM     28  N   UNL     1      -2.594  -2.386   2.167  0.00  0.00    -0.253 NA
ATOM     29  C   UNL     1      -0.172  -2.570   2.435  0.00  0.00    +0.069 C 
ENDBRANCH  21  26
ENDBRANCH   1  21
TORSDOF 7
