REMARK  Name = CHEMBL410456
REMARK  4 active torsions:
REMARK  status: ('A' for Active; 'I' for Inactive)
REMARK    1  A    between atoms: C_5  and  C_7
REMARK    2  A    between atoms: C_8  and  C_22
REMARK    3  A    between atoms: C_10  and  C_13
REMARK    4  A    between atoms: C_16  and  C_19
REMARK                            x       y       z     vdW  Elec       q    Type
REMARK                         _______ _______ _______ _____ _____    ______ ____
ROOT
ATOM      1  C   UNL     1       1.271  -2.140  -0.022  0.00  0.00    +0.093 A 
ATOM      2  C   UNL     1       2.297  -2.942  -0.500  0.00  0.00    +0.099 A 
ATOM      3  N   UNL     1       1.934  -4.219  -0.320  0.00  0.00    -0.227 NA
ATOM      4  C   UNL     1       0.746  -4.265   0.241  0.00  0.00    +0.139 A 
ATOM      5  N   UNL     1       0.300  -2.993   0.449  0.00  0.00    -0.336 N 
ATOM      6  H   UNL     1      -0.545  -2.737   0.852  0.00  0.00    +0.167 HD
ENDROOT
BRANCH   2   7
ATOM      7  C   UNL     1       3.566  -2.470  -1.102  0.00  0.00    +0.006 A 
ATOM      8  C   UNL     1       3.584  -1.312  -1.878  0.00  0.00    +0.014 A 
ATOM      9  C   UNL     1       4.767  -0.876  -2.438  0.00  0.00    +0.050 A 
ATOM     10  C   UNL     1       5.942  -1.586  -2.232  0.00  0.00    +0.162 A 
ATOM     11  C   UNL     1       5.931  -2.741  -1.456  0.00  0.00    +0.163 A 
ATOM     12  C   UNL     1       4.747  -3.181  -0.889  0.00  0.00    +0.059 A 
ATOM     13  O   UNL     1       7.075  -3.444  -1.238  0.00  0.00    -0.485 OA
ATOM     14  C   UNL     1       8.171  -3.181  -2.121  0.00  0.00    +0.270 C 
ATOM     15  C   UNL     1       8.319  -1.660  -2.263  0.00  0.00    +0.270 C 
ATOM     16  O   UNL     1       7.097  -1.139  -2.797  0.00  0.00    -0.485 OA
ENDBRANCH   2   7
BRANCH   1  21
ATOM     17  C   UNL     1      -0.017   1.378   0.010  0.00  0.00    +0.004 A 
ATOM     18  C   UNL     1       1.194   2.059   0.002  0.00  0.00    +0.020 A 
ATOM     19  C   UNL     1       2.376   1.342  -0.013  0.00  0.00    +0.111 A 
ATOM     20  N   UNL     1       2.369   0.024  -0.020  0.00  0.00    -0.253 NA
ATOM     21  C   UNL     1       1.233  -0.666  -0.013  0.00  0.00    +0.089 A 
ATOM     22  C   UNL     1       0.002  -0.004   0.002  0.00  0.00    +0.030 A 
ENDBRANCH   1  21
BRANCH   4  23
ATOM     23  C   UNL     1       0.013  -5.498   0.595  0.00  0.00    +0.017 A 
ATOM     24  C   UNL     1      -1.252  -5.414   1.183  0.00  0.00    +0.012 A 
ATOM     25  C   UNL     1      -1.935  -6.563   1.513  0.00  0.00    +0.014 A 
ATOM     26  C   UNL     1      -1.363  -7.812   1.258  0.00  0.00    +0.037 A 
ATOM     27  C   UNL     1      -0.099  -7.896   0.669  0.00  0.00    +0.014 A 
ATOM     28  C   UNL     1       0.582  -6.748   0.335  0.00  0.00    +0.012 A 
BRANCH  26  29
ATOM     29  C   UNL     1      -2.096  -9.045   1.612  0.00  0.00    +0.242 C 
ATOM     30  O   UNL     1      -3.196  -8.973   2.125  0.00  0.00    -0.270 OA
ATOM     31  N   UNL     1      -1.546 -10.251   1.367  0.00  0.00    -0.325 N 
ATOM     32  H   UNL     1      -0.668 -10.309   0.958  0.00  0.00    +0.145 HD
ATOM     33  H   UNL     1      -2.027 -11.060   1.599  0.00  0.00    +0.145 HD
ENDBRANCH  26  29
ENDBRANCH   4  23
TORSDOF 4
