REMARK  Name = CHEMBL480582
REMARK  4 active torsions:
REMARK  status: ('A' for Active; 'I' for Inactive)
REMARK    1  A    between atoms: C_1  and  C_2
REMARK    2  A    between atoms: C_6  and  C_8
REMARK    3  A    between atoms: C_9  and  C_23
REMARK    4  A    between atoms: C_20  and  C_22
REMARK                            x       y       z     vdW  Elec       q    Type
REMARK                         _______ _______ _______ _____ _____    ______ ____
ROOT
ATOM      1  C   UNL     1      -1.003  -2.603   2.671  0.00  0.00    +0.092 A 
ATOM      2  C   UNL     1      -0.665  -2.048   3.889  0.00  0.00    +0.076 A 
ATOM      3  N   UNL     1      -0.689  -3.080   4.806  0.00  0.00    -0.327 N 
ATOM      4  H   UNL     1      -0.496  -3.011   5.754  0.00  0.00    +0.169 HD
ATOM      5  C   UNL     1      -1.033  -4.211   4.131  0.00  0.00    +0.174 A 
ATOM      6  N   UNL     1      -1.223  -3.920   2.868  0.00  0.00    -0.326 N 
ATOM      7  N   UNL     1      -1.167  -5.468   4.692  0.00  0.00    -0.300 N 
ATOM      8  C   UNL     1      -1.431  -6.640   3.845  0.00  0.00    +0.127 C 
ATOM      9  C   UNL     1      -0.350  -7.694   4.115  0.00  0.00    +0.126 C 
ATOM     10  N   UNL     1      -0.230  -7.882   5.568  0.00  0.00    -0.299 N 
ATOM     11  C   UNL     1       0.035  -6.710   6.414  0.00  0.00    +0.126 C 
ATOM     12  C   UNL     1      -1.041  -5.657   6.144  0.00  0.00    +0.127 C 
ATOM     13  C   UNL     1      -0.360  -9.107   6.114  0.00  0.00    +0.213 C 
ATOM     14  O   UNL     1      -0.671 -10.051   5.419  0.00  0.00    -0.276 OA
ATOM     15  C   UNL     1      -0.119  -9.305   7.588  0.00  0.00    +0.109 C 
ATOM     16  H   UNL     1      -1.480  -4.553   2.180  0.00  0.00    +0.169 HD
ENDROOT
BRANCH   2  17
ATOM     17  C   UNL     1      -0.343  -0.632   4.158  0.00  0.00    +0.019 A 
ATOM     18  C   UNL     1      -1.374   0.335   4.203  0.00  0.00    +0.015 A 
ATOM     19  C   UNL     1      -1.063   1.634   4.452  0.00  0.00    +0.049 A 
ATOM     20  C   UNL     1       0.280   2.001   4.661  0.00  0.00    +0.156 A 
ATOM     21  N   UNL     1       0.865   3.166   4.918  0.00  0.00    -0.215 NA
ATOM     22  C   UNL     1       2.173   2.994   5.035  0.00  0.00    +0.246 A 
ATOM     23  N   UNL     1       2.468   1.727   4.858  0.00  0.00    -0.154 NA
ATOM     24  N   UNL     1       1.263   1.053   4.614  0.00  0.00    -0.220 N 
ATOM     25  C   UNL     1       0.963  -0.249   4.371  0.00  0.00    +0.124 A 
ENDBRANCH   2  17
BRANCH   1  31
ATOM     26  C   UNL     1      -1.750   1.578   0.297  0.00  0.00    +0.068 C 
ATOM     27  C   UNL     1      -1.464   0.099   0.251  0.00  0.00    +0.074 A 
ATOM     28  C   UNL     1      -1.312  -0.529  -0.974  0.00  0.00    +0.144 A 
ATOM     29  C   UNL     1      -1.048  -1.894  -1.012  0.00  0.00    +0.042 A 
ATOM     30  C   UNL     1      -0.945  -2.580   0.185  0.00  0.00    +0.033 A 
ATOM     31  C   UNL     1      -1.109  -1.883   1.382  0.00  0.00    +0.090 A 
ATOM     32  N   UNL     1      -1.356  -0.578   1.376  0.00  0.00    -0.247 NA
ATOM     33  F   UNL     1      -1.421   0.176  -2.121  0.00  0.00    -0.204 F 
ENDBRANCH   1  31
TORSDOF 2
