REMARK  Name = CHEMBL425177
REMARK  3 active torsions:
REMARK  status: ('A' for Active; 'I' for Inactive)
REMARK    1  A    between atoms: C_1  and  C_2
REMARK    2  A    between atoms: C_8  and  C_12
REMARK    3  A    between atoms: C_13  and  C_18
REMARK                            x       y       z     vdW  Elec       q    Type
REMARK                         _______ _______ _______ _____ _____    ______ ____
ROOT
ATOM      1  C   UNL     1       0.186  -2.005   3.756  0.00  0.00    +0.052 A 
ATOM      2  C   UNL     1      -0.026  -2.506   5.041  0.00  0.00    +0.106 A 
ATOM      3  N   UNL     1      -0.141  -1.652   6.042  0.00  0.00    -0.223 NA
ATOM      4  C   UNL     1      -0.059  -0.347   5.851  0.00  0.00    +0.157 A 
ATOM      5  S   UNL     1       0.215  -0.248   4.088  0.00  0.00    -0.052 S 
ATOM      6  N   UNL     1      -0.156   0.675   6.776  0.00  0.00    -0.337 N 
ATOM      7  H   UNL     1      -0.304   0.470   7.712  0.00  0.00    +0.144 HD
ATOM      8  H   UNL     1      -0.076   1.598   6.488  0.00  0.00    +0.144 HD
ENDROOT
BRANCH   1  16
ATOM      9  C   UNL     1      -2.919   0.166   0.315  0.00  0.00    +0.065 C 
ATOM     10  C   UNL     1      -1.953  -0.988   0.239  0.00  0.00    +0.039 A 
ATOM     11  C   UNL     1      -1.799  -1.668  -0.966  0.00  0.00    +0.025 A 
ATOM     12  C   UNL     1      -0.927  -2.716  -1.053  0.00  0.00    +0.031 A 
ATOM     13  C   UNL     1      -0.203  -3.077   0.100  0.00  0.00    +0.090 A 
ATOM     14  C   UNL     1      -0.412  -2.339   1.289  0.00  0.00    +0.098 A 
ATOM     15  N   UNL     1      -1.272  -1.324   1.310  0.00  0.00    -0.250 NA
ATOM     16  C   UNL     1       0.347  -2.723   2.484  0.00  0.00    +0.020 A 
ATOM     17  C   UNL     1       1.229  -3.798   2.362  0.00  0.00    +0.031 A 
ATOM     18  C   UNL     1       1.351  -4.447   1.144  0.00  0.00    +0.112 A 
ATOM     19  N   UNL     1       0.665  -4.092   0.084  0.00  0.00    -0.253 NA
ENDBRANCH   1  16
BRANCH   2  20
ATOM     20  C   UNL     1      -0.121  -3.963   5.277  0.00  0.00    +0.090 A 
ATOM     21  C   UNL     1       0.215  -4.486   6.527  0.00  0.00    +0.030 A 
ATOM     22  C   UNL     1       0.120  -5.851   6.732  0.00  0.00    +0.004 A 
ATOM     23  C   UNL     1      -0.307  -6.651   5.681  0.00  0.00    +0.020 A 
ATOM     24  C   UNL     1      -0.624  -6.067   4.469  0.00  0.00    +0.111 A 
ATOM     25  N   UNL     1      -0.531  -4.764   4.300  0.00  0.00    -0.253 NA
ENDBRANCH   2  20
TORSDOF 2
