REMARK  Name = CHEMBL567505
REMARK  8 active torsions:
REMARK  status: ('A' for Active; 'I' for Inactive)
REMARK    1  A    between atoms: C_1  and  C_2
REMARK    2  A    between atoms: C_2  and  C_3
REMARK    3  A    between atoms: C_7  and  C_9
REMARK    4  A    between atoms: C_10  and  C_25
REMARK    5  A    between atoms: C_12  and  C_15
REMARK    6  A    between atoms: C_15  and  N_16
REMARK    7  A    between atoms: N_16  and  C_17
REMARK    8  A    between atoms: C_20  and  C_23
REMARK                            x       y       z     vdW  Elec       q    Type
REMARK                         _______ _______ _______ _____ _____    ______ ____
ROOT
ATOM      1  C   UNL     1       0.413   0.096  -4.820  0.00  0.00    +0.093 A 
ATOM      2  C   UNL     1      -0.903   0.358  -5.161  0.00  0.00    +0.098 A 
ATOM      3  N   UNL     1      -0.927   0.641  -6.476  0.00  0.00    -0.230 NA
ATOM      4  C   UNL     1       0.281   0.570  -6.961  0.00  0.00    +0.125 A 
ATOM      5  N   UNL     1       1.145   0.242  -5.977  0.00  0.00    -0.339 N 
ATOM      6  H   UNL     1       2.104   0.128  -6.068  0.00  0.00    +0.167 HD
ENDROOT
BRANCH   2   7
ATOM      7  C   UNL     1      -2.068   0.332  -4.247  0.00  0.00    -0.000 C 
ATOM      8  C   UNL     1      -2.393  -0.798  -3.603  0.00  0.00    +0.004 C 
ATOM      9  C   UNL     1      -3.589  -0.843  -2.694  0.00  0.00    +0.106 C 
ATOM     10  C   UNL     1      -3.817   0.503  -2.021  0.00  0.00    +0.148 C 
ATOM     11  C   UNL     1      -3.704   1.628  -3.011  0.00  0.00    +0.002 C 
ATOM     12  C   UNL     1      -2.873   1.552  -4.037  0.00  0.00    +0.008 C 
ATOM     13  N   UNL     1      -5.124   0.542  -1.374  0.00  0.00    -0.285 NA
ATOM     14  C   UNL     1      -6.050  -0.290  -1.601  0.00  0.00    +0.093 C 
ATOM     15  C   UNL     1      -5.921  -1.436  -2.562  0.00  0.00    +0.128 C 
ATOM     16  N   UNL     1      -4.787  -1.208  -3.467  0.00  0.00    -0.303 NA
ATOM     17  H   UNL     1      -5.006  -0.498  -4.150  0.00  0.00    +0.123 HD
ENDBRANCH   2   7
BRANCH   1  22
ATOM     18  C   UNL     1       0.694  -0.176  -1.188  0.00  0.00    +0.042 A 
ATOM     19  C   UNL     1       1.854  -0.907  -1.005  0.00  0.00    +0.023 A 
ATOM     20  C   UNL     1       2.576  -1.330  -2.113  0.00  0.00    +0.004 A 
ATOM     21  C   UNL     1       2.107  -1.003  -3.372  0.00  0.00    +0.030 A 
ATOM     22  C   UNL     1       0.928  -0.262  -3.485  0.00  0.00    +0.090 A 
ATOM     23  N   UNL     1       0.264   0.119  -2.397  0.00  0.00    -0.250 NA
BRANCH  18  25
ATOM     24  C   UNL     1      -0.290   1.799  -0.057  0.00  0.00    +0.010 C 
ATOM     25  C   UNL     1      -0.092   0.283   0.013  0.00  0.00    +0.052 C 
ENDBRANCH  18  25
ENDBRANCH   1  22
BRANCH   4  26
ATOM     26  C   UNL     1       0.657   0.821  -8.399  0.00  0.00    +0.175 C 
BRANCH  26  27
ATOM     27  N   UNL     1       0.470  -0.408  -9.174  0.00  0.00    -0.337 N 
ATOM     28  H   UNL     1       0.149  -1.212  -8.738  0.00  0.00    +0.147 HD
BRANCH  27  29
ATOM     29  C   UNL     1       0.755  -0.421 -10.537  0.00  0.00    +0.028 A 
ATOM     30  C   UNL     1       1.222   0.732 -11.160  0.00  0.00    +0.024 A 
ATOM     31  C   UNL     1       1.504   0.723 -12.507  0.00  0.00    +0.020 A 
ATOM     32  C   UNL     1       1.322  -0.448 -13.249  0.00  0.00    +0.052 A 
ATOM     33  C   UNL     1       0.852  -1.605 -12.620  0.00  0.00    +0.020 A 
ATOM     34  C   UNL     1       0.577  -1.590 -11.272  0.00  0.00    +0.024 A 
BRANCH  32  35
ATOM     35  C   UNL     1       1.614  -0.461 -14.651  0.00  0.00    +0.099 C 
ATOM     36  N   UNL     1       1.846  -0.472 -15.763  0.00  0.00    -0.191 NA
ENDBRANCH  32  35
ENDBRANCH  27  29
ENDBRANCH  26  27
ENDBRANCH   4  26
TORSDOF 7
