REMARK  Name = CHEMBL129760
REMARK  6 active torsions:
REMARK  status: ('A' for Active; 'I' for Inactive)
REMARK    1  A    between atoms: C_1  and  C_2
REMARK    2  A    between atoms: C_6  and  C_8
REMARK    3  A    between atoms: C_9  and  C_14
REMARK    4  A    between atoms: N_11  and  C_13
REMARK    5  A    between atoms: C_17  and  O_20
REMARK    6  A    between atoms: O_20  and  C_21
REMARK                            x       y       z     vdW  Elec       q    Type
REMARK                         _______ _______ _______ _____ _____    ______ ____
ROOT
ATOM      1  C   UNL     1       0.050  -2.682   2.494  0.00  0.00    +0.119 A 
ATOM      2  C   UNL     1       0.528  -2.148   3.717  0.00  0.00    +0.029 A 
ATOM      3  C   UNL     1       0.364  -3.105   4.673  0.00  0.00    +0.117 A 
ATOM      4  N   UNL     1      -0.189  -4.187   4.085  0.00  0.00    -0.273 N 
ATOM      5  N   UNL     1      -0.382  -3.902   2.728  0.00  0.00    -0.169 NA
ATOM      6  C   UNL     1      -0.532  -5.444   4.754  0.00  0.00    +0.172 C 
ENDROOT
BRANCH   1  12
ATOM      7  C   UNL     1      -0.018   1.503   0.010  0.00  0.00    +0.065 C 
ATOM      8  C   UNL     1       0.002  -0.004   0.002  0.00  0.00    +0.039 A 
ATOM      9  C   UNL     1       0.005  -0.679  -1.204  0.00  0.00    +0.023 A 
ATOM     10  C   UNL     1       0.024  -2.067  -1.208  0.00  0.00    +0.004 A 
ATOM     11  C   UNL     1       0.039  -2.731   0.006  0.00  0.00    +0.030 A 
ATOM     12  C   UNL     1       0.035  -1.986   1.185  0.00  0.00    +0.092 A 
ATOM     13  N   UNL     1       0.022  -0.660   1.145  0.00  0.00    -0.250 NA
ENDBRANCH   1  12
BRANCH   2  14
ATOM     14  C   UNL     1       1.102  -0.795   3.920  0.00  0.00    -0.014 A 
ATOM     15  C   UNL     1       2.107  -0.329   3.074  0.00  0.00    +0.012 A 
ATOM     16  C   UNL     1       2.638   0.929   3.265  0.00  0.00    +0.046 A 
ATOM     17  C   UNL     1       2.173   1.731   4.298  0.00  0.00    +0.120 A 
ATOM     18  C   UNL     1       1.173   1.270   5.142  0.00  0.00    +0.046 A 
ATOM     19  C   UNL     1       0.633   0.015   4.952  0.00  0.00    +0.012 A 
BRANCH  17  20
ATOM     20  O   UNL     1       2.700   2.970   4.484  0.00  0.00    -0.495 OA
ATOM     21  C   UNL     1       2.175   3.742   5.566  0.00  0.00    +0.277 C 
ENDBRANCH  17  20
ENDBRANCH   2  14
TORSDOF 3
