REMARK  Name = CHEMBL409525
REMARK  8 active torsions:
REMARK  status: ('A' for Active; 'I' for Inactive)
REMARK    1  A    between atoms: C_1  and  N_2
REMARK    2  A    between atoms: N_2  and  C_3
REMARK    3  A    between atoms: N_2  and  C_4
REMARK    4  A    between atoms: C_4  and  C_5
REMARK    5  A    between atoms: C_5  and  O_6
REMARK    6  A    between atoms: O_6  and  C_7
REMARK    7  A    between atoms: C_11  and  C_17
REMARK    8  A    between atoms: C_21  and  C_22
REMARK                            x       y       z     vdW  Elec       q    Type
REMARK                         _______ _______ _______ _____ _____    ______ ____
ROOT
ATOM      1  C   UNL     1      -2.151  -0.548   3.508  0.00  0.00    +0.122 A 
ATOM      2  C   UNL     1      -1.749   0.332   4.517  0.00  0.00    +0.046 A 
ATOM      3  C   UNL     1      -2.555   0.584   5.583  0.00  0.00    +0.014 A 
ATOM      4  C   UNL     1      -3.805  -0.043   5.676  0.00  0.00    +0.008 A 
ATOM      5  C   UNL     1      -4.670   0.200   6.774  0.00  0.00    -0.003 A 
ATOM      6  C   UNL     1      -5.893  -0.460   6.795  0.00  0.00    +0.029 A 
ATOM      7  C   UNL     1      -6.227  -1.320   5.758  0.00  0.00    +0.112 A 
ATOM      8  N   UNL     1      -5.417  -1.536   4.748  0.00  0.00    -0.255 NA
ATOM      9  C   UNL     1      -4.224  -0.936   4.661  0.00  0.00    +0.075 A 
ATOM     10  C   UNL     1      -3.375  -1.175   3.568  0.00  0.00    +0.074 A 
ENDROOT
BRANCH   5  11
ATOM     11  C   UNL     1      -4.281   1.123   7.863  0.00  0.00    +0.033 A 
ATOM     12  C   UNL     1      -4.530   2.468   7.922  0.00  0.00    +0.048 A 
ATOM     13  N   UNL     1      -4.021   2.942   9.072  0.00  0.00    -0.267 N 
ATOM     14  N   UNL     1      -3.421   1.885   9.778  0.00  0.00    -0.169 NA
ATOM     15  C   UNL     1      -3.562   0.777   9.088  0.00  0.00    +0.119 A 
ATOM     16  C   UNL     1      -4.266   4.390   9.197  0.00  0.00    +0.144 C 
ATOM     17  C   UNL     1      -4.617   4.876   7.775  0.00  0.00    +0.029 C 
ATOM     18  C   UNL     1      -5.179   3.587   7.133  0.00  0.00    +0.057 C 
BRANCH  15  19
ATOM     19  C   UNL     1      -3.080  -0.570   9.476  0.00  0.00    +0.091 A 
ATOM     20  C   UNL     1      -2.007  -0.694  10.357  0.00  0.00    +0.030 A 
ATOM     21  C   UNL     1      -1.569  -1.958  10.710  0.00  0.00    +0.004 A 
ATOM     22  C   UNL     1      -2.218  -3.059  10.170  0.00  0.00    +0.020 A 
ATOM     23  C   UNL     1      -3.276  -2.864   9.302  0.00  0.00    +0.111 A 
ATOM     24  N   UNL     1      -3.677  -1.649   8.986  0.00  0.00    -0.253 NA
ENDBRANCH  15  19
ENDBRANCH   5  11
BRANCH   1  25
ATOM     25  O   UNL     1      -1.328  -0.783   2.454  0.00  0.00    -0.494 OA
BRANCH  25  26
ATOM     26  C   UNL     1      -0.071  -0.103   2.448  0.00  0.00    +0.210 C 
BRANCH  26  27
ATOM     27  C   UNL     1       0.713  -0.491   1.192  0.00  0.00    -0.038 C 
BRANCH  27  29
ATOM     28  C   UNL     1      -0.018   1.465   0.010  0.00  0.00    -0.096 C 
ATOM     29  N   UNL     1       0.002  -0.004   0.002  0.00  0.00    +0.378 N 
ATOM     30  C   UNL     1       0.690  -0.478  -1.207  0.00  0.00    -0.096 C 
ATOM     31  H   UNL     1      -0.945  -0.353   0.009  0.00  0.00    -0.082 HD
ENDBRANCH  27  29
ENDBRANCH  26  27
ENDBRANCH  25  26
ENDBRANCH   1  25
TORSDOF 6
