REMARK  Name = CHEMBL585367
REMARK  7 active torsions:
REMARK  status: ('A' for Active; 'I' for Inactive)
REMARK    1  A    between atoms: C_1  and  C_2
REMARK    2  A    between atoms: C_5  and  O_9
REMARK    3  A    between atoms: C_6  and  C_8
REMARK    4  A    between atoms: O_9  and  C_10
REMARK    5  A    between atoms: N_16  and  C_17
REMARK    6  A    between atoms: C_20  and  S_23
REMARK    7  A    between atoms: S_23  and  N_26
REMARK                            x       y       z     vdW  Elec       q    Type
REMARK                         _______ _______ _______ _____ _____    ______ ____
ROOT
ATOM      1  C   UNL     1      -0.622  -4.612  -1.240  0.00  0.00    +0.133 A 
ATOM      2  C   UNL     1      -0.606  -6.021  -1.317  0.00  0.00    +0.064 A 
ATOM      3  C   UNL     1      -0.308  -6.633  -2.481  0.00  0.00    +0.088 A 
ATOM      4  N   UNL     1      -0.018  -5.909  -3.598  0.00  0.00    -0.346 N 
ATOM      5  C   UNL     1      -0.024  -4.536  -3.563  0.00  0.00    +0.135 A 
ATOM      6  C   UNL     1      -0.335  -3.870  -2.366  0.00  0.00    +0.092 A 
ATOM      7  N   UNL     1       0.261  -3.840  -4.659  0.00  0.00    -0.230 NA
ATOM      8  H   UNL     1       0.194  -6.367  -4.426  0.00  0.00    +0.167 HD
ENDROOT
BRANCH   7   9
ATOM      9  C   UNL     1       0.380  -2.482  -4.593  0.00  0.00    +0.066 A 
ATOM     10  C   UNL     1      -0.415  -1.667  -5.406  0.00  0.00    +0.030 A 
ATOM     11  C   UNL     1      -0.289  -0.296  -5.333  0.00  0.00    +0.030 A 
ATOM     12  C   UNL     1       0.621   0.274  -4.460  0.00  0.00    +0.105 A 
ATOM     13  C   UNL     1       1.411  -0.526  -3.653  0.00  0.00    +0.030 A 
ATOM     14  C   UNL     1       1.293  -1.899  -3.709  0.00  0.00    +0.030 A 
BRANCH  12  15
ATOM     15  S   UNL     1       0.774   2.027  -4.375  0.00  0.00    +0.056 S 
ATOM     16  O   UNL     1       2.077   2.297  -3.877  0.00  0.00    -0.153 OA
ATOM     17  O   UNL     1       0.314   2.536  -5.620  0.00  0.00    -0.153 OA
BRANCH  15  18
ATOM     18  N   UNL     1      -0.292   2.557  -3.224  0.00  0.00    -0.204 NA
ATOM     19  H   UNL     1      -0.848   1.920  -2.749  0.00  0.00    +0.144 HD
ATOM     20  H   UNL     1      -0.361   3.504  -3.026  0.00  0.00    +0.144 HD
ENDBRANCH  15  18
ENDBRANCH  12  15
ENDBRANCH   7   9
BRANCH   1  21
ATOM     21  O   UNL     1      -0.921  -3.995  -0.071  0.00  0.00    -0.454 OA
BRANCH  21  26
ATOM     22  C   UNL     1       2.566  -4.477   4.267  0.00  0.00    +0.065 C 
ATOM     23  C   UNL     1       1.641  -4.359   3.083  0.00  0.00    +0.039 A 
ATOM     24  C   UNL     1       2.018  -4.900   1.867  0.00  0.00    +0.026 A 
ATOM     25  C   UNL     1       1.163  -4.788   0.783  0.00  0.00    +0.050 A 
ATOM     26  C   UNL     1      -0.051  -4.130   0.963  0.00  0.00    +0.149 A 
ATOM     27  C   UNL     1      -0.358  -3.614   2.214  0.00  0.00    +0.081 A 
ATOM     28  N   UNL     1       0.482  -3.747   3.221  0.00  0.00    -0.253 NA
ATOM     29  C   UNL     1      -1.668  -2.899   2.424  0.00  0.00    +0.069 C 
ENDBRANCH  21  26
ENDBRANCH   1  21
TORSDOF 5
