REMARK  Name = CHEMBL202887
REMARK  5 active torsions:
REMARK  status: ('A' for Active; 'I' for Inactive)
REMARK    1  A    between atoms: C_5  and  C_7
REMARK    2  A    between atoms: C_8  and  C_13
REMARK    3  A    between atoms: C_17  and  C_19
REMARK    4  A    between atoms: C_22  and  C_25
REMARK    5  A    between atoms: N_27  and  C_28
REMARK                            x       y       z     vdW  Elec       q    Type
REMARK                         _______ _______ _______ _____ _____    ______ ____
ROOT
ATOM      1  C   UNL     1       3.590  -2.468  -1.118  0.00  0.00    -0.011 A 
ATOM      2  C   UNL     1       3.580  -1.504  -2.132  0.00  0.00    +0.028 A 
ATOM      3  C   UNL     1       4.779  -1.077  -2.667  0.00  0.00    +0.112 A 
ATOM      4  N   UNL     1       5.926  -1.563  -2.238  0.00  0.00    -0.255 NA
ATOM      5  C   UNL     1       5.985  -2.478  -1.278  0.00  0.00    +0.072 A 
ATOM      6  C   UNL     1       4.823  -2.957  -0.682  0.00  0.00    +0.037 A 
ENDROOT
BRANCH   1   8
ATOM      7  C   UNL     1       1.267  -2.146  -0.023  0.00  0.00    +0.118 A 
ATOM      8  C   UNL     1       2.324  -2.953  -0.517  0.00  0.00    +0.029 A 
ATOM      9  C   UNL     1       1.962  -4.255  -0.340  0.00  0.00    +0.114 A 
ATOM     10  N   UNL     1       0.744  -4.271   0.236  0.00  0.00    -0.284 N 
ATOM     11  H   UNL     1       0.241  -5.064   0.478  0.00  0.00    +0.188 HD
ATOM     12  N   UNL     1       0.328  -2.948   0.431  0.00  0.00    -0.172 NA
BRANCH   7  17
ATOM     13  C   UNL     1      -0.017   1.379   0.010  0.00  0.00    +0.004 A 
ATOM     14  C   UNL     1       1.194   2.059   0.002  0.00  0.00    +0.020 A 
ATOM     15  C   UNL     1       2.374   1.340  -0.013  0.00  0.00    +0.111 A 
ATOM     16  N   UNL     1       2.365   0.022  -0.021  0.00  0.00    -0.253 NA
ATOM     17  C   UNL     1       1.230  -0.665  -0.014  0.00  0.00    +0.091 A 
ATOM     18  C   UNL     1       0.002  -0.004   0.002  0.00  0.00    +0.030 A 
ENDBRANCH   7  17
ENDBRANCH   1   8
BRANCH   5  19
ATOM     19  C   UNL     1       7.303  -2.991  -0.833  0.00  0.00    +0.000 A 
ATOM     20  C   UNL     1       7.372  -3.957   0.171  0.00  0.00    +0.011 A 
ATOM     21  C   UNL     1       8.596  -4.435   0.585  0.00  0.00    +0.014 A 
ATOM     22  C   UNL     1       9.768  -3.951  -0.001  0.00  0.00    +0.037 A 
ATOM     23  C   UNL     1       9.698  -2.984  -1.006  0.00  0.00    +0.014 A 
ATOM     24  C   UNL     1       8.473  -2.512  -1.422  0.00  0.00    +0.011 A 
BRANCH  22  25
ATOM     25  C   UNL     1      11.082  -4.463   0.442  0.00  0.00    +0.244 C 
ATOM     26  O   UNL     1      11.142  -5.304   1.317  0.00  0.00    -0.270 OA
ATOM     27  N   UNL     1      12.212  -3.996  -0.123  0.00  0.00    -0.308 N 
ATOM     28  H   UNL     1      12.164  -3.325  -0.822  0.00  0.00    +0.149 HD
BRANCH  27  29
ATOM     29  C   UNL     1      13.515  -4.503   0.316  0.00  0.00    +0.078 C 
ATOM     30  C   UNL     1      13.986  -3.711   1.540  0.00  0.00    +0.050 C 
ATOM     31  C   UNL     1      15.382  -4.194   1.944  0.00  0.00    +0.161 C 
ATOM     32  O   UNL     1      16.276  -4.040   0.840  0.00  0.00    -0.380 OA
ATOM     33  C   UNL     1      15.911  -4.795  -0.317  0.00  0.00    +0.161 C 
ATOM     34  C   UNL     1      14.537  -4.336  -0.812  0.00  0.00    +0.050 C 
ENDBRANCH  27  29
ENDBRANCH  22  25
ENDBRANCH   5  19
TORSDOF 5
