REMARK  Name = CHEMBL567505
REMARK  8 active torsions:
REMARK  status: ('A' for Active; 'I' for Inactive)
REMARK    1  A    between atoms: C_1  and  C_2
REMARK    2  A    between atoms: C_2  and  C_3
REMARK    3  A    between atoms: C_7  and  C_9
REMARK    4  A    between atoms: C_10  and  C_25
REMARK    5  A    between atoms: C_12  and  C_15
REMARK    6  A    between atoms: C_15  and  N_16
REMARK    7  A    between atoms: N_16  and  C_17
REMARK    8  A    between atoms: C_20  and  C_23
REMARK                            x       y       z     vdW  Elec       q    Type
REMARK                         _______ _______ _______ _____ _____    ______ ____
ROOT
ATOM      1  C   UNL     1       0.413   0.098  -4.820  0.00  0.00    +0.093 A 
ATOM      2  C   UNL     1      -0.903   0.358  -5.161  0.00  0.00    +0.098 A 
ATOM      3  N   UNL     1      -0.927   0.639  -6.477  0.00  0.00    -0.230 NA
ATOM      4  C   UNL     1       0.281   0.568  -6.962  0.00  0.00    +0.125 A 
ATOM      5  N   UNL     1       1.145   0.243  -5.976  0.00  0.00    -0.339 N 
ATOM      6  H   UNL     1       2.104   0.131  -6.067  0.00  0.00    +0.167 HD
ENDROOT
BRANCH   2   7
ATOM      7  C   UNL     1      -2.068   0.332  -4.247  0.00  0.00    +0.000 C 
ATOM      8  C   UNL     1      -2.393  -0.798  -3.603  0.00  0.00    +0.011 C 
ATOM      9  C   UNL     1      -3.556  -0.831  -2.651  0.00  0.00    +0.149 C 
ATOM     10  C   UNL     1      -4.650   0.130  -3.096  0.00  0.00    +0.106 C 
ATOM     11  C   UNL     1      -4.077   1.461  -3.492  0.00  0.00    -0.005 C 
ATOM     12  C   UNL     1      -2.873   1.552  -4.037  0.00  0.00    +0.007 C 
ATOM     13  N   UNL     1      -5.379  -0.456  -4.231  0.00  0.00    -0.303 NA
ATOM     14  C   UNL     1      -6.100  -1.662  -3.801  0.00  0.00    +0.128 C 
ATOM     15  C   UNL     1      -5.173  -2.569  -3.043  0.00  0.00    +0.093 C 
ATOM     16  N   UNL     1      -4.074  -2.190  -2.547  0.00  0.00    -0.285 NA
ATOM     17  H   UNL     1      -6.011   0.216  -4.641  0.00  0.00    +0.123 HD
ENDBRANCH   2   7
BRANCH   1  22
ATOM     18  C   UNL     1       0.694  -0.169  -1.187  0.00  0.00    +0.042 A 
ATOM     19  C   UNL     1       1.855  -0.897  -1.003  0.00  0.00    +0.023 A 
ATOM     20  C   UNL     1       2.579  -1.319  -2.110  0.00  0.00    +0.004 A 
ATOM     21  C   UNL     1       2.109  -0.995  -3.369  0.00  0.00    +0.030 A 
ATOM     22  C   UNL     1       0.928  -0.257  -3.484  0.00  0.00    +0.090 A 
ATOM     23  N   UNL     1       0.264   0.124  -2.397  0.00  0.00    -0.250 NA
BRANCH  18  25
ATOM     24  C   UNL     1      -0.295   1.806  -0.059  0.00  0.00    +0.010 C 
ATOM     25  C   UNL     1      -0.093   0.291   0.013  0.00  0.00    +0.052 C 
ENDBRANCH  18  25
ENDBRANCH   1  22
BRANCH   4  26
ATOM     26  C   UNL     1       0.657   0.818  -8.400  0.00  0.00    +0.175 C 
BRANCH  26  27
ATOM     27  N   UNL     1       0.472  -0.413  -9.173  0.00  0.00    -0.337 N 
ATOM     28  H   UNL     1       0.151  -1.217  -8.736  0.00  0.00    +0.147 HD
BRANCH  27  29
ATOM     29  C   UNL     1       0.756  -0.428 -10.535  0.00  0.00    +0.028 A 
ATOM     30  C   UNL     1       1.222   0.725 -11.160  0.00  0.00    +0.024 A 
ATOM     31  C   UNL     1       1.504   0.714 -12.507  0.00  0.00    +0.020 A 
ATOM     32  C   UNL     1       1.323  -0.458 -13.248  0.00  0.00    +0.052 A 
ATOM     33  C   UNL     1       0.855  -1.615 -12.617  0.00  0.00    +0.020 A 
ATOM     34  C   UNL     1       0.580  -1.598 -11.268  0.00  0.00    +0.024 A 
BRANCH  32  35
ATOM     35  C   UNL     1       1.615  -0.473 -14.650  0.00  0.00    +0.099 C 
ATOM     36  N   UNL     1       1.847  -0.486 -15.762  0.00  0.00    -0.191 NA
ENDBRANCH  32  35
ENDBRANCH  27  29
ENDBRANCH  26  27
ENDBRANCH   4  26
TORSDOF 7
