REMARK  Name = CHEMBL565422
REMARK  7 active torsions:
REMARK  status: ('A' for Active; 'I' for Inactive)
REMARK    1  A    between atoms: C_1  and  C_2
REMARK    2  A    between atoms: C_6  and  C_8
REMARK    3  A    between atoms: C_9  and  C_25
REMARK    4  A    between atoms: C_11  and  C_14
REMARK    5  A    between atoms: C_14  and  N_15
REMARK    6  A    between atoms: N_15  and  C_16
REMARK    7  A    between atoms: C_19  and  C_22
REMARK                            x       y       z     vdW  Elec       q    Type
REMARK                         _______ _______ _______ _____ _____    ______ ____
ROOT
ATOM      1  C   UNL     1      -0.030  -2.643   2.512  0.00  0.00    +0.093 A 
ATOM      2  C   UNL     1       0.599  -2.217   3.670  0.00  0.00    +0.098 A 
ATOM      3  N   UNL     1       0.471  -3.199   4.580  0.00  0.00    -0.230 NA
ATOM      4  C   UNL     1      -0.192  -4.194   4.059  0.00  0.00    +0.125 A 
ATOM      5  N   UNL     1      -0.528  -3.897   2.786  0.00  0.00    -0.339 N 
ATOM      6  H   UNL     1      -1.026  -4.463   2.176  0.00  0.00    +0.167 HD
ENDROOT
BRANCH   2   7
ATOM      7  C   UNL     1       1.285  -0.920   3.869  0.00  0.00    -0.000 C 
ATOM      8  C   UNL     1       0.868  -0.076   4.824  0.00  0.00    +0.004 C 
ATOM      9  C   UNL     1       1.540   1.254   5.017  0.00  0.00    +0.106 C 
ATOM     10  C   UNL     1       3.022   1.174   4.673  0.00  0.00    +0.148 C 
ATOM     11  C   UNL     1       3.237   0.436   3.381  0.00  0.00    +0.002 C 
ATOM     12  C   UNL     1       2.437  -0.552   3.020  0.00  0.00    +0.008 C 
ATOM     13  N   UNL     1       3.603   2.509   4.584  0.00  0.00    -0.285 NA
ATOM     14  C   UNL     1       2.923   3.572   4.495  0.00  0.00    +0.093 C 
ATOM     15  C   UNL     1       1.421   3.600   4.479  0.00  0.00    +0.128 C 
ATOM     16  N   UNL     1       0.898   2.264   4.162  0.00  0.00    -0.303 NA
ATOM     17  H   UNL     1       1.028   2.046   3.186  0.00  0.00    +0.123 HD
ENDBRANCH   2   7
BRANCH   1  23
ATOM     18  C   UNL     1      -0.151   1.632   0.197  0.00  0.00    +0.065 C 
ATOM     19  C   UNL     1      -0.206   0.127   0.137  0.00  0.00    +0.039 A 
ATOM     20  C   UNL     1      -0.363  -0.501  -1.085  0.00  0.00    +0.023 A 
ATOM     21  C   UNL     1      -0.414  -1.888  -1.138  0.00  0.00    +0.004 A 
ATOM     22  C   UNL     1      -0.304  -2.599   0.043  0.00  0.00    +0.030 A 
ATOM     23  C   UNL     1      -0.147  -1.901   1.243  0.00  0.00    +0.090 A 
ATOM     24  N   UNL     1      -0.099  -0.572   1.249  0.00  0.00    -0.250 NA
ENDBRANCH   1  23
BRANCH   4  25
ATOM     25  C   UNL     1      -0.535  -5.478   4.771  0.00  0.00    +0.175 C 
BRANCH  25  26
ATOM     26  N   UNL     1       0.590  -6.410   4.666  0.00  0.00    -0.337 N 
ATOM     27  H   UNL     1       1.393  -6.150   4.189  0.00  0.00    +0.147 HD
BRANCH  26  28
ATOM     28  C   UNL     1       0.506  -7.669   5.250  0.00  0.00    +0.027 A 
ATOM     29  C   UNL     1      -0.650  -8.044   5.930  0.00  0.00    +0.023 A 
ATOM     30  C   UNL     1      -0.736  -9.289   6.509  0.00  0.00    +0.015 A 
ATOM     31  C   UNL     1       0.339 -10.179   6.414  0.00  0.00    +0.037 A 
ATOM     32  C   UNL     1       1.498  -9.799   5.731  0.00  0.00    +0.015 A 
ATOM     33  C   UNL     1       1.576  -8.555   5.149  0.00  0.00    +0.023 A 
BRANCH  31  34
ATOM     34  C   UNL     1       0.250 -11.514   7.035  0.00  0.00    +0.242 C 
ATOM     35  O   UNL     1      -0.759 -11.843   7.629  0.00  0.00    -0.270 OA
ATOM     36  N   UNL     1       1.286 -12.370   6.942  0.00  0.00    -0.325 N 
ATOM     37  H   UNL     1       2.091 -12.108   6.468  0.00  0.00    +0.145 HD
ATOM     38  H   UNL     1       1.228 -13.248   7.350  0.00  0.00    +0.145 HD
ENDBRANCH  31  34
ENDBRANCH  26  28
ENDBRANCH  25  26
ENDBRANCH   4  25
TORSDOF 6
