REMARK  Name = CHEMBL424676
REMARK  9 active torsions:
REMARK  status: ('A' for Active; 'I' for Inactive)
REMARK    1  A    between atoms: C_1  and  N_2
REMARK    2  A    between atoms: N_2  and  C_3
REMARK    3  A    between atoms: N_2  and  C_4
REMARK    4  A    between atoms: C_4  and  C_5
REMARK    5  A    between atoms: C_5  and  O_6
REMARK    6  A    between atoms: O_6  and  C_7
REMARK    7  A    between atoms: C_10  and  C_13
REMARK    8  A    between atoms: C_15  and  C_19
REMARK    9  A    between atoms: C_24  and  C_25
REMARK                            x       y       z     vdW  Elec       q    Type
REMARK                         _______ _______ _______ _____ _____    ______ ____
ROOT
ATOM      1  C   UNL     1       8.256   0.397   0.696  0.00  0.00    +0.072 A 
ATOM      2  C   UNL     1       8.947  -0.224   1.731  0.00  0.00    +0.037 A 
ATOM      3  C   UNL     1      10.301   0.063   1.907  0.00  0.00    -0.011 A 
ATOM      4  C   UNL     1      10.907   0.968   1.027  0.00  0.00    +0.028 A 
ATOM      5  C   UNL     1      10.152   1.541   0.025  0.00  0.00    +0.112 A 
ATOM      6  N   UNL     1       8.874   1.244  -0.117  0.00  0.00    -0.255 NA
ENDROOT
BRANCH   1  10
ATOM      7  C   UNL     1       4.127  -0.444   0.116  0.00  0.00    +0.120 A 
ATOM      8  C   UNL     1       4.779   0.442  -0.730  0.00  0.00    +0.046 A 
ATOM      9  C   UNL     1       6.118   0.717  -0.545  0.00  0.00    +0.013 A 
ATOM     10  C   UNL     1       6.816   0.104   0.494  0.00  0.00    +0.001 A 
ATOM     11  C   UNL     1       6.159  -0.786   1.343  0.00  0.00    +0.013 A 
ATOM     12  C   UNL     1       4.819  -1.052   1.155  0.00  0.00    +0.046 A 
BRANCH   7  13
ATOM     13  O   UNL     1       2.809  -0.713  -0.069  0.00  0.00    -0.494 OA
BRANCH  13  14
ATOM     14  C   UNL     1       2.159  -0.053  -1.157  0.00  0.00    +0.210 C 
BRANCH  14  15
ATOM     15  C   UNL     1       0.690  -0.478  -1.207  0.00  0.00    -0.038 C 
BRANCH  15  17
ATOM     16  C   UNL     1      -0.018   1.465   0.010  0.00  0.00    -0.096 C 
ATOM     17  N   UNL     1       0.002  -0.004   0.002  0.00  0.00    +0.378 N 
ATOM     18  C   UNL     1      -1.376  -0.512   0.012  0.00  0.00    -0.096 C 
ATOM     19  H   UNL     1       0.490  -0.338   0.820  0.00  0.00    -0.082 HD
ENDBRANCH  15  17
ENDBRANCH  14  15
ENDBRANCH  13  14
ENDBRANCH   7  13
ENDBRANCH   1  10
BRANCH   3  20
ATOM     20  C   UNL     1      11.079  -0.574   2.997  0.00  0.00    +0.029 A 
ATOM     21  C   UNL     1      10.720  -0.641   4.311  0.00  0.00    +0.114 A 
ATOM     22  N   UNL     1      11.694  -1.298   4.972  0.00  0.00    -0.284 N 
ATOM     23  H   UNL     1      11.702  -1.492   5.922  0.00  0.00    +0.188 HD
ATOM     24  N   UNL     1      12.689  -1.655   4.055  0.00  0.00    -0.172 NA
ATOM     25  C   UNL     1      12.329  -1.230   2.863  0.00  0.00    +0.118 A 
BRANCH  25  26
ATOM     26  C   UNL     1      13.094  -1.404   1.606  0.00  0.00    +0.091 A 
ATOM     27  C   UNL     1      14.475  -1.583   1.656  0.00  0.00    +0.030 A 
ATOM     28  C   UNL     1      15.176  -1.744   0.474  0.00  0.00    +0.004 A 
ATOM     29  C   UNL     1      14.472  -1.722  -0.722  0.00  0.00    +0.020 A 
ATOM     30  C   UNL     1      13.101  -1.540  -0.699  0.00  0.00    +0.111 A 
ATOM     31  N   UNL     1      12.458  -1.394   0.441  0.00  0.00    -0.253 NA
ENDBRANCH  25  26
ENDBRANCH   3  20
TORSDOF 7
