REMARK  Name = CHEMBL574413
REMARK  7 active torsions:
REMARK  status: ('A' for Active; 'I' for Inactive)
REMARK    1  A    between atoms: C_1  and  C_2
REMARK    2  A    between atoms: C_4  and  O_15
REMARK    3  A    between atoms: C_5  and  C_9
REMARK    4  A    between atoms: C_7  and  C_8
REMARK    5  A    between atoms: O_15  and  C_16
REMARK    6  A    between atoms: N_22  and  C_23
REMARK    7  A    between atoms: C_27  and  N_29
REMARK                            x       y       z     vdW  Elec       q    Type
REMARK                         _______ _______ _______ _____ _____    ______ ____
ROOT
ATOM      1  C   UNL     1       0.468  -2.013  -3.412  0.00  0.00    +0.133 A 
ATOM      2  C   UNL     1       0.701  -2.605  -4.671  0.00  0.00    +0.064 A 
ATOM      3  C   UNL     1       0.746  -1.842  -5.782  0.00  0.00    +0.088 A 
ATOM      4  N   UNL     1       0.569  -0.493  -5.712  0.00  0.00    -0.346 N 
ATOM      5  C   UNL     1       0.341   0.121  -4.505  0.00  0.00    +0.135 A 
ATOM      6  C   UNL     1       0.282  -0.649  -3.331  0.00  0.00    +0.092 A 
ATOM      7  N   UNL     1       0.170   1.438  -4.448  0.00  0.00    -0.230 NA
ATOM      8  H   UNL     1       0.605   0.038  -6.522  0.00  0.00    +0.167 HD
ENDROOT
BRANCH   7   9
ATOM      9  C   UNL     1       0.105   2.167  -5.600  0.00  0.00    +0.068 A 
ATOM     10  C   UNL     1      -0.847   1.855  -6.576  0.00  0.00    +0.028 A 
ATOM     11  C   UNL     1      -0.910   2.595  -7.738  0.00  0.00    +0.004 A 
ATOM     12  C   UNL     1      -0.035   3.645  -7.944  0.00  0.00    +0.023 A 
ATOM     13  C   UNL     1       0.915   3.965  -6.980  0.00  0.00    +0.032 A 
ATOM     14  C   UNL     1       0.985   3.232  -5.806  0.00  0.00    +0.051 A 
BRANCH  13  15
ATOM     15  N   UNL     1       1.797   5.027  -7.194  0.00  0.00    -0.325 N 
ATOM     16  C   UNL     1       2.896   5.300  -6.255  0.00  0.00    +0.133 C 
ATOM     17  C   UNL     1       4.196   5.429  -7.056  0.00  0.00    +0.178 C 
ATOM     18  O   UNL     1       4.008   6.380  -8.107  0.00  0.00    -0.377 OA
ATOM     19  C   UNL     1       3.014   6.006  -9.064  0.00  0.00    +0.178 C 
ATOM     20  C   UNL     1       1.657   5.903  -8.368  0.00  0.00    +0.133 C 
ENDBRANCH  13  15
ENDBRANCH   7   9
BRANCH   1  21
ATOM     21  O   UNL     1       0.423  -2.778  -2.294  0.00  0.00    -0.454 OA
BRANCH  21  25
ATOM     22  C   UNL     1       5.200  -3.675  -2.882  0.00  0.00    +0.046 C 
ATOM     23  C   UNL     1       3.899  -3.831  -2.138  0.00  0.00    -0.026 A 
ATOM     24  C   UNL     1       2.751  -3.204  -2.598  0.00  0.00    +0.053 A 
ATOM     25  C   UNL     1       1.572  -3.373  -1.882  0.00  0.00    +0.156 A 
ATOM     26  C   UNL     1       1.587  -4.167  -0.731  0.00  0.00    +0.131 A 
ATOM     27  N   UNL     1       2.710  -4.747  -0.329  0.00  0.00    -0.246 NA
ATOM     28  C   UNL     1       3.838  -4.606  -0.994  0.00  0.00    +0.042 A 
ATOM     29  C   UNL     1       5.083  -5.294  -0.497  0.00  0.00    +0.066 C 
BRANCH  26  30
ATOM     30  C   UNL     1       0.339  -4.361   0.046  0.00  0.00    +0.093 A 
ATOM     31  C   UNL     1       0.190  -5.495   0.842  0.00  0.00    +0.030 A 
ATOM     32  C   UNL     1      -0.981  -5.662   1.562  0.00  0.00    +0.004 A 
ATOM     33  C   UNL     1      -1.964  -4.688   1.462  0.00  0.00    +0.020 A 
ATOM     34  C   UNL     1      -1.749  -3.587   0.653  0.00  0.00    +0.111 A 
ATOM     35  N   UNL     1      -0.624  -3.450  -0.017  0.00  0.00    -0.253 NA
ENDBRANCH  26  30
ENDBRANCH  21  25
ENDBRANCH   1  21
TORSDOF 5
