REMARK  Name = CHEMBL130025
REMARK  2 active torsions:
REMARK  status: ('A' for Active; 'I' for Inactive)
REMARK    1  A    between atoms: C_7  and  C_11
REMARK    2  A    between atoms: C_16  and  C_17
REMARK                            x       y       z     vdW  Elec       q    Type
REMARK                         _______ _______ _______ _____ _____    ______ ____
ROOT
ATOM      1  C   UNL     1       0.059  -2.916  -0.013  0.00  0.00    +0.028 A 
ATOM      2  C   UNL     1      -0.357  -3.754   0.983  0.00  0.00    +0.114 A 
ATOM      3  N   UNL     1      -1.522  -4.309   0.603  0.00  0.00    -0.284 N 
ATOM      4  H   UNL     1      -2.036  -4.944   1.125  0.00  0.00    +0.188 HD
ATOM      5  N   UNL     1      -1.878  -3.829  -0.661  0.00  0.00    -0.173 NA
ATOM      6  C   UNL     1      -0.955  -2.981  -1.068  0.00  0.00    +0.107 A 
ENDROOT
BRANCH   1  13
ATOM      7  C   UNL     1      -0.016   1.359   0.009  0.00  0.00    +0.001 A 
ATOM      8  C   UNL     1       1.170   2.088   0.002  0.00  0.00    +0.002 A 
ATOM      9  C   UNL     1       2.379   1.462  -0.013  0.00  0.00    +0.028 A 
ATOM     10  C   UNL     1       2.437   0.058  -0.021  0.00  0.00    +0.072 A 
ATOM     11  C   UNL     1       1.229  -0.680  -0.013  0.00  0.00    +0.008 A 
ATOM     12  C   UNL     1       0.002  -0.004   0.002  0.00  0.00    +0.010 A 
ATOM     13  C   UNL     1       1.291  -2.097  -0.021  0.00  0.00    -0.004 A 
ATOM     14  C   UNL     1       2.548  -2.691  -0.037  0.00  0.00    +0.029 A 
ATOM     15  C   UNL     1       3.684  -1.893  -0.044  0.00  0.00    +0.112 A 
ATOM     16  N   UNL     1       3.611  -0.583  -0.036  0.00  0.00    -0.255 NA
ENDBRANCH   1  13
BRANCH   6  17
ATOM     17  C   UNL     1      -0.944  -2.240  -2.346  0.00  0.00    +0.040 A 
ATOM     18  C   UNL     1      -1.395  -2.636  -3.577  0.00  0.00    +0.018 A 
ATOM     19  C   UNL     1      -1.278  -1.764  -4.637  0.00  0.00    +0.008 A 
ATOM     20  C   UNL     1      -0.722  -0.542  -4.430  0.00  0.00    +0.046 A 
ATOM     21  S   UNL     1      -0.346  -0.593  -2.686  0.00  0.00    -0.095 S 
ENDBRANCH   6  17
TORSDOF 2
