REMARK  Name = CHEMBL575721
REMARK  8 active torsions:
REMARK  status: ('A' for Active; 'I' for Inactive)
REMARK    1  A    between atoms: C_1  and  C_2
REMARK    2  A    between atoms: C_4  and  O_15
REMARK    3  A    between atoms: C_5  and  C_9
REMARK    4  A    between atoms: C_7  and  C_8
REMARK    5  A    between atoms: O_15  and  C_16
REMARK    6  A    between atoms: N_22  and  C_23
REMARK    7  A    between atoms: C_27  and  O_29
REMARK    8  A    between atoms: O_29  and  C_30
REMARK                            x       y       z     vdW  Elec       q    Type
REMARK                         _______ _______ _______ _____ _____    ______ ____
ROOT
ATOM      1  C   UNL     1      -0.421  -1.889  -3.402  0.00  0.00    +0.133 A 
ATOM      2  C   UNL     1      -0.381  -2.618  -4.609  0.00  0.00    +0.064 A 
ATOM      3  C   UNL     1      -0.080  -1.996  -5.767  0.00  0.00    +0.088 A 
ATOM      4  N   UNL     1       0.189  -0.661  -5.795  0.00  0.00    -0.346 N 
ATOM      5  C   UNL     1       0.160   0.083  -4.642  0.00  0.00    +0.135 A 
ATOM      6  C   UNL     1      -0.156  -0.535  -3.421  0.00  0.00    +0.092 A 
ATOM      7  N   UNL     1       0.425   1.385  -4.682  0.00  0.00    -0.230 NA
ATOM      8  H   UNL     1       0.404  -0.233  -6.638  0.00  0.00    +0.167 HD
ENDROOT
BRANCH   7   9
ATOM      9  C   UNL     1       0.525   2.096  -3.522  0.00  0.00    +0.070 A 
ATOM     10  C   UNL     1      -0.334   3.174  -3.281  0.00  0.00    +0.028 A 
ATOM     11  C   UNL     1      -0.229   3.890  -2.108  0.00  0.00    +0.006 A 
ATOM     12  C   UNL     1       0.725   3.546  -1.166  0.00  0.00    +0.046 A 
ATOM     13  C   UNL     1       1.583   2.478  -1.394  0.00  0.00    +0.122 A 
ATOM     14  C   UNL     1       1.484   1.748  -2.566  0.00  0.00    +0.073 A 
BRANCH  13  15
ATOM     15  O   UNL     1       2.517   2.147  -0.464  0.00  0.00    -0.495 OA
ATOM     16  C   UNL     1       2.559   2.939   0.724  0.00  0.00    +0.277 C 
ENDBRANCH  13  15
ENDBRANCH   7   9
BRANCH   1  17
ATOM     17  O   UNL     1      -0.723  -2.511  -2.237  0.00  0.00    -0.454 OA
BRANCH  17  21
ATOM     18  C   UNL     1       3.605  -4.786  -2.483  0.00  0.00    +0.046 C 
ATOM     19  C   UNL     1       2.267  -4.539  -1.835  0.00  0.00    -0.026 A 
ATOM     20  C   UNL     1       1.391  -3.609  -2.374  0.00  0.00    +0.053 A 
ATOM     21  C   UNL     1       0.167  -3.412  -1.746  0.00  0.00    +0.156 A 
ATOM     22  C   UNL     1      -0.134  -4.155  -0.600  0.00  0.00    +0.131 A 
ATOM     23  N   UNL     1       0.736  -5.034  -0.121  0.00  0.00    -0.246 NA
ATOM     24  C   UNL     1       1.900  -5.242  -0.702  0.00  0.00    +0.042 A 
ATOM     25  C   UNL     1       2.849  -6.257  -0.119  0.00  0.00    +0.066 C 
BRANCH  22  26
ATOM     26  C   UNL     1      -1.435  -3.959   0.084  0.00  0.00    +0.093 A 
ATOM     27  C   UNL     1      -1.968  -4.985   0.862  0.00  0.00    +0.030 A 
ATOM     28  C   UNL     1      -3.183  -4.788   1.495  0.00  0.00    +0.004 A 
ATOM     29  C   UNL     1      -3.826  -3.569   1.329  0.00  0.00    +0.020 A 
ATOM     30  C   UNL     1      -3.239  -2.595   0.542  0.00  0.00    +0.111 A 
ATOM     31  N   UNL     1      -2.079  -2.806  -0.044  0.00  0.00    -0.253 NA
ENDBRANCH  22  26
ENDBRANCH  17  21
ENDBRANCH   1  17
TORSDOF 5
