REMARK  Name = CHEMBL566877
REMARK  6 active torsions:
REMARK  status: ('A' for Active; 'I' for Inactive)
REMARK    1  A    between atoms: C_1  and  C_2
REMARK    2  A    between atoms: C_6  and  C_8
REMARK    3  A    between atoms: C_9  and  C_23
REMARK    4  A    between atoms: N_13  and  C_14
REMARK    5  A    between atoms: C_14  and  C_15
REMARK    6  A    between atoms: C_18  and  C_21
REMARK                            x       y       z     vdW  Elec       q    Type
REMARK                         _______ _______ _______ _____ _____    ______ ____
ROOT
ATOM      1  C   UNL     1       0.051  -2.683   2.489  0.00  0.00    +0.116 A 
ATOM      2  C   UNL     1       0.518  -2.164   3.689  0.00  0.00    +0.073 A 
ATOM      3  N   UNL     1       0.338  -3.157   4.635  0.00  0.00    -0.326 N 
ATOM      4  C   UNL     1      -0.220  -4.225   3.997  0.00  0.00    +0.194 A 
ATOM      5  N   UNL     1      -0.391  -3.934   2.731  0.00  0.00    -0.212 NA
ATOM      6  N   UNL     1      -0.557  -5.425   4.594  0.00  0.00    -0.311 N 
ATOM      7  H   UNL     1      -0.952  -6.136   4.065  0.00  0.00    +0.149 HD
ATOM      8  H   UNL     1       0.566  -3.104   5.577  0.00  0.00    +0.169 HD
ENDROOT
BRANCH   2   9
ATOM      9  C   UNL     1       1.069  -0.875   3.903  0.00  0.00    -0.019 C 
ATOM     10  C   UNL     1       2.323  -0.618   3.472  0.00  0.00    +0.009 C 
ATOM     11  C   UNL     1       2.918   0.655   3.702  0.00  0.00    +0.044 C 
ATOM     12  C   UNL     1       2.341   1.454   4.601  0.00  0.00    +0.130 C 
ATOM     13  C   UNL     1       1.151   1.050   5.461  0.00  0.00    +0.191 C 
ATOM     14  C   UNL     1       0.237   0.172   4.599  0.00  0.00    +0.077 C 
ATOM     15  O   UNL     1       0.506   2.294   5.778  0.00  0.00    -0.333 OA
ATOM     16  C   UNL     1       1.319   3.321   5.172  0.00  0.00    +0.395 C 
ATOM     17  O   UNL     1       2.623   2.725   4.981  0.00  0.00    -0.468 OA
ENDBRANCH   2   9
BRANCH   1  23
ATOM     18  C   UNL     1      -0.018   1.503   0.010  0.00  0.00    +0.065 C 
ATOM     19  C   UNL     1       0.002  -0.004   0.002  0.00  0.00    +0.039 A 
ATOM     20  C   UNL     1       0.006  -0.679  -1.204  0.00  0.00    +0.023 A 
ATOM     21  C   UNL     1       0.025  -2.068  -1.209  0.00  0.00    +0.004 A 
ATOM     22  C   UNL     1       0.040  -2.733   0.003  0.00  0.00    +0.030 A 
ATOM     23  C   UNL     1       0.035  -1.988   1.185  0.00  0.00    +0.092 A 
ATOM     24  N   UNL     1       0.022  -0.660   1.145  0.00  0.00    -0.250 NA
ENDBRANCH   1  23
BRANCH   6  25
ATOM     25  C   UNL     1      -0.320  -5.623   6.026  0.00  0.00    +0.139 C 
BRANCH  25  26
ATOM     26  C   UNL     1      -0.772  -7.005   6.423  0.00  0.00    -0.030 A 
ATOM     27  C   UNL     1      -2.076  -7.209   6.840  0.00  0.00    +0.006 A 
ATOM     28  C   UNL     1      -2.496  -8.472   7.205  0.00  0.00    +0.017 A 
ATOM     29  C   UNL     1      -1.604  -9.543   7.153  0.00  0.00    +0.025 A 
ATOM     30  C   UNL     1      -0.291  -9.331   6.731  0.00  0.00    +0.017 A 
ATOM     31  C   UNL     1       0.115  -8.064   6.364  0.00  0.00    +0.006 A 
BRANCH  29  32
ATOM     32  C   UNL     1      -2.034 -10.856   7.530  0.00  0.00    -0.070 C 
ATOM     33  C   UNL     1      -2.387 -11.932   7.840  0.00  0.00    +0.009 C 
ENDBRANCH  29  32
ENDBRANCH  25  26
ENDBRANCH   6  25
TORSDOF 5
