REMARK  Name = CHEMBL229599
REMARK  7 active torsions:
REMARK  status: ('A' for Active; 'I' for Inactive)
REMARK    1  A    between atoms: C_1  and  C_2
REMARK    2  A    between atoms: C_6  and  C_8
REMARK    3  A    between atoms: C_9  and  C_25
REMARK    4  A    between atoms: C_11  and  C_14
REMARK    5  A    between atoms: C_14  and  N_15
REMARK    6  A    between atoms: N_15  and  C_16
REMARK    7  A    between atoms: C_20  and  C_22
REMARK                            x       y       z     vdW  Elec       q    Type
REMARK                         _______ _______ _______ _____ _____    ______ ____
ROOT
ATOM      1  C   UNL     1       0.050  -2.682   2.487  0.00  0.00    +0.093 A 
ATOM      2  C   UNL     1       0.512  -2.179   3.691  0.00  0.00    +0.098 A 
ATOM      3  N   UNL     1       0.340  -3.139   4.619  0.00  0.00    -0.230 NA
ATOM      4  C   UNL     1      -0.194  -4.191   4.064  0.00  0.00    +0.125 A 
ATOM      5  N   UNL     1      -0.397  -3.956   2.750  0.00  0.00    -0.339 N 
ATOM      6  H   UNL     1      -0.784  -4.573   2.109  0.00  0.00    +0.167 HD
ENDROOT
BRANCH   2   7
ATOM      7  C   UNL     1       1.088  -0.834   3.917  0.00  0.00    +0.005 A 
ATOM      8  C   UNL     1       1.867  -0.231   2.913  0.00  0.00    +0.012 A 
ATOM      9  C   UNL     1       2.406   1.000   3.096  0.00  0.00    +0.030 A 
ATOM     10  C   UNL     1       2.190   1.692   4.302  0.00  0.00    +0.089 A 
ATOM     11  C   UNL     1       1.406   1.094   5.323  0.00  0.00    +0.090 A 
ATOM     12  C   UNL     1       0.853  -0.178   5.112  0.00  0.00    +0.040 A 
ATOM     13  N   UNL     1       1.200   1.753   6.470  0.00  0.00    -0.252 NA
ATOM     14  C   UNL     1       1.725   2.945   6.639  0.00  0.00    +0.131 A 
ATOM     15  C   UNL     1       2.496   3.533   5.635  0.00  0.00    +0.131 A 
ATOM     16  N   UNL     1       2.712   2.907   4.500  0.00  0.00    -0.252 NA
ENDBRANCH   2   7
BRANCH   1  22
ATOM     17  C   UNL     1      -0.018   1.503   0.010  0.00  0.00    +0.065 C 
ATOM     18  C   UNL     1       0.002  -0.004   0.002  0.00  0.00    +0.039 A 
ATOM     19  C   UNL     1       0.005  -0.679  -1.205  0.00  0.00    +0.023 A 
ATOM     20  C   UNL     1       0.024  -2.067  -1.210  0.00  0.00    +0.004 A 
ATOM     21  C   UNL     1       0.039  -2.733   0.003  0.00  0.00    +0.030 A 
ATOM     22  C   UNL     1       0.035  -1.988   1.184  0.00  0.00    +0.090 A 
ATOM     23  N   UNL     1       0.022  -0.659   1.144  0.00  0.00    -0.250 NA
ENDBRANCH   1  22
BRANCH   4  24
ATOM     24  C   UNL     1      -0.536  -5.472   4.781  0.00  0.00    +0.175 C 
BRANCH  24  25
ATOM     25  N   UNL     1       0.649  -6.331   4.840  0.00  0.00    -0.337 N 
ATOM     26  H   UNL     1       1.484  -6.032   4.448  0.00  0.00    +0.147 HD
BRANCH  25  27
ATOM     27  C   UNL     1       0.576  -7.580   5.461  0.00  0.00    +0.028 A 
ATOM     28  C   UNL     1      -0.623  -8.011   6.018  0.00  0.00    +0.023 A 
ATOM     29  C   UNL     1      -0.700  -9.245   6.634  0.00  0.00    +0.003 A 
ATOM     30  C   UNL     1       0.413 -10.060   6.699  0.00  0.00    +0.013 A 
ATOM     31  C   UNL     1       1.621  -9.637   6.143  0.00  0.00    +0.038 A 
ATOM     32  C   UNL     1       1.698  -8.393   5.518  0.00  0.00    +0.036 A 
BRANCH  31  33
ATOM     33  C   UNL     1       2.814 -10.507   6.213  0.00  0.00    +0.242 C 
ATOM     34  O   UNL     1       3.866 -10.137   5.728  0.00  0.00    -0.270 OA
ATOM     35  N   UNL     1       2.736 -11.711   6.814  0.00  0.00    -0.325 N 
ATOM     36  H   UNL     1       1.897 -12.007   7.201  0.00  0.00    +0.145 HD
ATOM     37  H   UNL     1       3.519 -12.282   6.860  0.00  0.00    +0.145 HD
ENDBRANCH  31  33
ENDBRANCH  25  27
ENDBRANCH  24  25
ENDBRANCH   4  24
TORSDOF 6
