REMARK  Name = CHEMBL204211
REMARK  6 active torsions:
REMARK  status: ('A' for Active; 'I' for Inactive)
REMARK    1  A    between atoms: C_5  and  C_7
REMARK    2  A    between atoms: C_8  and  C_13
REMARK    3  A    between atoms: C_17  and  C_19
REMARK    4  A    between atoms: C_22  and  C_25
REMARK    5  A    between atoms: C_25  and  N_26
REMARK    6  A    between atoms: N_26  and  C_27
REMARK                            x       y       z     vdW  Elec       q    Type
REMARK                         _______ _______ _______ _____ _____    ______ ____
ROOT
ATOM      1  C   UNL     1       3.590  -2.468  -1.117  0.00  0.00    -0.011 A 
ATOM      2  C   UNL     1       3.579  -1.505  -2.132  0.00  0.00    +0.028 A 
ATOM      3  C   UNL     1       4.777  -1.078  -2.668  0.00  0.00    +0.112 A 
ATOM      4  N   UNL     1       5.925  -1.563  -2.238  0.00  0.00    -0.255 NA
ATOM      5  C   UNL     1       5.984  -2.478  -1.277  0.00  0.00    +0.072 A 
ATOM      6  C   UNL     1       4.823  -2.957  -0.681  0.00  0.00    +0.037 A 
ENDROOT
BRANCH   1   8
ATOM      7  C   UNL     1       1.267  -2.146  -0.022  0.00  0.00    +0.118 A 
ATOM      8  C   UNL     1       2.324  -2.953  -0.516  0.00  0.00    +0.029 A 
ATOM      9  C   UNL     1       1.963  -4.255  -0.337  0.00  0.00    +0.114 A 
ATOM     10  N   UNL     1       0.744  -4.271   0.238  0.00  0.00    -0.284 N 
ATOM     11  H   UNL     1       0.242  -5.064   0.481  0.00  0.00    +0.188 HD
ATOM     12  N   UNL     1       0.328  -2.948   0.432  0.00  0.00    -0.172 NA
BRANCH   7  17
ATOM     13  C   UNL     1      -0.017   1.379   0.010  0.00  0.00    +0.004 A 
ATOM     14  C   UNL     1       1.194   2.059   0.002  0.00  0.00    +0.020 A 
ATOM     15  C   UNL     1       2.374   1.340  -0.013  0.00  0.00    +0.111 A 
ATOM     16  N   UNL     1       2.365   0.022  -0.020  0.00  0.00    -0.253 NA
ATOM     17  C   UNL     1       1.230  -0.665  -0.013  0.00  0.00    +0.091 A 
ATOM     18  C   UNL     1       0.002  -0.004   0.002  0.00  0.00    +0.030 A 
ENDBRANCH   7  17
ENDBRANCH   1   8
BRANCH   5  19
ATOM     19  C   UNL     1       7.303  -2.990  -0.832  0.00  0.00    +0.000 A 
ATOM     20  C   UNL     1       7.376  -3.954   0.172  0.00  0.00    +0.010 A 
ATOM     21  C   UNL     1       8.606  -4.428   0.583  0.00  0.00    +0.002 A 
ATOM     22  C   UNL     1       9.765  -3.946   0.000  0.00  0.00    -0.064 A 
ATOM     23  C   UNL     1       9.698  -2.989  -0.996  0.00  0.00    +0.002 A 
ATOM     24  C   UNL     1       8.474  -2.513  -1.419  0.00  0.00    +0.010 A 
BRANCH  22  25
ATOM     25  C   UNL     1      11.104  -4.467   0.453  0.00  0.00    -0.046 C 
BRANCH  25  26
ATOM     26  N   UNL     1      11.475  -5.636  -0.356  0.00  0.00    +0.384 N 
ATOM     27  H   UNL     1      10.778  -6.357  -0.243  0.00  0.00    -0.085 HD
ATOM     28  H   UNL     1      11.528  -5.369  -1.327  0.00  0.00    -0.085 HD
BRANCH  26  29
ATOM     29  C   UNL     1      12.781  -6.143   0.086  0.00  0.00    -0.067 C 
ATOM     30  C   UNL     1      13.862  -5.100  -0.210  0.00  0.00    +0.012 C 
ATOM     31  C   UNL     1      15.229  -5.668   0.181  0.00  0.00    +0.158 C 
ATOM     32  O   UNL     1      15.460  -6.883  -0.535  0.00  0.00    -0.380 OA
ATOM     33  C   UNL     1      14.507  -7.912  -0.262  0.00  0.00    +0.158 C 
ATOM     34  C   UNL     1      13.111  -7.434  -0.670  0.00  0.00    +0.012 C 
ENDBRANCH  26  29
ENDBRANCH  25  26
ENDBRANCH  22  25
ENDBRANCH   5  19
TORSDOF 6
