REMARK  Name = CHEMBL574415
REMARK  11 active torsions:
REMARK  status: ('A' for Active; 'I' for Inactive)
REMARK    1  A    between atoms: C_1  and  C_2
REMARK    2  A    between atoms: C_5  and  O_9
REMARK    3  A    between atoms: C_6  and  C_8
REMARK    4  A    between atoms: O_9  and  C_10
REMARK    5  A    between atoms: N_16  and  C_17
REMARK    6  A    between atoms: C_19  and  O_27
REMARK    7  A    between atoms: C_20  and  O_25
REMARK    8  A    between atoms: C_21  and  O_23
REMARK    9  A    between atoms: O_23  and  C_24
REMARK   10  A    between atoms: O_25  and  C_26
REMARK   11  A    between atoms: O_27  and  C_28
REMARK                            x       y       z     vdW  Elec       q    Type
REMARK                         _______ _______ _______ _____ _____    ______ ____
ROOT
ATOM      1  C   UNL     1       0.496  -4.701  -1.156  0.00  0.00    +0.133 A 
ATOM      2  C   UNL     1       0.714  -6.089  -1.280  0.00  0.00    +0.064 A 
ATOM      3  C   UNL     1       0.772  -6.660  -2.500  0.00  0.00    +0.088 A 
ATOM      4  N   UNL     1       0.622  -5.914  -3.630  0.00  0.00    -0.346 N 
ATOM      5  C   UNL     1       0.408  -4.559  -3.551  0.00  0.00    +0.135 A 
ATOM      6  C   UNL     1       0.337  -3.937  -2.292  0.00  0.00    +0.092 A 
ATOM      7  N   UNL     1       0.263  -3.841  -4.659  0.00  0.00    -0.230 NA
ATOM      8  H   UNL     1       0.668  -6.343  -4.499  0.00  0.00    +0.167 HD
ENDROOT
BRANCH   7   9
ATOM      9  C   UNL     1       0.204  -4.463  -5.873  0.00  0.00    +0.073 A 
ATOM     10  C   UNL     1      -0.746  -5.462  -6.103  0.00  0.00    +0.077 A 
ATOM     11  C   UNL     1      -0.803  -6.091  -7.335  0.00  0.00    +0.167 A 
ATOM     12  C   UNL     1       0.084  -5.730  -8.343  0.00  0.00    +0.204 A 
ATOM     13  C   UNL     1       1.031  -4.736  -8.118  0.00  0.00    +0.167 A 
ATOM     14  C   UNL     1       1.090  -4.099  -6.891  0.00  0.00    +0.077 A 
BRANCH  13  15
ATOM     15  O   UNL     1       1.897  -4.387  -9.107  0.00  0.00    -0.491 OA
ATOM     16  C   UNL     1       2.843  -3.359  -8.808  0.00  0.00    +0.277 C 
ENDBRANCH  13  15
BRANCH  12  17
ATOM     17  O   UNL     1       0.026  -6.351  -9.554  0.00  0.00    -0.488 OA
ATOM     18  C   UNL     1      -0.827  -5.768 -10.542  0.00  0.00    +0.277 C 
ENDBRANCH  12  17
BRANCH  11  19
ATOM     19  O   UNL     1      -1.727  -7.063  -7.559  0.00  0.00    -0.491 OA
ATOM     20  C   UNL     1      -2.606  -7.384  -6.480  0.00  0.00    +0.277 C 
ENDBRANCH  11  19
ENDBRANCH   7   9
BRANCH   1  21
ATOM     21  O   UNL     1       0.438  -4.125   0.070  0.00  0.00    -0.454 OA
BRANCH  21  26
ATOM     22  C   UNL     1       5.022  -3.974   3.259  0.00  0.00    +0.065 C 
ATOM     23  C   UNL     1       3.799  -4.024   2.381  0.00  0.00    +0.039 A 
ATOM     24  C   UNL     1       3.905  -4.510   1.091  0.00  0.00    +0.026 A 
ATOM     25  C   UNL     1       2.776  -4.554   0.289  0.00  0.00    +0.050 A 
ATOM     26  C   UNL     1       1.571  -4.102   0.819  0.00  0.00    +0.149 A 
ATOM     27  C   UNL     1       1.544  -3.628   2.122  0.00  0.00    +0.081 A 
ATOM     28  N   UNL     1       2.640  -3.608   2.854  0.00  0.00    -0.253 NA
ATOM     29  C   UNL     1       0.246  -3.136   2.710  0.00  0.00    +0.069 C 
ENDBRANCH  21  26
ENDBRANCH   1  21
TORSDOF 6
