REMARK  Name = CHEMBL594600
REMARK  4 active torsions:
REMARK  status: ('A' for Active; 'I' for Inactive)
REMARK    1  A    between atoms: C_1  and  N_2
REMARK    2  A    between atoms: C_3  and  C_18
REMARK    3  A    between atoms: C_4  and  C_9
REMARK    4  A    between atoms: N_7  and  C_8
REMARK                            x       y       z     vdW  Elec       q    Type
REMARK                         _______ _______ _______ _____ _____    ______ ____
ROOT
ATOM      1  C   UNL     1       0.093   1.448  -0.254  0.00  0.00    +0.171 C 
ATOM      2  N   UNL     1       0.051  -0.010  -0.114  0.00  0.00    -0.283 N 
ATOM      3  C   UNL     1      -1.085  -0.778  -0.152  0.00  0.00    +0.078 A 
ATOM      4  C   UNL     1      -0.712  -2.104   0.016  0.00  0.00    +0.073 A 
ATOM      5  C   UNL     1       0.747  -2.115   0.164  0.00  0.00    +0.275 A 
ATOM      6  O   UNL     1       1.450  -3.095   0.331  0.00  0.00    -0.266 OA
ATOM      7  N   UNL     1       1.164  -0.836   0.073  0.00  0.00    -0.252 N 
ATOM      8  C   UNL     1       2.555  -0.385   0.160  0.00  0.00    +0.174 C 
ENDROOT
BRANCH   3   9
ATOM      9  C   UNL     1      -2.461  -0.281  -0.339  0.00  0.00    +0.003 A 
ATOM     10  C   UNL     1      -3.312  -0.911  -1.268  0.00  0.00    +0.012 A 
ATOM     11  C   UNL     1      -4.581  -0.471  -1.457  0.00  0.00    +0.030 A 
ATOM     12  C   UNL     1      -5.065   0.627  -0.721  0.00  0.00    +0.089 A 
ATOM     13  C   UNL     1      -4.219   1.270   0.218  0.00  0.00    +0.090 A 
ATOM     14  C   UNL     1      -2.910   0.799   0.405  0.00  0.00    +0.040 A 
ATOM     15  N   UNL     1      -4.680   2.314   0.917  0.00  0.00    -0.252 NA
ATOM     16  C   UNL     1      -5.911   2.732   0.728  0.00  0.00    +0.131 A 
ATOM     17  C   UNL     1      -6.744   2.098  -0.197  0.00  0.00    +0.131 A 
ATOM     18  N   UNL     1      -6.314   1.072  -0.895  0.00  0.00    -0.252 NA
ENDBRANCH   3   9
BRANCH   4  19
ATOM     19  C   UNL     1      -1.610  -3.277   0.042  0.00  0.00    -0.008 A 
ATOM     20  C   UNL     1      -2.536  -3.408   1.100  0.00  0.00    +0.011 A 
ATOM     21  C   UNL     1      -3.382  -4.457   1.177  0.00  0.00    +0.034 A 
ATOM     22  C   UNL     1      -3.342  -5.488   0.138  0.00  0.00    +0.134 A 
ATOM     23  C   UNL     1      -2.369  -5.339  -0.963  0.00  0.00    +0.135 A 
ATOM     24  C   UNL     1      -1.523  -4.206  -0.969  0.00  0.00    +0.042 A 
ATOM     25  N   UNL     1      -2.508  -6.367  -1.770  0.00  0.00    -0.049 NA
ATOM     26  O   UNL     1      -3.534  -7.195  -1.250  0.00  0.00    -0.242 OA
ATOM     27  N   UNL     1      -4.016  -6.595  -0.059  0.00  0.00    -0.049 NA
ENDBRANCH   4  19
TORSDOF 2
