REMARK  Name = CHEMBL574413
REMARK  8 active torsions:
REMARK  status: ('A' for Active; 'I' for Inactive)
REMARK    1  A    between atoms: C_1  and  C_2
REMARK    2  A    between atoms: C_4  and  O_15
REMARK    3  A    between atoms: C_5  and  C_9
REMARK    4  A    between atoms: C_7  and  C_8
REMARK    5  A    between atoms: O_15  and  C_16
REMARK    6  A    between atoms: C_20  and  N_22
REMARK    7  A    between atoms: N_22  and  C_23
REMARK    8  A    between atoms: C_27  and  N_29
REMARK                            x       y       z     vdW  Elec       q    Type
REMARK                         _______ _______ _______ _____ _____    ______ ____
ROOT
ATOM      1  C   UNL     1      -0.786  -2.116  -3.628  0.00  0.00    +0.133 A 
ATOM      2  C   UNL     1      -0.846  -0.734  -3.802  0.00  0.00    +0.064 A 
ATOM      3  C   UNL     1      -0.695  -0.206  -5.066  0.00  0.00    +0.088 A 
ATOM      4  N   UNL     1      -0.495  -0.991  -6.109  0.00  0.00    -0.349 N 
ATOM      5  C   UNL     1      -0.431  -2.309  -5.988  0.00  0.00    +0.104 A 
ATOM      6  C   UNL     1      -0.568  -2.913  -4.745  0.00  0.00    +0.088 A 
ATOM      7  H   UNL     1      -0.393  -0.592  -6.987  0.00  0.00    +0.167 HD
ENDROOT
BRANCH   5   8
ATOM      8  N   UNL     1      -0.219  -3.095  -7.116  0.00  0.00    -0.301 N 
ATOM      9  H   UNL     1       0.009  -2.678  -7.962  0.00  0.00    +0.154 HD
BRANCH   8  10
ATOM     10  C   UNL     1      -0.335  -4.485  -7.032  0.00  0.00    +0.034 A 
ATOM     11  C   UNL     1      -1.370  -5.054  -6.298  0.00  0.00    +0.023 A 
ATOM     12  C   UNL     1      -1.484  -6.428  -6.213  0.00  0.00    +0.004 A 
ATOM     13  C   UNL     1      -0.572  -7.241  -6.857  0.00  0.00    +0.023 A 
ATOM     14  C   UNL     1       0.465  -6.679  -7.593  0.00  0.00    +0.032 A 
ATOM     15  C   UNL     1       0.580  -5.299  -7.684  0.00  0.00    +0.046 A 
BRANCH  14  16
ATOM     16  N   UNL     1       1.387  -7.503  -8.243  0.00  0.00    -0.325 N 
ATOM     17  C   UNL     1       2.565  -6.935  -8.917  0.00  0.00    +0.133 C 
ATOM     18  C   UNL     1       3.809  -7.691  -8.434  0.00  0.00    +0.178 C 
ATOM     19  O   UNL     1       3.599  -9.095  -8.598  0.00  0.00    -0.377 OA
ATOM     20  C   UNL     1       2.518  -9.620  -7.824  0.00  0.00    +0.178 C 
ATOM     21  C   UNL     1       1.211  -8.963  -8.270  0.00  0.00    +0.133 C 
ENDBRANCH  14  16
ENDBRANCH   8  10
ENDBRANCH   5   8
BRANCH   1  22
ATOM     22  O   UNL     1      -0.930  -2.669  -2.397  0.00  0.00    -0.454 OA
BRANCH  22  26
ATOM     23  C   UNL     1      -5.736  -1.790  -2.712  0.00  0.00    +0.046 C 
ATOM     24  C   UNL     1      -4.530  -2.354  -2.005  0.00  0.00    -0.026 A 
ATOM     25  C   UNL     1      -3.269  -2.231  -2.568  0.00  0.00    +0.053 A 
ATOM     26  C   UNL     1      -2.183  -2.765  -1.884  0.00  0.00    +0.156 A 
ATOM     27  C   UNL     1      -2.403  -3.402  -0.658  0.00  0.00    +0.131 A 
ATOM     28  N   UNL     1      -3.628  -3.495  -0.158  0.00  0.00    -0.246 NA
ATOM     29  C   UNL     1      -4.671  -2.993  -0.786  0.00  0.00    +0.042 A 
ATOM     30  C   UNL     1      -6.040  -3.122  -0.170  0.00  0.00    +0.066 C 
BRANCH  27  31
ATOM     31  C   UNL     1      -1.258  -3.978   0.087  0.00  0.00    +0.093 A 
ATOM     32  C   UNL     1      -1.343  -4.138   1.469  0.00  0.00    +0.030 A 
ATOM     33  C   UNL     1      -0.267  -4.678   2.151  0.00  0.00    +0.004 A 
ATOM     34  C   UNL     1       0.862  -5.039   1.429  0.00  0.00    +0.020 A 
ATOM     35  C   UNL     1       0.878  -4.852   0.059  0.00  0.00    +0.111 A 
ATOM     36  N   UNL     1      -0.162  -4.341  -0.567  0.00  0.00    -0.253 NA
ENDBRANCH  27  31
ENDBRANCH  22  26
ENDBRANCH   1  22
TORSDOF 6
