REMARK  Name = CHEMBL567505
REMARK  8 active torsions:
REMARK  status: ('A' for Active; 'I' for Inactive)
REMARK    1  A    between atoms: C_1  and  C_2
REMARK    2  A    between atoms: C_2  and  C_3
REMARK    3  A    between atoms: C_7  and  C_9
REMARK    4  A    between atoms: C_10  and  C_25
REMARK    5  A    between atoms: C_12  and  C_15
REMARK    6  A    between atoms: C_15  and  N_16
REMARK    7  A    between atoms: N_16  and  C_17
REMARK    8  A    between atoms: C_20  and  C_23
REMARK                            x       y       z     vdW  Elec       q    Type
REMARK                         _______ _______ _______ _____ _____    ______ ____
ROOT
ATOM      1  C   UNL     1       0.412   0.091  -4.821  0.00  0.00    +0.093 A 
ATOM      2  C   UNL     1      -0.903   0.358  -5.161  0.00  0.00    +0.098 A 
ATOM      3  N   UNL     1      -0.926   0.646  -6.475  0.00  0.00    -0.230 NA
ATOM      4  C   UNL     1       0.282   0.573  -6.961  0.00  0.00    +0.125 A 
ATOM      5  N   UNL     1       1.144   0.239  -5.977  0.00  0.00    -0.339 N 
ATOM      6  H   UNL     1       2.103   0.123  -6.069  0.00  0.00    +0.167 HD
ENDROOT
BRANCH   2   7
ATOM      7  C   UNL     1      -2.068   0.332  -4.247  0.00  0.00    +0.000 C 
ATOM      8  C   UNL     1      -2.802   1.438  -4.061  0.00  0.00    +0.011 C 
ATOM      9  C   UNL     1      -3.972   1.432  -3.116  0.00  0.00    +0.149 C 
ATOM     10  C   UNL     1      -4.639   0.064  -3.085  0.00  0.00    +0.106 C 
ATOM     11  C   UNL     1      -3.621  -1.036  -2.983  0.00  0.00    -0.005 C 
ATOM     12  C   UNL     1      -2.429  -0.914  -3.543  0.00  0.00    +0.007 C 
ATOM     13  N   UNL     1      -5.442  -0.112  -4.305  0.00  0.00    -0.303 NA
ATOM     14  C   UNL     1      -6.558   0.843  -4.317  0.00  0.00    +0.128 C 
ATOM     15  C   UNL     1      -6.052   2.227  -4.028  0.00  0.00    +0.093 C 
ATOM     16  N   UNL     1      -4.926   2.465  -3.501  0.00  0.00    -0.285 NA
ATOM     17  H   UNL     1      -4.871  -0.012  -5.131  0.00  0.00    +0.123 HD
ENDBRANCH   2   7
BRANCH   1  22
ATOM     18  C   UNL     1       0.692  -0.197  -1.190  0.00  0.00    +0.042 A 
ATOM     19  C   UNL     1       1.850  -0.931  -1.010  0.00  0.00    +0.023 A 
ATOM     20  C   UNL     1       2.572  -1.350  -2.119  0.00  0.00    +0.004 A 
ATOM     21  C   UNL     1       2.103  -1.017  -3.377  0.00  0.00    +0.030 A 
ATOM     22  C   UNL     1       0.926  -0.274  -3.487  0.00  0.00    +0.090 A 
ATOM     23  N   UNL     1       0.263   0.104  -2.398  0.00  0.00    -0.250 NA
BRANCH  18  25
ATOM     24  C   UNL     1      -0.289   1.775  -0.051  0.00  0.00    +0.010 C 
ATOM     25  C   UNL     1      -0.093   0.259   0.012  0.00  0.00    +0.052 C 
ENDBRANCH  18  25
ENDBRANCH   1  22
BRANCH   4  26
ATOM     26  C   UNL     1       0.658   0.829  -8.397  0.00  0.00    +0.175 C 
BRANCH  26  27
ATOM     27  N   UNL     1       0.468  -0.397  -9.177  0.00  0.00    -0.337 N 
ATOM     28  H   UNL     1       0.144  -1.202  -8.744  0.00  0.00    +0.147 HD
BRANCH  27  29
ATOM     29  C   UNL     1       0.752  -0.406 -10.540  0.00  0.00    +0.028 A 
ATOM     30  C   UNL     1       1.223   0.749 -11.158  0.00  0.00    +0.024 A 
ATOM     31  C   UNL     1       1.505   0.743 -12.506  0.00  0.00    +0.020 A 
ATOM     32  C   UNL     1       1.319  -0.424 -13.252  0.00  0.00    +0.052 A 
ATOM     33  C   UNL     1       0.846  -1.582 -12.628  0.00  0.00    +0.020 A 
ATOM     34  C   UNL     1       0.571  -1.571 -11.279  0.00  0.00    +0.024 A 
BRANCH  32  35
ATOM     35  C   UNL     1       1.611  -0.433 -14.654  0.00  0.00    +0.099 C 
ATOM     36  N   UNL     1       1.842  -0.440 -15.767  0.00  0.00    -0.191 NA
ENDBRANCH  32  35
ENDBRANCH  27  29
ENDBRANCH  26  27
ENDBRANCH   4  26
TORSDOF 7
