REMARK  Name = CHEMBL340203
REMARK  2 active torsions:
REMARK  status: ('A' for Active; 'I' for Inactive)
REMARK    1  A    between atoms: C_7  and  C_11
REMARK    2  A    between atoms: C_16  and  C_17
REMARK                            x       y       z     vdW  Elec       q    Type
REMARK                         _______ _______ _______ _____ _____    ______ ____
ROOT
ATOM      1  C   UNL     1       0.059  -2.916  -0.013  0.00  0.00    +0.029 A 
ATOM      2  C   UNL     1      -0.357  -3.754   0.982  0.00  0.00    +0.114 A 
ATOM      3  N   UNL     1      -1.522  -4.308   0.602  0.00  0.00    -0.284 N 
ATOM      4  H   UNL     1      -2.037  -4.944   1.124  0.00  0.00    +0.188 HD
ATOM      5  N   UNL     1      -1.877  -3.827  -0.662  0.00  0.00    -0.172 NA
ATOM      6  C   UNL     1      -0.955  -2.981  -1.067  0.00  0.00    +0.118 A 
ENDROOT
BRANCH   1  13
ATOM      7  C   UNL     1      -0.016   1.359   0.009  0.00  0.00    +0.001 A 
ATOM      8  C   UNL     1       1.170   2.088   0.002  0.00  0.00    +0.002 A 
ATOM      9  C   UNL     1       2.379   1.462  -0.013  0.00  0.00    +0.028 A 
ATOM     10  C   UNL     1       2.437   0.058  -0.021  0.00  0.00    +0.072 A 
ATOM     11  C   UNL     1       1.229  -0.680  -0.013  0.00  0.00    +0.008 A 
ATOM     12  C   UNL     1       0.002  -0.004   0.002  0.00  0.00    +0.010 A 
ATOM     13  C   UNL     1       1.291  -2.097  -0.021  0.00  0.00    -0.004 A 
ATOM     14  C   UNL     1       2.548  -2.691  -0.037  0.00  0.00    +0.029 A 
ATOM     15  C   UNL     1       3.684  -1.893  -0.044  0.00  0.00    +0.112 A 
ATOM     16  N   UNL     1       3.611  -0.582  -0.036  0.00  0.00    -0.255 NA
ENDBRANCH   1  13
BRANCH   6  17
ATOM     17  C   UNL     1      -0.942  -2.238  -2.350  0.00  0.00    +0.092 A 
ATOM     18  C   UNL     1      -1.639  -2.741  -3.447  0.00  0.00    +0.033 A 
ATOM     19  C   UNL     1      -1.619  -2.037  -4.638  0.00  0.00    +0.042 A 
ATOM     20  C   UNL     1      -0.900  -0.849  -4.693  0.00  0.00    +0.141 A 
ATOM     21  C   UNL     1      -0.231  -0.407  -3.564  0.00  0.00    +0.149 A 
ATOM     22  N   UNL     1      -0.273  -1.096  -2.441  0.00  0.00    -0.251 NA
ATOM     23  F   UNL     1      -0.855  -0.131  -5.837  0.00  0.00    -0.204 F 
ENDBRANCH   6  17
TORSDOF 2
