REMARK  Name = CHEMBL406411
REMARK  8 active torsions:
REMARK  status: ('A' for Active; 'I' for Inactive)
REMARK    1  A    between atoms: C_1  and  N_2
REMARK    2  A    between atoms: C_6  and  C_7
REMARK    3  A    between atoms: C_7  and  C_8
REMARK    4  A    between atoms: C_8  and  C_9
REMARK    5  A    between atoms: C_9  and  O_10
REMARK    6  A    between atoms: O_10  and  C_11
REMARK    7  A    between atoms: C_15  and  C_21
REMARK    8  A    between atoms: C_25  and  C_26
REMARK                            x       y       z     vdW  Elec       q    Type
REMARK                         _______ _______ _______ _____ _____    ______ ____
ROOT
ATOM      1  C   UNL     1       6.352   1.210  -0.593  0.00  0.00    +0.123 A 
ATOM      2  C   UNL     1       6.961  -0.049  -0.574  0.00  0.00    +0.046 A 
ATOM      3  C   UNL     1       8.272  -0.193  -0.909  0.00  0.00    +0.014 A 
ATOM      4  C   UNL     1       9.026   0.930  -1.278  0.00  0.00    +0.008 A 
ATOM      5  C   UNL     1      10.393   0.813  -1.633  0.00  0.00    -0.003 A 
ATOM      6  C   UNL     1      11.073   1.972  -1.988  0.00  0.00    +0.029 A 
ATOM      7  C   UNL     1      10.404   3.189  -1.985  0.00  0.00    +0.112 A 
ATOM      8  N   UNL     1       9.138   3.283  -1.653  0.00  0.00    -0.255 NA
ATOM      9  C   UNL     1       8.420   2.209  -1.301  0.00  0.00    +0.075 A 
ATOM     10  C   UNL     1       7.064   2.330  -0.957  0.00  0.00    +0.074 A 
ENDROOT
BRANCH   5  11
ATOM     11  C   UNL     1      11.075  -0.500  -1.626  0.00  0.00    +0.033 A 
ATOM     12  C   UNL     1      11.171  -1.377  -2.671  0.00  0.00    +0.048 A 
ATOM     13  N   UNL     1      11.872  -2.449  -2.262  0.00  0.00    -0.267 N 
ATOM     14  N   UNL     1      12.237  -2.270  -0.916  0.00  0.00    -0.169 NA
ATOM     15  C   UNL     1      11.783  -1.110  -0.501  0.00  0.00    +0.119 A 
ATOM     16  C   UNL     1      12.017  -3.430  -3.352  0.00  0.00    +0.144 C 
ATOM     17  C   UNL     1      10.945  -3.052  -4.396  0.00  0.00    +0.029 C 
ATOM     18  C   UNL     1      10.757  -1.543  -4.119  0.00  0.00    +0.057 C 
BRANCH  15  19
ATOM     19  C   UNL     1      11.953  -0.531   0.853  0.00  0.00    +0.091 A 
ATOM     20  C   UNL     1      12.171  -1.372   1.943  0.00  0.00    +0.030 A 
ATOM     21  C   UNL     1      12.328  -0.817   3.200  0.00  0.00    +0.004 A 
ATOM     22  C   UNL     1      12.260   0.564   3.328  0.00  0.00    +0.020 A 
ATOM     23  C   UNL     1      12.041   1.339   2.204  0.00  0.00    +0.111 A 
ATOM     24  N   UNL     1      11.900   0.785   1.017  0.00  0.00    -0.253 NA
ENDBRANCH  15  19
ENDBRANCH   5  11
BRANCH   1  25
ATOM     25  O   UNL     1       5.042   1.327  -0.255  0.00  0.00    -0.492 OA
BRANCH  25  26
ATOM     26  C   UNL     1       4.357   0.128   0.113  0.00  0.00    +0.229 C 
BRANCH  26  27
ATOM     27  C   UNL     1       2.903   0.457   0.459  0.00  0.00    +0.039 C 
BRANCH  27  28
ATOM     28  C   UNL     1       2.170  -0.827   0.853  0.00  0.00    -0.012 C 
BRANCH  28  34
ATOM     29  C   UNL     1      -0.018   1.465   0.010  0.00  0.00    -0.096 C 
ATOM     30  N   UNL     1       0.002  -0.004   0.002  0.00  0.00    +0.380 N 
ATOM     31  C   UNL     1      -1.379  -0.519   0.034  0.00  0.00    -0.079 C 
ATOM     32  C   UNL     1      -1.513  -1.393   1.299  0.00  0.00    -0.020 C 
ATOM     33  C   UNL     1      -0.044  -1.784   1.610  0.00  0.00    -0.017 C 
ATOM     34  C   UNL     1       0.716  -0.499   1.198  0.00  0.00    -0.069 C 
ATOM     35  H   UNL     1       0.466  -0.334  -0.831  0.00  0.00    -0.082 HD
ENDBRANCH  28  34
ENDBRANCH  27  28
ENDBRANCH  26  27
ENDBRANCH  25  26
ENDBRANCH   1  25
TORSDOF 7
