REMARK  Name = CHEMBL492634
REMARK  6 active torsions:
REMARK  status: ('A' for Active; 'I' for Inactive)
REMARK    1  A    between atoms: C_1  and  C_2
REMARK    2  A    between atoms: C_6  and  C_8
REMARK    3  A    between atoms: C_9  and  C_24
REMARK    4  A    between atoms: C_11  and  C_14
REMARK    5  A    between atoms: C_14  and  C_15
REMARK    6  A    between atoms: C_19  and  C_21
REMARK                            x       y       z     vdW  Elec       q    Type
REMARK                         _______ _______ _______ _____ _____    ______ ____
ROOT
ATOM      1  C   UNL     1       0.050  -2.682   2.491  0.00  0.00    +0.115 A 
ATOM      2  C   UNL     1       0.515  -2.166   3.688  0.00  0.00    +0.076 A 
ATOM      3  N   UNL     1       0.335  -3.153   4.628  0.00  0.00    -0.341 N 
ATOM      4  C   UNL     1      -0.220  -4.216   3.995  0.00  0.00    +0.113 A 
ATOM      5  N   UNL     1      -0.392  -3.931   2.735  0.00  0.00    -0.230 NA
ATOM      6  H   UNL     1       0.563  -3.099   5.569  0.00  0.00    +0.167 HD
ENDROOT
BRANCH   2   7
ATOM      7  C   UNL     1       1.089  -0.825   3.911  0.00  0.00    +0.003 A 
ATOM      8  C   UNL     1       2.034  -0.310   3.004  0.00  0.00    +0.012 A 
ATOM      9  C   UNL     1       2.576   0.920   3.188  0.00  0.00    +0.030 A 
ATOM     10  C   UNL     1       2.195   1.700   4.296  0.00  0.00    +0.089 A 
ATOM     11  C   UNL     1       1.243   1.193   5.217  0.00  0.00    +0.090 A 
ATOM     12  C   UNL     1       0.690  -0.079   5.008  0.00  0.00    +0.040 A 
ATOM     13  N   UNL     1       0.881   1.936   6.270  0.00  0.00    -0.252 NA
ATOM     14  C   UNL     1       1.411   3.127   6.440  0.00  0.00    +0.131 A 
ATOM     15  C   UNL     1       2.347   3.625   5.533  0.00  0.00    +0.131 A 
ATOM     16  N   UNL     1       2.719   2.915   4.492  0.00  0.00    -0.252 NA
ENDBRANCH   2   7
BRANCH   1  22
ATOM     17  C   UNL     1      -0.018   1.503   0.010  0.00  0.00    +0.065 C 
ATOM     18  C   UNL     1       0.002  -0.004   0.002  0.00  0.00    +0.039 A 
ATOM     19  C   UNL     1       0.005  -0.679  -1.204  0.00  0.00    +0.023 A 
ATOM     20  C   UNL     1       0.024  -2.067  -1.209  0.00  0.00    +0.004 A 
ATOM     21  C   UNL     1       0.039  -2.732   0.005  0.00  0.00    +0.030 A 
ATOM     22  C   UNL     1       0.035  -1.987   1.185  0.00  0.00    +0.092 A 
ATOM     23  N   UNL     1       0.022  -0.660   1.145  0.00  0.00    -0.250 NA
ENDBRANCH   1  22
BRANCH   4  24
ATOM     24  C   UNL     1      -0.587  -5.524   4.649  0.00  0.00    +0.109 C 
BRANCH  24  25
ATOM     25  C   UNL     1      -2.040  -5.827   4.385  0.00  0.00    -0.039 A 
ATOM     26  C   UNL     1      -3.010  -5.375   5.262  0.00  0.00    +0.004 A 
ATOM     27  C   UNL     1      -4.345  -5.649   5.027  0.00  0.00    +0.001 A 
ATOM     28  C   UNL     1      -4.718  -6.375   3.915  0.00  0.00    +0.013 A 
ATOM     29  C   UNL     1      -3.745  -6.834   3.026  0.00  0.00    +0.037 A 
ATOM     30  C   UNL     1      -2.400  -6.550   3.266  0.00  0.00    +0.017 A 
BRANCH  29  31
ATOM     31  C   UNL     1      -4.138  -7.613   1.833  0.00  0.00    +0.242 C 
ATOM     32  O   UNL     1      -3.288  -8.012   1.060  0.00  0.00    -0.270 OA
ATOM     33  N   UNL     1      -5.438  -7.882   1.601  0.00  0.00    -0.325 N 
ATOM     34  H   UNL     1      -6.116  -7.564   2.217  0.00  0.00    +0.145 HD
ATOM     35  H   UNL     1      -5.695  -8.394   0.818  0.00  0.00    +0.145 HD
ENDBRANCH  29  31
ENDBRANCH  24  25
ENDBRANCH   4  24
TORSDOF 5
