REMARK  Name = CHEMBL585103
REMARK  7 active torsions:
REMARK  status: ('A' for Active; 'I' for Inactive)
REMARK    1  A    between atoms: C_1  and  C_2
REMARK    2  A    between atoms: C_6  and  C_8
REMARK    3  A    between atoms: C_9  and  C_25
REMARK    4  A    between atoms: C_11  and  C_14
REMARK    5  A    between atoms: C_14  and  N_15
REMARK    6  A    between atoms: N_15  and  C_16
REMARK    7  A    between atoms: C_19  and  C_22
REMARK                            x       y       z     vdW  Elec       q    Type
REMARK                         _______ _______ _______ _____ _____    ______ ____
ROOT
ATOM      1  C   UNL     1      -0.039  -2.639   2.514  0.00  0.00    +0.092 A 
ATOM      2  C   UNL     1       0.601  -2.217   3.673  0.00  0.00    +0.094 A 
ATOM      3  N   UNL     1       0.481  -3.208   4.579  0.00  0.00    -0.231 NA
ATOM      4  C   UNL     1      -0.184  -4.200   4.056  0.00  0.00    +0.125 A 
ATOM      5  N   UNL     1      -0.533  -3.896   2.788  0.00  0.00    -0.339 N 
ATOM      6  H   UNL     1      -1.036  -4.461   2.180  0.00  0.00    +0.167 HD
ENDROOT
BRANCH   2   7
ATOM      7  C   UNL     1       1.282  -0.931   3.873  0.00  0.00    -0.017 C 
ATOM      8  C   UNL     1       2.327  -0.610   3.086  0.00  0.00    +0.009 C 
ATOM      9  C   UNL     1       2.997   0.686   3.248  0.00  0.00    +0.044 C 
ATOM     10  C   UNL     1       2.355   1.627   3.951  0.00  0.00    +0.130 C 
ATOM     11  C   UNL     1       0.941   1.447   4.489  0.00  0.00    +0.191 C 
ATOM     12  C   UNL     1       0.790   0.001   4.951  0.00  0.00    +0.077 C 
ATOM     13  O   UNL     1       0.934   2.342   5.625  0.00  0.00    -0.333 OA
ATOM     14  C   UNL     1       1.726   3.450   5.131  0.00  0.00    +0.395 C 
ATOM     15  O   UNL     1       2.756   2.863   4.314  0.00  0.00    -0.468 OA
ENDBRANCH   2   7
BRANCH   1  21
ATOM     16  C   UNL     1      -0.188   1.647   0.223  0.00  0.00    +0.065 C 
ATOM     17  C   UNL     1      -0.242   0.142   0.156  0.00  0.00    +0.039 A 
ATOM     18  C   UNL     1      -0.409  -0.480  -1.067  0.00  0.00    +0.023 A 
ATOM     19  C   UNL     1      -0.458  -1.867  -1.127  0.00  0.00    +0.004 A 
ATOM     20  C   UNL     1      -0.337  -2.583   0.049  0.00  0.00    +0.030 A 
ATOM     21  C   UNL     1      -0.170  -1.891   1.251  0.00  0.00    +0.089 A 
ATOM     22  N   UNL     1      -0.124  -0.561   1.263  0.00  0.00    -0.250 NA
ENDBRANCH   1  21
BRANCH   4  23
ATOM     23  C   UNL     1      -0.518  -5.488   4.763  0.00  0.00    +0.175 C 
BRANCH  23  24
ATOM     24  N   UNL     1       0.607  -6.418   4.641  0.00  0.00    -0.337 N 
ATOM     25  H   UNL     1       1.405  -6.153   4.158  0.00  0.00    +0.147 HD
BRANCH  24  26
ATOM     26  C   UNL     1       0.530  -7.681   5.218  0.00  0.00    +0.027 A 
ATOM     27  C   UNL     1      -0.618  -8.062   5.905  0.00  0.00    +0.023 A 
ATOM     28  C   UNL     1      -0.697  -9.312   6.477  0.00  0.00    +0.015 A 
ATOM     29  C   UNL     1       0.378 -10.198   6.367  0.00  0.00    +0.037 A 
ATOM     30  C   UNL     1       1.530  -9.813   5.675  0.00  0.00    +0.015 A 
ATOM     31  C   UNL     1       1.601  -8.564   5.101  0.00  0.00    +0.023 A 
BRANCH  29  32
ATOM     32  C   UNL     1       0.297 -11.538   6.979  0.00  0.00    +0.242 C 
ATOM     33  O   UNL     1      -0.706 -11.872   7.580  0.00  0.00    -0.270 OA
ATOM     34  N   UNL     1       1.335 -12.392   6.871  0.00  0.00    -0.325 N 
ATOM     35  H   UNL     1       2.134 -12.125   6.392  0.00  0.00    +0.145 HD
ATOM     36  H   UNL     1       1.281 -13.273   7.274  0.00  0.00    +0.145 HD
ENDBRANCH  29  32
ENDBRANCH  24  26
ENDBRANCH  23  24
ENDBRANCH   4  23
TORSDOF 6
