REMARK  Name = CHEMBL593708
REMARK  5 active torsions:
REMARK  status: ('A' for Active; 'I' for Inactive)
REMARK    1  A    between atoms: C_1  and  N_2
REMARK    2  A    between atoms: C_3  and  C_17
REMARK    3  A    between atoms: C_4  and  C_9
REMARK    4  A    between atoms: N_7  and  C_8
REMARK    5  A    between atoms: C_13  and  C_15
REMARK                            x       y       z     vdW  Elec       q    Type
REMARK                         _______ _______ _______ _____ _____    ______ ____
ROOT
ATOM      1  C   UNL     1       0.088   1.450  -0.230  0.00  0.00    +0.171 C 
ATOM      2  N   UNL     1       0.049  -0.009  -0.103  0.00  0.00    -0.283 N 
ATOM      3  C   UNL     1      -1.087  -0.779  -0.138  0.00  0.00    +0.078 A 
ATOM      4  C   UNL     1      -0.712  -2.104   0.013  0.00  0.00    +0.073 A 
ATOM      5  C   UNL     1       0.748  -2.116   0.146  0.00  0.00    +0.275 A 
ATOM      6  O   UNL     1       1.452  -3.097   0.297  0.00  0.00    -0.266 OA
ATOM      7  N   UNL     1       1.164  -0.836   0.066  0.00  0.00    -0.252 N 
ATOM      8  C   UNL     1       2.555  -0.385   0.145  0.00  0.00    +0.174 C 
ENDROOT
BRANCH   3   9
ATOM      9  C   UNL     1      -2.466  -0.282  -0.307  0.00  0.00    +0.003 A 
ATOM     10  C   UNL     1      -3.325  -0.906  -1.232  0.00  0.00    +0.012 A 
ATOM     11  C   UNL     1      -4.597  -0.467  -1.405  0.00  0.00    +0.030 A 
ATOM     12  C   UNL     1      -5.075   0.625  -0.655  0.00  0.00    +0.089 A 
ATOM     13  C   UNL     1      -4.220   1.262   0.280  0.00  0.00    +0.090 A 
ATOM     14  C   UNL     1      -2.909   0.791   0.450  0.00  0.00    +0.040 A 
ATOM     15  N   UNL     1      -4.676   2.300   0.993  0.00  0.00    -0.252 NA
ATOM     16  C   UNL     1      -5.909   2.717   0.819  0.00  0.00    +0.131 A 
ATOM     17  C   UNL     1      -6.751   2.089  -0.101  0.00  0.00    +0.131 A 
ATOM     18  N   UNL     1      -6.326   1.070  -0.813  0.00  0.00    -0.252 NA
ENDBRANCH   3   9
BRANCH   4  19
ATOM     19  C   UNL     1      -1.610  -3.280   0.036  0.00  0.00    -0.010 A 
ATOM     20  C   UNL     1      -2.534  -3.435   1.071  0.00  0.00    +0.009 A 
ATOM     21  C   UNL     1      -3.373  -4.531   1.093  0.00  0.00    +0.001 A 
ATOM     22  C   UNL     1      -3.305  -5.481   0.093  0.00  0.00    +0.008 A 
ATOM     23  C   UNL     1      -2.385  -5.339  -0.947  0.00  0.00    -0.025 A 
ATOM     24  C   UNL     1      -1.540  -4.232  -0.979  0.00  0.00    +0.016 A 
BRANCH  23  25
ATOM     25  C   UNL     1      -2.313  -6.357  -2.017  0.00  0.00    +0.000 C 
ATOM     26  C   UNL     1      -3.122  -7.407  -1.988  0.00  0.00    +0.009 C 
ENDBRANCH  23  25
ENDBRANCH   4  19
TORSDOF 3
