REMARK  Name = CHEMBL585667
REMARK  6 active torsions:
REMARK  status: ('A' for Active; 'I' for Inactive)
REMARK    1  A    between atoms: C_1  and  C_2
REMARK    2  A    between atoms: C_6  and  C_8
REMARK    3  A    between atoms: C_9  and  C_24
REMARK    4  A    between atoms: N_14  and  C_15
REMARK    5  A    between atoms: C_15  and  C_16
REMARK    6  A    between atoms: C_19  and  C_22
REMARK                            x       y       z     vdW  Elec       q    Type
REMARK                         _______ _______ _______ _____ _____    ______ ____
ROOT
ATOM      1  C   UNL     1      -0.050  -2.634   2.516  0.00  0.00    +0.093 A 
ATOM      2  C   UNL     1       0.601  -2.217   3.670  0.00  0.00    +0.096 A 
ATOM      3  N   UNL     1       0.494  -3.209   4.578  0.00  0.00    -0.214 NA
ATOM      4  C   UNL     1      -0.178  -4.210   4.061  0.00  0.00    +0.194 A 
ATOM      5  N   UNL     1      -0.543  -3.900   2.788  0.00  0.00    -0.324 N 
ATOM      6  H   UNL     1      -1.052  -4.462   2.182  0.00  0.00    +0.169 HD
ATOM      7  N   UNL     1      -0.475  -5.391   4.711  0.00  0.00    -0.311 N 
ATOM      8  H   UNL     1      -0.180  -5.530   5.625  0.00  0.00    +0.149 HD
ENDROOT
BRANCH   2   9
ATOM      9  C   UNL     1       1.281  -0.930   3.865  0.00  0.00    -0.017 C 
ATOM     10  C   UNL     1       2.325  -0.615   3.073  0.00  0.00    +0.009 C 
ATOM     11  C   UNL     1       3.043   0.650   3.280  0.00  0.00    +0.044 C 
ATOM     12  C   UNL     1       2.832   1.289   4.432  0.00  0.00    +0.130 C 
ATOM     13  C   UNL     1       1.978   0.737   5.566  0.00  0.00    +0.191 C 
ATOM     14  C   UNL     1       0.788   0.002   4.941  0.00  0.00    +0.077 C 
ATOM     15  O   UNL     1       1.536   1.907   6.276  0.00  0.00    -0.333 OA
ATOM     16  C   UNL     1       2.143   3.027   5.600  0.00  0.00    +0.395 C 
ATOM     17  O   UNL     1       3.280   2.485   4.887  0.00  0.00    -0.468 OA
ENDBRANCH   2   9
BRANCH   1  23
ATOM     18  C   UNL     1      -0.225   1.663   0.250  0.00  0.00    +0.065 C 
ATOM     19  C   UNL     1      -0.278   0.159   0.176  0.00  0.00    +0.039 A 
ATOM     20  C   UNL     1      -0.456  -0.457  -1.049  0.00  0.00    +0.023 A 
ATOM     21  C   UNL     1      -0.504  -1.844  -1.116  0.00  0.00    +0.004 A 
ATOM     22  C   UNL     1      -0.371  -2.567   0.054  0.00  0.00    +0.030 A 
ATOM     23  C   UNL     1      -0.193  -1.881   1.260  0.00  0.00    +0.090 A 
ATOM     24  N   UNL     1      -0.148  -0.550   1.279  0.00  0.00    -0.250 NA
ENDBRANCH   1  23
BRANCH   7  25
ATOM     25  C   UNL     1      -1.236  -6.436   4.021  0.00  0.00    +0.139 C 
BRANCH  25  26
ATOM     26  C   UNL     1      -1.424  -7.613   4.943  0.00  0.00    -0.030 A 
ATOM     27  C   UNL     1      -0.483  -8.627   4.965  0.00  0.00    +0.006 A 
ATOM     28  C   UNL     1      -0.648  -9.708   5.807  0.00  0.00    +0.019 A 
ATOM     29  C   UNL     1      -1.768  -9.776   6.638  0.00  0.00    +0.052 A 
ATOM     30  C   UNL     1      -2.713  -8.748   6.611  0.00  0.00    +0.019 A 
ATOM     31  C   UNL     1      -2.533  -7.671   5.768  0.00  0.00    +0.006 A 
BRANCH  29  32
ATOM     32  C   UNL     1      -1.947 -10.895   7.514  0.00  0.00    +0.099 C 
ATOM     33  N   UNL     1      -2.088 -11.782   8.209  0.00  0.00    -0.191 NA
ENDBRANCH  29  32
ENDBRANCH  25  26
ENDBRANCH   7  25
TORSDOF 5
