REMARK  Name = CHEMBL480742
REMARK  3 active torsions:
REMARK  status: ('A' for Active; 'I' for Inactive)
REMARK    1  A    between atoms: C_1  and  C_2
REMARK    2  A    between atoms: C_6  and  C_8
REMARK    3  A    between atoms: C_9  and  C_15
REMARK                            x       y       z     vdW  Elec       q    Type
REMARK                         _______ _______ _______ _____ _____    ______ ____
ROOT
ATOM      1  C   UNL     1       0.050  -2.682   2.491  0.00  0.00    +0.117 A 
ATOM      2  C   UNL     1       0.516  -2.163   3.686  0.00  0.00    +0.077 A 
ATOM      3  N   UNL     1       0.337  -3.152   4.634  0.00  0.00    -0.326 N 
ATOM      4  H   UNL     1       0.566  -3.095   5.575  0.00  0.00    +0.169 HD
ATOM      5  C   UNL     1      -0.220  -4.221   4.001  0.00  0.00    +0.191 A 
ATOM      6  N   UNL     1      -0.392  -3.932   2.734  0.00  0.00    -0.213 NA
ATOM      7  N   UNL     1      -0.557  -5.419   4.601  0.00  0.00    -0.329 N 
ATOM      8  H   UNL     1      -0.399  -5.548   5.550  0.00  0.00    +0.145 HD
ATOM      9  H   UNL     1      -0.951  -6.131   4.074  0.00  0.00    +0.145 HD
ENDROOT
BRANCH   2  10
ATOM     10  C   UNL     1       1.088  -0.822   3.904  0.00  0.00    +0.003 A 
ATOM     11  C   UNL     1       2.033  -0.309   2.994  0.00  0.00    +0.012 A 
ATOM     12  C   UNL     1       2.573   0.922   3.173  0.00  0.00    +0.030 A 
ATOM     13  C   UNL     1       2.193   1.705   4.280  0.00  0.00    +0.089 A 
ATOM     14  C   UNL     1       1.242   1.199   5.205  0.00  0.00    +0.090 A 
ATOM     15  C   UNL     1       0.690  -0.073   5.000  0.00  0.00    +0.040 A 
ATOM     16  N   UNL     1       0.881   1.945   6.256  0.00  0.00    -0.252 NA
ATOM     17  C   UNL     1       1.410   3.137   6.421  0.00  0.00    +0.131 A 
ATOM     18  C   UNL     1       2.345   3.634   5.512  0.00  0.00    +0.131 A 
ATOM     19  N   UNL     1       2.716   2.920   4.472  0.00  0.00    -0.252 NA
ENDBRANCH   2  10
BRANCH   1  25
ATOM     20  C   UNL     1      -0.018   1.503   0.010  0.00  0.00    +0.068 C 
ATOM     21  C   UNL     1       0.002  -0.004   0.002  0.00  0.00    +0.074 A 
ATOM     22  C   UNL     1       0.005  -0.681  -1.206  0.00  0.00    +0.144 A 
ATOM     23  C   UNL     1       0.024  -2.071  -1.209  0.00  0.00    +0.042 A 
ATOM     24  C   UNL     1       0.039  -2.733   0.005  0.00  0.00    +0.033 A 
ATOM     25  C   UNL     1       0.035  -1.988   1.185  0.00  0.00    +0.092 A 
ATOM     26  N   UNL     1       0.022  -0.660   1.144  0.00  0.00    -0.247 NA
ATOM     27  F   UNL     1      -0.010   0.003  -2.371  0.00  0.00    -0.204 F 
ENDBRANCH   1  25
TORSDOF 2
