REMARK  Name = CHEMBL565814
REMARK  8 active torsions:
REMARK  status: ('A' for Active; 'I' for Inactive)
REMARK    1  A    between atoms: C_1  and  N_2
REMARK    2  A    between atoms: N_2  and  C_3
REMARK    3  A    between atoms: N_2  and  C_4
REMARK    4  A    between atoms: C_4  and  C_5
REMARK    5  A    between atoms: C_5  and  N_6
REMARK    6  A    between atoms: N_9  and  C_10
REMARK    7  A    between atoms: C_14  and  C_20
REMARK    8  A    between atoms: C_24  and  C_25
REMARK                            x       y       z     vdW  Elec       q    Type
REMARK                         _______ _______ _______ _____ _____    ______ ____
ROOT
ATOM      1  C   UNL     1       0.345  -0.522   7.251  0.00  0.00    +0.037 A 
ATOM      2  C   UNL     1      -0.862   0.161   7.439  0.00  0.00    +0.024 A 
ATOM      3  C   UNL     1      -1.308   0.451   8.692  0.00  0.00    +0.012 A 
ATOM      4  C   UNL     1      -0.556   0.064   9.809  0.00  0.00    +0.008 A 
ATOM      5  C   UNL     1      -0.994   0.351  11.126  0.00  0.00    -0.003 A 
ATOM      6  C   UNL     1      -0.193  -0.066  12.183  0.00  0.00    +0.029 A 
ATOM      7  C   UNL     1       0.992  -0.740  11.921  0.00  0.00    +0.112 A 
ATOM      8  N   UNL     1       1.386  -1.000  10.697  0.00  0.00    -0.255 NA
ATOM      9  C   UNL     1       0.667  -0.629   9.631  0.00  0.00    +0.073 A 
ATOM     10  C   UNL     1       1.104  -0.921   8.329  0.00  0.00    +0.051 A 
ENDROOT
BRANCH   5  11
ATOM     11  C   UNL     1      -2.263   1.072  11.368  0.00  0.00    +0.033 A 
ATOM     12  C   UNL     1      -3.501   0.514  11.537  0.00  0.00    +0.048 A 
ATOM     13  N   UNL     1      -4.388   1.504  11.738  0.00  0.00    -0.267 N 
ATOM     14  N   UNL     1      -3.715   2.738  11.694  0.00  0.00    -0.169 NA
ATOM     15  C   UNL     1      -2.438   2.520  11.480  0.00  0.00    +0.119 A 
ATOM     16  C   UNL     1      -5.745   0.963  11.936  0.00  0.00    +0.144 C 
ATOM     17  C   UNL     1      -5.695  -0.485  11.403  0.00  0.00    +0.029 C 
ATOM     18  C   UNL     1      -4.199  -0.831  11.573  0.00  0.00    +0.057 C 
BRANCH  15  19
ATOM     19  C   UNL     1      -1.375   3.547  11.370  0.00  0.00    +0.091 A 
ATOM     20  C   UNL     1      -1.706   4.845  10.985  0.00  0.00    +0.030 A 
ATOM     21  C   UNL     1      -0.702   5.793  10.887  0.00  0.00    +0.004 A 
ATOM     22  C   UNL     1       0.600   5.412  11.178  0.00  0.00    +0.020 A 
ATOM     23  C   UNL     1       0.857   4.107  11.555  0.00  0.00    +0.111 A 
ATOM     24  N   UNL     1      -0.118   3.225  11.645  0.00  0.00    -0.253 NA
ENDBRANCH  15  19
ENDBRANCH   5  11
BRANCH   1  28
ATOM     25  N   UNL     1       1.050  -0.164   3.727  0.00  0.00    -0.301 N 
ATOM     26  C   UNL     1       0.549   0.067   4.956  0.00  0.00    +0.304 C 
ATOM     27  O   UNL     1      -0.112   1.066   5.165  0.00  0.00    -0.253 OA
ATOM     28  N   UNL     1       0.782  -0.808   5.954  0.00  0.00    -0.269 N 
ATOM     29  H   UNL     1       1.577  -0.961   3.560  0.00  0.00    +0.150 HD
ATOM     30  H   UNL     1       1.252  -1.637   5.773  0.00  0.00    +0.156 HD
BRANCH  25  31
ATOM     31  C   UNL     1       0.797   0.787   2.642  0.00  0.00    +0.087 C 
BRANCH  31  32
ATOM     32  C   UNL     1       1.472   0.292   1.361  0.00  0.00    -0.061 C 
BRANCH  32  34
ATOM     33  C   UNL     1       1.868   2.526   0.584  0.00  0.00    -0.097 C 
ATOM     34  N   UNL     1       1.218   1.246   0.273  0.00  0.00    +0.377 N 
ATOM     35  C   UNL     1       1.763   0.713  -0.983  0.00  0.00    -0.097 C 
ATOM     36  H   UNL     1       0.224   1.388   0.175  0.00  0.00    -0.083 HD
ENDBRANCH  32  34
ENDBRANCH  31  32
ENDBRANCH  25  31
ENDBRANCH   1  28
TORSDOF 6
