REMARK  Name = CHEMBL204211
REMARK  6 active torsions:
REMARK  status: ('A' for Active; 'I' for Inactive)
REMARK    1  A    between atoms: C_5  and  C_7
REMARK    2  A    between atoms: C_8  and  C_13
REMARK    3  A    between atoms: C_17  and  C_19
REMARK    4  A    between atoms: C_22  and  C_25
REMARK    5  A    between atoms: C_25  and  N_26
REMARK    6  A    between atoms: N_26  and  C_27
REMARK                            x       y       z     vdW  Elec       q    Type
REMARK                         _______ _______ _______ _____ _____    ______ ____
ROOT
ATOM      1  C   UNL     1       3.564  -2.466  -1.118  0.00  0.00    -0.011 A 
ATOM      2  C   UNL     1       3.556  -1.505  -2.136  0.00  0.00    +0.028 A 
ATOM      3  C   UNL     1       4.754  -1.089  -2.679  0.00  0.00    +0.112 A 
ATOM      4  N   UNL     1       5.901  -1.581  -2.252  0.00  0.00    -0.255 NA
ATOM      5  C   UNL     1       5.958  -2.493  -1.290  0.00  0.00    +0.072 A 
ATOM      6  C   UNL     1       4.795  -2.962  -0.686  0.00  0.00    +0.037 A 
ENDROOT
BRANCH   1   8
ATOM      7  C   UNL     1       1.270  -2.142  -0.023  0.00  0.00    +0.092 A 
ATOM      8  C   UNL     1       2.298  -2.939  -0.510  0.00  0.00    +0.029 A 
ATOM      9  C   UNL     1       1.915  -4.278  -0.319  0.00  0.00    +0.143 A 
ATOM     10  N   UNL     1       0.736  -4.296   0.245  0.00  0.00    -0.181 NA
ATOM     11  H   UNL     1      -0.534  -2.712   0.855  0.00  0.00    +0.189 HD
ATOM     12  N   UNL     1       0.306  -2.980   0.450  0.00  0.00    -0.275 N 
BRANCH   7  17
ATOM     13  C   UNL     1      -0.017   1.379   0.010  0.00  0.00    +0.004 A 
ATOM     14  C   UNL     1       1.194   2.059   0.002  0.00  0.00    +0.020 A 
ATOM     15  C   UNL     1       2.376   1.341  -0.013  0.00  0.00    +0.111 A 
ATOM     16  N   UNL     1       2.368   0.024  -0.021  0.00  0.00    -0.253 NA
ATOM     17  C   UNL     1       1.232  -0.665  -0.014  0.00  0.00    +0.089 A 
ATOM     18  C   UNL     1       0.002  -0.004   0.002  0.00  0.00    +0.030 A 
ENDBRANCH   7  17
ENDBRANCH   1   8
BRANCH   5  19
ATOM     19  C   UNL     1       7.275  -3.014  -0.848  0.00  0.00    +0.000 A 
ATOM     20  C   UNL     1       7.346  -3.976   0.158  0.00  0.00    +0.010 A 
ATOM     21  C   UNL     1       8.574  -4.457   0.564  0.00  0.00    +0.002 A 
ATOM     22  C   UNL     1       9.733  -3.985  -0.025  0.00  0.00    -0.064 A 
ATOM     23  C   UNL     1       9.669  -3.031  -1.024  0.00  0.00    +0.002 A 
ATOM     24  C   UNL     1       8.446  -2.547  -1.442  0.00  0.00    +0.010 A 
BRANCH  22  25
ATOM     25  C   UNL     1      11.072  -4.513   0.424  0.00  0.00    -0.046 C 
BRANCH  25  26
ATOM     26  N   UNL     1      11.430  -5.688  -0.383  0.00  0.00    +0.384 N 
ATOM     27  H   UNL     1      10.729  -6.404  -0.265  0.00  0.00    -0.085 HD
ATOM     28  H   UNL     1      11.481  -5.425  -1.355  0.00  0.00    -0.085 HD
BRANCH  26  29
ATOM     29  C   UNL     1      12.735  -6.203   0.055  0.00  0.00    -0.067 C 
ATOM     30  C   UNL     1      13.822  -5.168  -0.249  0.00  0.00    +0.012 C 
ATOM     31  C   UNL     1      15.187  -5.744   0.137  0.00  0.00    +0.158 C 
ATOM     32  O   UNL     1      15.406  -6.963  -0.575  0.00  0.00    -0.380 OA
ATOM     33  C   UNL     1      14.447  -7.984  -0.294  0.00  0.00    +0.158 C 
ATOM     34  C   UNL     1      13.053  -7.498  -0.698  0.00  0.00    +0.012 C 
ENDBRANCH  26  29
ENDBRANCH  25  26
ENDBRANCH  22  25
ENDBRANCH   5  19
TORSDOF 6
