REMARK  Name = CHEMBL563421
REMARK  5 active torsions:
REMARK  status: ('A' for Active; 'I' for Inactive)
REMARK    1  A    between atoms: C_1  and  C_2
REMARK    2  A    between atoms: C_6  and  C_8
REMARK    3  A    between atoms: C_16  and  N_18
REMARK    4  A    between atoms: N_18  and  C_19
REMARK    5  A    between atoms: C_23  and  C_25
REMARK                            x       y       z     vdW  Elec       q    Type
REMARK                         _______ _______ _______ _____ _____    ______ ____
ROOT
ATOM      1  C   UNL     1       0.267  -2.694   2.506  0.00  0.00    +0.181 A 
ATOM      2  N   UNL     1       0.084  -4.001   2.510  0.00  0.00    -0.226 NA
ATOM      3  C   UNL     1      -0.125  -4.652   3.662  0.00  0.00    +0.077 A 
ATOM      4  C   UNL     1      -0.322  -6.040   3.703  0.00  0.00    +0.028 A 
ATOM      5  C   UNL     1      -0.531  -6.655   4.902  0.00  0.00    +0.002 A 
ATOM      6  C   UNL     1      -0.552  -5.926   6.088  0.00  0.00    +0.001 A 
ATOM      7  C   UNL     1      -0.364  -4.574   6.083  0.00  0.00    +0.013 A 
ATOM      8  C   UNL     1      -0.146  -3.913   4.870  0.00  0.00    +0.040 A 
ATOM      9  C   UNL     1       0.056  -2.511   4.805  0.00  0.00    +0.135 A 
ATOM     10  N   UNL     1       0.260  -1.962   3.617  0.00  0.00    -0.210 NA
ENDROOT
BRANCH   1  16
ATOM     11  C   UNL     1       1.107   1.433   0.068  0.00  0.00    +0.065 C 
ATOM     12  C   UNL     1       0.894  -0.058   0.047  0.00  0.00    +0.039 A 
ATOM     13  C   UNL     1       0.919  -0.735  -1.160  0.00  0.00    +0.023 A 
ATOM     14  C   UNL     1       0.724  -2.108  -1.174  0.00  0.00    +0.004 A 
ATOM     15  C   UNL     1       0.508  -2.757   0.030  0.00  0.00    +0.031 A 
ATOM     16  C   UNL     1       0.496  -2.013   1.207  0.00  0.00    +0.108 A 
ATOM     17  N   UNL     1       0.693  -0.701   1.178  0.00  0.00    -0.249 NA
ENDBRANCH   1  16
BRANCH   9  18
ATOM     18  N   UNL     1       0.045  -1.741   5.949  0.00  0.00    -0.299 N 
ATOM     19  H   UNL     1      -0.019  -2.165   6.819  0.00  0.00    +0.154 HD
BRANCH  18  20
ATOM     20  C   UNL     1       0.125  -0.348   5.855  0.00  0.00    +0.033 A 
ATOM     21  C   UNL     1      -0.487   0.313   4.796  0.00  0.00    +0.023 A 
ATOM     22  C   UNL     1      -0.411   1.690   4.698  0.00  0.00    +0.003 A 
ATOM     23  C   UNL     1       0.274   2.417   5.650  0.00  0.00    +0.013 A 
ATOM     24  C   UNL     1       0.892   1.763   6.717  0.00  0.00    +0.038 A 
ATOM     25  C   UNL     1       0.810   0.374   6.819  0.00  0.00    +0.036 A 
BRANCH  24  26
ATOM     26  C   UNL     1       1.626   2.540   7.739  0.00  0.00    +0.242 C 
ATOM     27  O   UNL     1       2.163   1.968   8.668  0.00  0.00    -0.270 OA
ATOM     28  N   UNL     1       1.699   3.882   7.641  0.00  0.00    -0.325 N 
ATOM     29  H   UNL     1       1.270   4.338   6.900  0.00  0.00    +0.145 HD
ATOM     30  H   UNL     1       2.180   4.392   8.311  0.00  0.00    +0.145 HD
ENDBRANCH  24  26
ENDBRANCH  18  20
ENDBRANCH   9  18
TORSDOF 4
