REMARK  Name = CHEMBL365663
REMARK  2 active torsions:
REMARK  status: ('A' for Active; 'I' for Inactive)
REMARK    1  A    between atoms: C_3  and  C_8
REMARK    2  A    between atoms: C_9  and  C_14
REMARK                            x       y       z     vdW  Elec       q    Type
REMARK                         _______ _______ _______ _____ _____    ______ ____
ROOT
ATOM      1  C   UNL     1       3.651   2.178  -0.002  0.00  0.00    +0.089 A 
ATOM      2  C   UNL     1       4.765   1.756   0.721  0.00  0.00    +0.067 A 
ATOM      3  S   UNL     1       5.946   3.019   0.274  0.00  0.00    -0.050 S 
ATOM      4  C   UNL     1       4.956   3.922  -0.743  0.00  0.00    +0.157 A 
ATOM      5  N   UNL     1       3.811   3.274  -0.725  0.00  0.00    -0.224 NA
ATOM      6  N   UNL     1       5.273   5.073  -1.439  0.00  0.00    -0.337 N 
ATOM      7  H   UNL     1       6.163   5.452  -1.369  0.00  0.00    +0.144 HD
ATOM      8  H   UNL     1       4.605   5.502  -1.996  0.00  0.00    +0.144 HD
ENDROOT
BRANCH   2   9
ATOM      9  C   UNL     1       4.924   0.593   1.607  0.00  0.00    +0.081 A 
ATOM     10  C   UNL     1       6.115   0.445   2.346  0.00  0.00    +0.031 A 
ATOM     11  C   UNL     1       6.273  -0.626   3.169  0.00  0.00    +0.032 A 
ATOM     12  C   UNL     1       5.224  -1.568   3.257  0.00  0.00    +0.089 A 
ATOM     13  C   UNL     1       4.052  -1.363   2.489  0.00  0.00    +0.090 A 
ATOM     14  N   UNL     1       3.944  -0.292   1.699  0.00  0.00    -0.245 NA
ATOM     15  C   UNL     1       3.009  -2.306   2.580  0.00  0.00    +0.031 A 
ATOM     16  C   UNL     1       3.178  -3.378   3.409  0.00  0.00    +0.022 A 
ATOM     17  C   UNL     1       4.357  -3.517   4.136  0.00  0.00    +0.111 A 
ATOM     18  N   UNL     1       5.326  -2.637   4.049  0.00  0.00    -0.253 NA
ENDBRANCH   2   9
BRANCH   1  21
ATOM     19  C   UNL     1       0.647   0.315   1.275  0.00  0.00    +0.002 A 
ATOM     20  C   UNL     1       1.844   1.001   1.249  0.00  0.00    +0.010 A 
ATOM     21  C   UNL     1       2.367   1.440   0.032  0.00  0.00    +0.003 A 
ATOM     22  C   UNL     1       1.675   1.183  -1.151  0.00  0.00    +0.030 A 
ATOM     23  C   UNL     1       0.479   0.495  -1.113  0.00  0.00    +0.042 A 
ATOM     24  C   UNL     1      -0.035   0.061   0.098  0.00  0.00    +0.020 A 
ATOM     25 CL   UNL     1      -0.384   0.173  -2.584  0.00  0.00    -0.084 Cl
ENDBRANCH   1  21
TORSDOF 2
