REMARK  Name = CHEMBL575721
REMARK  8 active torsions:
REMARK  status: ('A' for Active; 'I' for Inactive)
REMARK    1  A    between atoms: C_1  and  C_2
REMARK    2  A    between atoms: C_4  and  O_15
REMARK    3  A    between atoms: C_5  and  C_9
REMARK    4  A    between atoms: C_7  and  C_8
REMARK    5  A    between atoms: O_15  and  C_16
REMARK    6  A    between atoms: N_22  and  C_23
REMARK    7  A    between atoms: C_27  and  O_29
REMARK    8  A    between atoms: O_29  and  C_30
REMARK                            x       y       z     vdW  Elec       q    Type
REMARK                         _______ _______ _______ _____ _____    ______ ____
ROOT
ATOM      1  C   UNL     1       0.448  -2.051  -3.466  0.00  0.00    +0.133 A 
ATOM      2  C   UNL     1       0.649  -2.634  -4.734  0.00  0.00    +0.064 A 
ATOM      3  C   UNL     1       0.689  -1.861  -5.838  0.00  0.00    +0.088 A 
ATOM      4  N   UNL     1       0.536  -0.511  -5.753  0.00  0.00    -0.346 N 
ATOM      5  C   UNL     1       0.338   0.096  -4.536  0.00  0.00    +0.135 A 
ATOM      6  C   UNL     1       0.287  -0.684  -3.369  0.00  0.00    +0.092 A 
ATOM      7  N   UNL     1       0.192   1.414  -4.465  0.00  0.00    -0.230 NA
ATOM      8  H   UNL     1       0.568   0.028  -6.558  0.00  0.00    +0.167 HD
ENDROOT
BRANCH   7   9
ATOM      9  C   UNL     1       0.114   2.155  -5.608  0.00  0.00    +0.070 A 
ATOM     10  C   UNL     1      -0.850   1.855  -6.576  0.00  0.00    +0.028 A 
ATOM     11  C   UNL     1      -0.925   2.606  -7.729  0.00  0.00    +0.006 A 
ATOM     12  C   UNL     1      -0.049   3.658  -7.934  0.00  0.00    +0.046 A 
ATOM     13  C   UNL     1       0.912   3.964  -6.979  0.00  0.00    +0.122 A 
ATOM     14  C   UNL     1       0.993   3.221  -5.814  0.00  0.00    +0.073 A 
BRANCH  13  15
ATOM     15  O   UNL     1       1.768   4.999  -7.186  0.00  0.00    -0.495 OA
ATOM     16  C   UNL     1       1.624   5.726  -8.408  0.00  0.00    +0.277 C 
ENDBRANCH  13  15
ENDBRANCH   7   9
BRANCH   1  17
ATOM     17  O   UNL     1       0.408  -2.825  -2.355  0.00  0.00    -0.454 OA
BRANCH  17  21
ATOM     18  C   UNL     1       5.196  -3.669  -2.928  0.00  0.00    +0.046 C 
ATOM     19  C   UNL     1       3.880  -3.893  -2.229  0.00  0.00    -0.026 A 
ATOM     20  C   UNL     1       2.742  -3.223  -2.650  0.00  0.00    +0.053 A 
ATOM     21  C   UNL     1       1.548  -3.459  -1.978  0.00  0.00    +0.156 A 
ATOM     22  C   UNL     1       1.540  -4.360  -0.908  0.00  0.00    +0.131 A 
ATOM     23  N   UNL     1       2.655  -4.978  -0.541  0.00  0.00    -0.246 NA
ATOM     24  C   UNL     1       3.796  -4.775  -1.165  0.00  0.00    +0.042 A 
ATOM     25  C   UNL     1       5.031  -5.508  -0.711  0.00  0.00    +0.066 C 
BRANCH  22  26
ATOM     26  C   UNL     1       0.276  -4.626  -0.180  0.00  0.00    +0.093 A 
ATOM     27  C   UNL     1       0.111  -5.831   0.500  0.00  0.00    +0.030 A 
ATOM     28  C   UNL     1      -1.074  -6.064   1.176  0.00  0.00    +0.004 A 
ATOM     29  C   UNL     1      -2.056  -5.084   1.150  0.00  0.00    +0.020 A 
ATOM     30  C   UNL     1      -1.825  -3.911   0.455  0.00  0.00    +0.111 A 
ATOM     31  N   UNL     1      -0.685  -3.712  -0.175  0.00  0.00    -0.253 NA
ENDBRANCH  22  26
ENDBRANCH  17  21
ENDBRANCH   1  17
TORSDOF 5
