REMARK  Name = CHEMBL409356
REMARK  6 active torsions:
REMARK  status: ('A' for Active; 'I' for Inactive)
REMARK    1  A    between atoms: C_1  and  N_2
REMARK    2  A    between atoms: C_8  and  C_10
REMARK    3  A    between atoms: C_10  and  O_11
REMARK    4  A    between atoms: O_11  and  C_12
REMARK    5  A    between atoms: C_16  and  C_22
REMARK    6  A    between atoms: C_26  and  C_27
REMARK                            x       y       z     vdW  Elec       q    Type
REMARK                         _______ _______ _______ _____ _____    ______ ____
ROOT
ATOM      1  C   UNL     1       3.969  -5.855   1.910  0.00  0.00    +0.123 A 
ATOM      2  C   UNL     1       3.665  -5.460   3.216  0.00  0.00    +0.046 A 
ATOM      3  C   UNL     1       4.253  -6.068   4.283  0.00  0.00    +0.014 A 
ATOM      4  C   UNL     1       5.174  -7.104   4.074  0.00  0.00    +0.008 A 
ATOM      5  C   UNL     1       5.803  -7.758   5.164  0.00  0.00    -0.003 A 
ATOM      6  C   UNL     1       6.705  -8.776   4.876  0.00  0.00    +0.029 A 
ATOM      7  C   UNL     1       6.959  -9.116   3.554  0.00  0.00    +0.112 A 
ATOM      8  N   UNL     1       6.370  -8.501   2.555  0.00  0.00    -0.255 NA
ATOM      9  C   UNL     1       5.490  -7.513   2.756  0.00  0.00    +0.075 A 
ATOM     10  C   UNL     1       4.865  -6.872   1.674  0.00  0.00    +0.074 A 
ENDROOT
BRANCH   5  11
ATOM     11  C   UNL     1       5.510  -7.370   6.561  0.00  0.00    +0.033 A 
ATOM     12  C   UNL     1       4.535  -7.891   7.367  0.00  0.00    +0.048 A 
ATOM     13  N   UNL     1       4.598  -7.276   8.560  0.00  0.00    -0.267 N 
ATOM     14  N   UNL     1       5.635  -6.328   8.532  0.00  0.00    -0.169 NA
ATOM     15  C   UNL     1       6.210  -6.358   7.352  0.00  0.00    +0.119 A 
ATOM     16  C   UNL     1       3.573  -7.804   9.478  0.00  0.00    +0.144 C 
ATOM     17  C   UNL     1       2.551  -8.535   8.583  0.00  0.00    +0.029 C 
ATOM     18  C   UNL     1       3.420  -8.917   7.363  0.00  0.00    +0.057 C 
BRANCH  15  19
ATOM     19  C   UNL     1       7.350  -5.523   6.905  0.00  0.00    +0.091 A 
ATOM     20  C   UNL     1       7.587  -4.293   7.516  0.00  0.00    +0.030 A 
ATOM     21  C   UNL     1       8.655  -3.524   7.088  0.00  0.00    +0.004 A 
ATOM     22  C   UNL     1       9.452  -4.011   6.061  0.00  0.00    +0.020 A 
ATOM     23  C   UNL     1       9.159  -5.240   5.499  0.00  0.00    +0.111 A 
ATOM     24  N   UNL     1       8.139  -5.954   5.929  0.00  0.00    -0.253 NA
ENDBRANCH  15  19
ENDBRANCH   5  11
BRANCH   1  25
ATOM     25  O   UNL     1       3.369  -5.232   0.863  0.00  0.00    -0.483 OA
BRANCH  25  26
ATOM     26  C   UNL     1       2.448  -4.184   1.173  0.00  0.00    +0.324 C 
BRANCH  26  34
ATOM     27  C   UNL     1      -0.018   1.465   0.010  0.00  0.00    +0.105 C 
ATOM     28  N   UNL     1       0.002  -0.004   0.002  0.00  0.00    -0.302 NA
ATOM     29  C   UNL     1       0.592  -0.516  -1.242  0.00  0.00    +0.103 C 
ATOM     30  C   UNL     1       0.430  -2.039  -1.292  0.00  0.00    +0.123 C 
ATOM     31  N   UNL     1       0.991  -2.608  -0.057  0.00  0.00    -0.296 N 
ATOM     32  C   UNL     1       0.549  -2.051   1.230  0.00  0.00    +0.123 C 
ATOM     33  C   UNL     1       0.706  -0.527   1.180  0.00  0.00    +0.103 C 
ATOM     34  C   UNL     1       1.886  -3.615  -0.104  0.00  0.00    +0.253 C 
ATOM     35  O   UNL     1       2.239  -4.063  -1.175  0.00  0.00    -0.272 OA
ENDBRANCH  26  34
ENDBRANCH  25  26
ENDBRANCH   1  25
TORSDOF 5
