REMARK  Name = CHEMBL606632
REMARK  5 active torsions:
REMARK  status: ('A' for Active; 'I' for Inactive)
REMARK    1  A    between atoms: C_1  and  C_2
REMARK    2  A    between atoms: C_6  and  C_8
REMARK    3  A    between atoms: C_9  and  C_16
REMARK    4  A    between atoms: N_10  and  C_15
REMARK    5  A    between atoms: N_11  and  C_14
REMARK                            x       y       z     vdW  Elec       q    Type
REMARK                         _______ _______ _______ _____ _____    ______ ____
ROOT
ATOM      1  C   UNL     1       0.043  -2.707   2.512  0.00  0.00    +0.092 A 
ATOM      2  C   UNL     1       0.395  -2.080   3.700  0.00  0.00    +0.080 A 
ATOM      3  N   UNL     1       0.714  -3.052   4.613  0.00  0.00    -0.283 N 
ATOM      4  N   UNL     1       0.569  -4.311   4.022  0.00  0.00    -0.252 N 
ATOM      5  C   UNL     1       0.158  -4.149   2.748  0.00  0.00    +0.277 A 
ATOM      6  O   UNL     1      -0.071  -5.034   1.944  0.00  0.00    -0.265 OA
ATOM      7  C   UNL     1       0.818  -5.596   4.681  0.00  0.00    +0.174 C 
ATOM      8  C   UNL     1       1.140  -2.809   5.993  0.00  0.00    +0.171 C 
ENDROOT
BRANCH   2   9
ATOM      9  C   UNL     1       0.423  -0.625   3.937  0.00  0.00    +0.003 A 
ATOM     10  C   UNL     1      -0.232  -0.087   5.061  0.00  0.00    +0.012 A 
ATOM     11  C   UNL     1      -0.221   1.248   5.300  0.00  0.00    +0.030 A 
ATOM     12  C   UNL     1       0.451   2.117   4.420  0.00  0.00    +0.089 A 
ATOM     13  C   UNL     1       1.116   1.589   3.283  0.00  0.00    +0.090 A 
ATOM     14  C   UNL     1       1.098   0.204   3.054  0.00  0.00    +0.040 A 
ATOM     15  N   UNL     1       1.754   2.416   2.447  0.00  0.00    -0.252 NA
ATOM     16  C   UNL     1       1.760   3.707   2.687  0.00  0.00    +0.131 A 
ATOM     17  C   UNL     1       1.107   4.227   3.806  0.00  0.00    +0.131 A 
ATOM     18  N   UNL     1       0.472   3.435   4.641  0.00  0.00    -0.252 NA
ENDBRANCH   2   9
BRANCH   1  24
ATOM     19  C   UNL     1      -1.123   1.386   0.154  0.00  0.00    +0.065 C 
ATOM     20  C   UNL     1      -0.928  -0.109   0.131  0.00  0.00    +0.039 A 
ATOM     21  C   UNL     1      -1.141  -0.805  -1.043  0.00  0.00    +0.023 A 
ATOM     22  C   UNL     1      -0.961  -2.182  -1.062  0.00  0.00    +0.004 A 
ATOM     23  C   UNL     1      -0.571  -2.813   0.105  0.00  0.00    +0.028 A 
ATOM     24  C   UNL     1      -0.373  -2.048   1.256  0.00  0.00    +0.079 A 
ATOM     25  N   UNL     1      -0.552  -0.732   1.230  0.00  0.00    -0.252 NA
ENDBRANCH   1  24
TORSDOF 2
