REMARK  Name = CHEMBL261674
REMARK  8 active torsions:
REMARK  status: ('A' for Active; 'I' for Inactive)
REMARK    1  A    between atoms: C_1  and  N_2
REMARK    2  A    between atoms: N_5  and  C_8
REMARK    3  A    between atoms: C_8  and  C_9
REMARK    4  A    between atoms: C_9  and  C_10
REMARK    5  A    between atoms: C_10  and  O_11
REMARK    6  A    between atoms: O_11  and  C_12
REMARK    7  A    between atoms: C_16  and  C_22
REMARK    8  A    between atoms: C_26  and  C_27
REMARK                            x       y       z     vdW  Elec       q    Type
REMARK                         _______ _______ _______ _____ _____    ______ ____
ROOT
ATOM      1  C   UNL     1       0.761  -7.976   3.568  0.00  0.00    +0.123 A 
ATOM      2  C   UNL     1       0.346  -8.796   2.514  0.00  0.00    +0.046 A 
ATOM      3  C   UNL     1       0.452 -10.150   2.602  0.00  0.00    +0.014 A 
ATOM      4  C   UNL     1       0.983 -10.735   3.760  0.00  0.00    +0.008 A 
ATOM      5  C   UNL     1       1.107 -12.142   3.882  0.00  0.00    -0.003 A 
ATOM      6  C   UNL     1       1.644 -12.646   5.061  0.00  0.00    +0.029 A 
ATOM      7  C   UNL     1       2.036 -11.772   6.066  0.00  0.00    +0.112 A 
ATOM      8  N   UNL     1       1.915 -10.472   5.939  0.00  0.00    -0.255 NA
ATOM      9  C   UNL     1       1.407  -9.915   4.833  0.00  0.00    +0.075 A 
ATOM     10  C   UNL     1       1.292  -8.520   4.715  0.00  0.00    +0.074 A 
ENDROOT
BRANCH   5  11
ATOM     11  C   UNL     1       0.679 -13.044   2.791  0.00  0.00    +0.033 A 
ATOM     12  C   UNL     1       1.449 -13.497   1.754  0.00  0.00    +0.048 A 
ATOM     13  N   UNL     1       0.693 -14.297   0.983  0.00  0.00    -0.267 N 
ATOM     14  N   UNL     1      -0.602 -14.365   1.524  0.00  0.00    -0.169 NA
ATOM     15  C   UNL     1      -0.649 -13.632   2.613  0.00  0.00    +0.119 A 
ATOM     16  C   UNL     1       1.473 -14.824  -0.151  0.00  0.00    +0.144 C 
ATOM     17  C   UNL     1       2.715 -13.914  -0.259  0.00  0.00    +0.029 C 
ATOM     18  C   UNL     1       2.852 -13.398   1.191  0.00  0.00    +0.057 C 
BRANCH  15  19
ATOM     19  C   UNL     1      -1.825 -13.434   3.493  0.00  0.00    +0.091 A 
ATOM     20  C   UNL     1      -3.110 -13.600   2.978  0.00  0.00    +0.030 A 
ATOM     21  C   UNL     1      -4.198 -13.412   3.812  0.00  0.00    +0.004 A 
ATOM     22  C   UNL     1      -3.966 -13.065   5.136  0.00  0.00    +0.020 A 
ATOM     23  C   UNL     1      -2.665 -12.917   5.580  0.00  0.00    +0.111 A 
ATOM     24  N   UNL     1      -1.646 -13.107   4.767  0.00  0.00    -0.253 NA
ENDBRANCH  15  19
ENDBRANCH   5  11
BRANCH   1  25
ATOM     25  O   UNL     1       0.645  -6.628   3.456  0.00  0.00    -0.492 OA
BRANCH  25  26
ATOM     26  C   UNL     1       0.087  -6.124   2.241  0.00  0.00    +0.227 C 
BRANCH  26  27
ATOM     27  C   UNL     1       0.036  -4.596   2.298  0.00  0.00    +0.022 C 
BRANCH  27  28
ATOM     28  C   UNL     1      -0.562  -4.056   0.998  0.00  0.00    -0.075 C 
BRANCH  28  33
ATOM     29  C   UNL     1      -0.018   1.465   0.010  0.00  0.00    +0.104 C 
ATOM     30  N   UNL     1       0.002  -0.004   0.002  0.00  0.00    -0.309 NA
ATOM     31  C   UNL     1      -1.361  -0.549  -0.076  0.00  0.00    +0.065 C 
ATOM     32  C   UNL     1      -1.293  -2.076  -0.143  0.00  0.00    -0.063 C 
ATOM     33  N   UNL     1      -0.611  -2.589   1.053  0.00  0.00    +0.381 N 
ATOM     34  C   UNL     1       0.757  -2.055   1.104  0.00  0.00    -0.063 C 
ATOM     35  C   UNL     1       0.707  -0.528   1.181  0.00  0.00    +0.065 C 
ATOM     36  H   UNL     1      -1.115  -2.300   1.878  0.00  0.00    -0.082 HD
ENDBRANCH  28  33
ENDBRANCH  27  28
ENDBRANCH  26  27
ENDBRANCH  25  26
ENDBRANCH   1  25
TORSDOF 7
