REMARK  Name = CHEMBL450161
REMARK  6 active torsions:
REMARK  status: ('A' for Active; 'I' for Inactive)
REMARK    1  A    between atoms: C_1  and  C_2
REMARK    2  A    between atoms: C_6  and  C_8
REMARK    3  A    between atoms: C_9  and  C_17
REMARK    4  A    between atoms: C_11  and  N_13
REMARK    5  A    between atoms: N_13  and  C_14
REMARK    6  A    between atoms: C_14  and  C_16
REMARK                            x       y       z     vdW  Elec       q    Type
REMARK                         _______ _______ _______ _____ _____    ______ ____
ROOT
ATOM      1  C   UNL     1      -0.040  -2.639   2.514  0.00  0.00    +0.094 A 
ATOM      2  C   UNL     1       0.598  -2.217   3.666  0.00  0.00    +0.101 A 
ATOM      3  N   UNL     1       0.484  -3.199   4.579  0.00  0.00    -0.212 NA
ATOM      4  C   UNL     1      -0.185  -4.203   4.064  0.00  0.00    +0.221 A 
ATOM      5  N   UNL     1      -0.537  -3.900   2.787  0.00  0.00    -0.323 N 
ATOM      6  H   UNL     1      -1.041  -4.464   2.179  0.00  0.00    +0.169 HD
ENDROOT
BRANCH   2   7
ATOM      7  C   UNL     1       1.284  -0.918   3.860  0.00  0.00    +0.021 A 
ATOM      8  C   UNL     1       2.376  -0.565   3.036  0.00  0.00    +0.015 A 
ATOM      9  C   UNL     1       2.998   0.629   3.223  0.00  0.00    +0.049 A 
ATOM     10  C   UNL     1       2.543   1.495   4.236  0.00  0.00    +0.156 A 
ATOM     11  N   UNL     1       2.944   2.695   4.642  0.00  0.00    -0.215 NA
ATOM     12  C   UNL     1       2.183   3.103   5.648  0.00  0.00    +0.246 A 
ATOM     13  N   UNL     1       1.281   2.189   5.917  0.00  0.00    -0.154 NA
ATOM     14  N   UNL     1       1.485   1.131   5.020  0.00  0.00    -0.220 N 
ATOM     15  C   UNL     1       0.859  -0.059   4.831  0.00  0.00    +0.124 A 
ENDBRANCH   2   7
BRANCH   1  21
ATOM     16  C   UNL     1      -0.185   1.647   0.222  0.00  0.00    +0.065 C 
ATOM     17  C   UNL     1      -0.240   0.142   0.155  0.00  0.00    +0.039 A 
ATOM     18  C   UNL     1      -0.407  -0.480  -1.068  0.00  0.00    +0.023 A 
ATOM     19  C   UNL     1      -0.457  -1.867  -1.127  0.00  0.00    +0.004 A 
ATOM     20  C   UNL     1      -0.337  -2.584   0.049  0.00  0.00    +0.030 A 
ATOM     21  C   UNL     1      -0.170  -1.891   1.251  0.00  0.00    +0.090 A 
ATOM     22  N   UNL     1      -0.122  -0.562   1.263  0.00  0.00    -0.250 NA
ENDBRANCH   1  21
BRANCH   4  23
ATOM     23  N   UNL     1      -0.490  -5.384   4.722  0.00  0.00    -0.150 NA
BRANCH  23  24
ATOM     24  C   UNL     1      -0.092  -5.569   5.996  0.00  0.00    +0.176 C 
ATOM     25  O   UNL     1       0.534  -4.701   6.567  0.00  0.00    -0.497 OA
ATOM     26  C   UNL     1      -0.424  -6.853   6.712  0.00  0.00    +0.106 C 
ATOM     27  H   UNL     1       0.776  -4.924   7.477  0.00  0.00    +0.293 HD
ENDBRANCH  23  24
ENDBRANCH   4  23
TORSDOF 4
