REMARK  Name = CHEMBL381532
REMARK  7 active torsions:
REMARK  status: ('A' for Active; 'I' for Inactive)
REMARK    1  A    between atoms: C_1  and  C_2
REMARK    2  A    between atoms: C_6  and  C_8
REMARK    3  A    between atoms: C_9  and  C_16
REMARK    4  A    between atoms: N_22  and  C_25
REMARK    5  A    between atoms: C_25  and  C_26
REMARK    6  A    between atoms: C_26  and  C_27
REMARK    7  A    between atoms: C_27  and  N_28
REMARK                            x       y       z     vdW  Elec       q    Type
REMARK                         _______ _______ _______ _____ _____    ______ ____
ROOT
ATOM      1  C   UNL     1       1.102  -0.796   3.919  0.00  0.00    -0.012 A 
ATOM      2  C   UNL     1       2.444  -0.655   4.285  0.00  0.00    +0.011 A 
ATOM      3  C   UNL     1       2.985   0.582   4.475  0.00  0.00    +0.030 A 
ATOM      4  C   UNL     1       2.196   1.725   4.305  0.00  0.00    +0.089 A 
ATOM      5  C   UNL     1       0.846   1.590   3.937  0.00  0.00    +0.069 A 
ATOM      6  C   UNL     1       0.305   0.329   3.740  0.00  0.00    +0.036 A 
ATOM      7  N   UNL     1       0.345   2.874   3.850  0.00  0.00    -0.330 N 
ATOM      8  C   UNL     1       1.361   3.726   4.154  0.00  0.00    +0.200 A 
ATOM      9  N   UNL     1       2.443   3.055   4.420  0.00  0.00    -0.236 NA
ENDROOT
BRANCH   1  11
ATOM     10  C   UNL     1       0.051  -2.682   2.494  0.00  0.00    +0.119 A 
ATOM     11  C   UNL     1       0.528  -2.149   3.716  0.00  0.00    +0.032 A 
ATOM     12  C   UNL     1       0.364  -3.108   4.673  0.00  0.00    +0.048 A 
ATOM     13  N   UNL     1      -0.190  -4.188   4.090  0.00  0.00    -0.267 N 
ATOM     14  N   UNL     1      -0.381  -3.901   2.727  0.00  0.00    -0.169 NA
ATOM     15  C   UNL     1      -0.404  -5.265   5.071  0.00  0.00    +0.144 C 
ATOM     16  C   UNL     1       0.484  -4.905   6.281  0.00  0.00    +0.029 C 
ATOM     17  C   UNL     1       0.591  -3.369   6.148  0.00  0.00    +0.057 C 
BRANCH  10  23
ATOM     18  C   UNL     1      -0.018   1.503   0.010  0.00  0.00    +0.065 C 
ATOM     19  C   UNL     1       0.002  -0.004   0.002  0.00  0.00    +0.039 A 
ATOM     20  C   UNL     1       0.006  -0.679  -1.205  0.00  0.00    +0.023 A 
ATOM     21  C   UNL     1       0.025  -2.067  -1.208  0.00  0.00    +0.004 A 
ATOM     22  C   UNL     1       0.040  -2.731   0.006  0.00  0.00    +0.030 A 
ATOM     23  C   UNL     1       0.035  -1.986   1.185  0.00  0.00    +0.092 A 
ATOM     24  N   UNL     1       0.022  -0.660   1.145  0.00  0.00    -0.250 NA
ENDBRANCH  10  23
ENDBRANCH   1  11
BRANCH   7  25
ATOM     25  C   UNL     1      -1.026   3.248   3.495  0.00  0.00    +0.121 C 
BRANCH  25  26
ATOM     26  C   UNL     1      -1.907   3.206   4.745  0.00  0.00    +0.003 C 
BRANCH  26  27
ATOM     27  C   UNL     1      -3.339   3.597   4.374  0.00  0.00    -0.077 C 
BRANCH  27  28
ATOM     28  N   UNL     1      -4.184   3.557   5.575  0.00  0.00    +0.383 N 
ATOM     29  C   UNL     1      -4.274   2.174   6.064  0.00  0.00    -0.050 C 
ATOM     30  C   UNL     1      -5.155   2.134   7.315  0.00  0.00    +0.141 C 
ATOM     31  O   UNL     1      -6.445   2.665   7.000  0.00  0.00    -0.383 OA
ATOM     32  C   UNL     1      -6.408   4.003   6.497  0.00  0.00    +0.141 C 
ATOM     33  C   UNL     1      -5.529   4.047   5.244  0.00  0.00    -0.050 C 
ATOM     34  H   UNL     1      -3.780   4.141   6.291  0.00  0.00    -0.082 HD
ENDBRANCH  27  28
ENDBRANCH  26  27
ENDBRANCH  25  26
ENDBRANCH   7  25
TORSDOF 6
