REMARK  Name = CHEMBL564250
REMARK  4 active torsions:
REMARK  status: ('A' for Active; 'I' for Inactive)
REMARK    1  A    between atoms: C_1  and  C_2
REMARK    2  A    between atoms: C_6  and  C_8
REMARK    3  A    between atoms: C_12  and  C_17
REMARK    4  A    between atoms: N_18  and  C_19
REMARK                            x       y       z     vdW  Elec       q    Type
REMARK                         _______ _______ _______ _____ _____    ______ ____
ROOT
ATOM      1  C   UNL     1       0.944  -2.322   2.905  0.00  0.00    +0.181 A 
ATOM      2  N   UNL     1       0.344  -1.748   3.943  0.00  0.00    -0.210 NA
ATOM      3  C   UNL     1       0.024  -2.425   5.031  0.00  0.00    +0.135 A 
ATOM      4  C   UNL     1       0.326  -3.814   5.101  0.00  0.00    +0.051 A 
ATOM      5  C   UNL     1       0.078  -4.763   6.171  0.00  0.00    -0.031 A 
ATOM      6  C   UNL     1       0.455  -6.042   6.013  0.00  0.00    +0.051 A 
ATOM      7  S   UNL     1       1.184  -6.064   4.386  0.00  0.00    -0.077 S 
ATOM      8  C   UNL     1       0.963  -4.357   3.962  0.00  0.00    +0.114 A 
ATOM      9  N   UNL     1       1.245  -3.614   2.912  0.00  0.00    -0.219 NA
ATOM     10  C   UNL     1      -0.594  -4.318   7.444  0.00  0.00    +0.045 C 
ATOM     11  N   UNL     1      -0.600  -1.790   6.092  0.00  0.00    -0.299 N 
ATOM     12  H   UNL     1      -0.881  -2.302   6.866  0.00  0.00    +0.154 HD
ENDROOT
BRANCH   1  18
ATOM     13  C   UNL     1       0.897   2.013   0.694  0.00  0.00    +0.065 C 
ATOM     14  C   UNL     1       1.257   0.550   0.661  0.00  0.00    +0.039 A 
ATOM     15  C   UNL     1       1.875   0.024  -0.460  0.00  0.00    +0.023 A 
ATOM     16  C   UNL     1       2.204  -1.323  -0.486  0.00  0.00    +0.004 A 
ATOM     17  C   UNL     1       1.900  -2.099   0.619  0.00  0.00    +0.031 A 
ATOM     18  C   UNL     1       1.277  -1.504   1.714  0.00  0.00    +0.108 A 
ATOM     19  N   UNL     1       0.983  -0.210   1.701  0.00  0.00    -0.249 NA
ENDBRANCH   1  18
BRANCH  11  20
ATOM     20  C   UNL     1      -0.824  -0.415   6.048  0.00  0.00    +0.035 A 
ATOM     21  C   UNL     1      -1.101   0.226   4.841  0.00  0.00    +0.043 A 
ATOM     22  C   UNL     1      -1.317   1.588   4.839  0.00  0.00    +0.112 A 
ATOM     23  N   UNL     1      -1.262   2.283   5.960  0.00  0.00    -0.263 NA
ATOM     24  C   UNL     1      -1.001   1.713   7.122  0.00  0.00    +0.112 A 
ATOM     25  C   UNL     1      -0.781   0.354   7.210  0.00  0.00    +0.043 A 
ENDBRANCH  11  20
TORSDOF 2
