REMARK  Name = CHEMBL450161
REMARK  5 active torsions:
REMARK  status: ('A' for Active; 'I' for Inactive)
REMARK    1  A    between atoms: C_1  and  C_2
REMARK    2  A    between atoms: C_6  and  C_8
REMARK    3  A    between atoms: C_9  and  C_17
REMARK    4  A    between atoms: N_13  and  C_14
REMARK    5  A    between atoms: C_14  and  C_16
REMARK                            x       y       z     vdW  Elec       q    Type
REMARK                         _______ _______ _______ _____ _____    ______ ____
ROOT
ATOM      1  C   UNL     1      -0.761  -2.565   2.539  0.00  0.00    +0.092 A 
ATOM      2  C   UNL     1      -0.816  -1.896   3.723  0.00  0.00    +0.076 A 
ATOM      3  N   UNL     1      -0.558  -2.805   4.734  0.00  0.00    -0.325 N 
ATOM      4  C   UNL     1      -0.348  -4.022   4.166  0.00  0.00    +0.198 A 
ATOM      5  N   UNL     1      -0.474  -3.894   2.821  0.00  0.00    -0.324 N 
ATOM      6  N   UNL     1      -0.070  -5.149   4.819  0.00  0.00    -0.151 NA
ATOM      7  H   UNL     1      -0.379  -4.606   2.169  0.00  0.00    +0.169 HD
ATOM      8  H   UNL     1      -0.533  -2.609   5.683  0.00  0.00    +0.169 HD
ENDROOT
BRANCH   2   9
ATOM      9  C   UNL     1      -1.099  -0.456   3.897  0.00  0.00    +0.019 A 
ATOM     10  C   UNL     1      -1.469   0.333   2.783  0.00  0.00    +0.015 A 
ATOM     11  C   UNL     1      -1.727   1.656   2.957  0.00  0.00    +0.049 A 
ATOM     12  C   UNL     1      -1.622   2.220   4.243  0.00  0.00    +0.156 A 
ATOM     13  N   UNL     1      -1.808   3.452   4.704  0.00  0.00    -0.215 NA
ATOM     14  C   UNL     1      -1.582   3.479   6.010  0.00  0.00    +0.246 A 
ATOM     15  N   UNL     1      -1.246   2.280   6.424  0.00  0.00    -0.154 NA
ATOM     16  N   UNL     1      -1.262   1.437   5.304  0.00  0.00    -0.220 N 
ATOM     17  C   UNL     1      -1.008   0.114   5.136  0.00  0.00    +0.124 A 
ENDBRANCH   2   9
BRANCH   1  23
ATOM     18  C   UNL     1      -3.854  -1.273  -0.984  0.00  0.00    +0.065 C 
ATOM     19  C   UNL     1      -2.437  -1.368  -0.478  0.00  0.00    +0.039 A 
ATOM     20  C   UNL     1      -1.398  -0.916  -1.270  0.00  0.00    +0.023 A 
ATOM     21  C   UNL     1      -0.094  -1.005  -0.801  0.00  0.00    +0.004 A 
ATOM     22  C   UNL     1       0.122  -1.547   0.452  0.00  0.00    +0.030 A 
ATOM     23  C   UNL     1      -0.973  -1.984   1.200  0.00  0.00    +0.089 A 
ATOM     24  N   UNL     1      -2.207  -1.876   0.716  0.00  0.00    -0.250 NA
ENDBRANCH   1  23
BRANCH   6  25
ATOM     25  C   UNL     1       0.213  -5.113   6.116  0.00  0.00    +0.176 C 
ATOM     26  O   UNL     1       0.135  -4.063   6.726  0.00  0.00    -0.497 OA
ATOM     27  C   UNL     1       0.632  -6.371   6.832  0.00  0.00    +0.106 C 
ATOM     28  H   UNL     1       0.270  -4.152   7.680  0.00  0.00    +0.293 HD
ENDBRANCH   6  25
TORSDOF 3
