REMARK  Name = CHEMBL360034
REMARK  3 active torsions:
REMARK  status: ('A' for Active; 'I' for Inactive)
REMARK    1  A    between atoms: C_1  and  C_2
REMARK    2  A    between atoms: C_6  and  C_8
REMARK    3  A    between atoms: C_9  and  C_14
REMARK                            x       y       z     vdW  Elec       q    Type
REMARK                         _______ _______ _______ _____ _____    ______ ____
ROOT
ATOM      1  C   UNL     1       0.146  -2.642   2.522  0.00  0.00    +0.108 A 
ATOM      2  C   UNL     1       0.764  -2.036   3.615  0.00  0.00    +0.068 A 
ATOM      3  S   UNL     1       0.828  -3.406   4.758  0.00  0.00    -0.050 S 
ATOM      4  C   UNL     1       0.096  -4.565   3.784  0.00  0.00    +0.157 A 
ATOM      5  N   UNL     1      -0.172  -3.918   2.671  0.00  0.00    -0.223 NA
ATOM      6  N   UNL     1      -0.167  -5.888   4.085  0.00  0.00    -0.337 N 
ATOM      7  H   UNL     1       0.079  -6.247   4.952  0.00  0.00    +0.144 HD
ATOM      8  H   UNL     1      -0.598  -6.458   3.429  0.00  0.00    +0.144 HD
ENDROOT
BRANCH   2   9
ATOM      9  C   UNL     1       1.235  -0.651   3.780  0.00  0.00    +0.081 A 
ATOM     10  C   UNL     1       0.915   0.051   4.958  0.00  0.00    +0.031 A 
ATOM     11  C   UNL     1       1.345   1.331   5.123  0.00  0.00    +0.032 A 
ATOM     12  C   UNL     1       2.108   1.922   4.091  0.00  0.00    +0.089 A 
ATOM     13  C   UNL     1       2.396   1.163   2.931  0.00  0.00    +0.090 A 
ATOM     14  N   UNL     1       1.955  -0.092   2.821  0.00  0.00    -0.245 NA
ATOM     15  C   UNL     1       3.157   1.757   1.905  0.00  0.00    +0.031 A 
ATOM     16  C   UNL     1       3.584   3.043   2.078  0.00  0.00    +0.022 A 
ATOM     17  C   UNL     1       3.264   3.731   3.246  0.00  0.00    +0.111 A 
ATOM     18  N   UNL     1       2.555   3.174   4.200  0.00  0.00    -0.253 NA
ENDBRANCH   2   9
BRANCH   1  24
ATOM     19  C   UNL     1      -0.749   1.605   0.322  0.00  0.00    +0.065 C 
ATOM     20  C   UNL     1      -0.568   0.112   0.224  0.00  0.00    +0.039 A 
ATOM     21  C   UNL     1      -0.677  -0.509  -1.007  0.00  0.00    +0.023 A 
ATOM     22  C   UNL     1      -0.511  -1.885  -1.093  0.00  0.00    +0.004 A 
ATOM     23  C   UNL     1      -0.239  -2.591   0.066  0.00  0.00    +0.030 A 
ATOM     24  C   UNL     1      -0.143  -1.901   1.274  0.00  0.00    +0.091 A 
ATOM     25  N   UNL     1      -0.304  -0.583   1.312  0.00  0.00    -0.250 NA
ENDBRANCH   1  24
TORSDOF 2
