REMARK  Name = CHEMBL208437
REMARK  7 active torsions:
REMARK  status: ('A' for Active; 'I' for Inactive)
REMARK    1  A    between atoms: C_5  and  C_7
REMARK    2  A    between atoms: C_8  and  C_13
REMARK    3  A    between atoms: C_17  and  C_19
REMARK    4  A    between atoms: C_22  and  O_25
REMARK    5  A    between atoms: O_25  and  C_26
REMARK    6  A    between atoms: C_26  and  C_27
REMARK    7  A    between atoms: C_27  and  N_28
REMARK                            x       y       z     vdW  Elec       q    Type
REMARK                         _______ _______ _______ _____ _____    ______ ____
ROOT
ATOM      1  C   UNL     1       3.563  -2.466  -1.119  0.00  0.00    -0.011 A 
ATOM      2  C   UNL     1       3.554  -1.506  -2.138  0.00  0.00    +0.028 A 
ATOM      3  C   UNL     1       4.752  -1.089  -2.682  0.00  0.00    +0.112 A 
ATOM      4  N   UNL     1       5.899  -1.581  -2.256  0.00  0.00    -0.255 NA
ATOM      5  C   UNL     1       5.957  -2.493  -1.292  0.00  0.00    +0.072 A 
ATOM      6  C   UNL     1       4.795  -2.961  -0.688  0.00  0.00    +0.037 A 
ENDROOT
BRANCH   1   8
ATOM      7  C   UNL     1       1.270  -2.142  -0.023  0.00  0.00    +0.092 A 
ATOM      8  C   UNL     1       2.298  -2.939  -0.510  0.00  0.00    +0.029 A 
ATOM      9  C   UNL     1       1.915  -4.278  -0.318  0.00  0.00    +0.143 A 
ATOM     10  N   UNL     1       0.737  -4.296   0.246  0.00  0.00    -0.181 NA
ATOM     11  H   UNL     1      -0.534  -2.712   0.855  0.00  0.00    +0.189 HD
ATOM     12  N   UNL     1       0.306  -2.980   0.450  0.00  0.00    -0.275 N 
BRANCH   7  17
ATOM     13  C   UNL     1      -0.017   1.379   0.010  0.00  0.00    +0.004 A 
ATOM     14  C   UNL     1       1.194   2.059   0.002  0.00  0.00    +0.020 A 
ATOM     15  C   UNL     1       2.376   1.341  -0.013  0.00  0.00    +0.111 A 
ATOM     16  N   UNL     1       2.368   0.024  -0.021  0.00  0.00    -0.253 NA
ATOM     17  C   UNL     1       1.232  -0.665  -0.014  0.00  0.00    +0.089 A 
ATOM     18  C   UNL     1       0.002  -0.004   0.002  0.00  0.00    +0.030 A 
ENDBRANCH   7  17
ENDBRANCH   1   8
BRANCH   5  19
ATOM     19  C   UNL     1       7.274  -3.012  -0.852  0.00  0.00    +0.001 A 
ATOM     20  C   UNL     1       7.345  -3.974   0.155  0.00  0.00    +0.013 A 
ATOM     21  C   UNL     1       8.571  -4.455   0.562  0.00  0.00    +0.046 A 
ATOM     22  C   UNL     1       9.735  -3.983  -0.029  0.00  0.00    +0.121 A 
ATOM     23  C   UNL     1       9.668  -3.026  -1.033  0.00  0.00    +0.046 A 
ATOM     24  C   UNL     1       8.445  -2.545  -1.448  0.00  0.00    +0.013 A 
BRANCH  22  25
ATOM     25  O   UNL     1      10.942  -4.459   0.374  0.00  0.00    -0.490 OA
BRANCH  25  26
ATOM     26  C   UNL     1      12.098  -3.930  -0.277  0.00  0.00    +0.250 C 
BRANCH  26  27
ATOM     27  C   UNL     1      13.354  -4.580   0.307  0.00  0.00    +0.163 C 
BRANCH  27  28
ATOM     28  N   UNL     1      14.540  -4.038  -0.361  0.00  0.00    -0.334 N 
ATOM     29  C   UNL     1      15.133  -4.532  -1.491  0.00  0.00    +0.107 A 
ATOM     30  C   UNL     1      16.186  -3.737  -1.758  0.00  0.00    +0.130 A 
ATOM     31  N   UNL     1      16.235  -2.783  -0.817  0.00  0.00    -0.244 NA
ATOM     32  C   UNL     1      15.249  -2.954   0.021  0.00  0.00    +0.199 A 
ENDBRANCH  27  28
ENDBRANCH  26  27
ENDBRANCH  25  26
ENDBRANCH  22  25
ENDBRANCH   5  19
TORSDOF 7
