REMARK  Name = CHEMBL575492
REMARK  9 active torsions:
REMARK  status: ('A' for Active; 'I' for Inactive)
REMARK    1  A    between atoms: C_1  and  C_2
REMARK    2  A    between atoms: C_4  and  O_15
REMARK    3  A    between atoms: C_5  and  C_9
REMARK    4  A    between atoms: C_7  and  C_8
REMARK    5  A    between atoms: O_15  and  C_16
REMARK    6  A    between atoms: C_20  and  N_22
REMARK    7  A    between atoms: N_22  and  C_23
REMARK    8  A    between atoms: C_28  and  O_29
REMARK    9  A    between atoms: O_29  and  C_30
REMARK                            x       y       z     vdW  Elec       q    Type
REMARK                         _______ _______ _______ _____ _____    ______ ____
ROOT
ATOM      1  C   UNL     1      -0.646  -2.206  -3.561  0.00  0.00    +0.133 A 
ATOM      2  C   UNL     1      -0.552  -0.819  -3.677  0.00  0.00    +0.066 A 
ATOM      3  C   UNL     1      -0.346  -0.259  -4.920  0.00  0.00    +0.116 A 
ATOM      4  N   UNL     1      -0.238  -1.017  -5.995  0.00  0.00    -0.240 NA
ATOM      5  C   UNL     1      -0.322  -2.338  -5.929  0.00  0.00    +0.126 A 
ATOM      6  C   UNL     1      -0.522  -2.975  -4.712  0.00  0.00    +0.090 A 
ENDROOT
BRANCH   5   7
ATOM      7  N   UNL     1      -0.201  -3.095  -7.090  0.00  0.00    -0.297 N 
ATOM      8  H   UNL     1      -0.153  -4.062  -7.036  0.00  0.00    +0.154 HD
BRANCH   7   9
ATOM      9  C   UNL     1      -0.150  -2.460  -8.337  0.00  0.00    +0.075 A 
ATOM     10  C   UNL     1      -0.734  -1.213  -8.508  0.00  0.00    +0.027 A 
ATOM     11  C   UNL     1      -0.682  -0.589  -9.739  0.00  0.00    +0.002 A 
ATOM     12  C   UNL     1      -0.048  -1.203 -10.804  0.00  0.00    +0.004 A 
ATOM     13  C   UNL     1       0.536  -2.446 -10.641  0.00  0.00    +0.047 A 
ATOM     14  C   UNL     1       0.493  -3.076  -9.409  0.00  0.00    +0.141 A 
BRANCH  14  15
ATOM     15  O   UNL     1       1.073  -4.295  -9.246  0.00  0.00    -0.493 OA
ATOM     16  C   UNL     1       1.715  -4.866 -10.388  0.00  0.00    +0.277 C 
ENDBRANCH  14  15
ENDBRANCH   7   9
ENDBRANCH   5   7
BRANCH   1  17
ATOM     17  O   UNL     1      -0.849  -2.790  -2.352  0.00  0.00    -0.454 OA
BRANCH  17  21
ATOM     18  C   UNL     1      -5.635  -1.903  -2.880  0.00  0.00    +0.046 C 
ATOM     19  C   UNL     1      -4.462  -2.463  -2.118  0.00  0.00    -0.026 A 
ATOM     20  C   UNL     1      -3.178  -2.348  -2.627  0.00  0.00    +0.053 A 
ATOM     21  C   UNL     1      -2.124  -2.879  -1.893  0.00  0.00    +0.156 A 
ATOM     22  C   UNL     1      -2.397  -3.506  -0.673  0.00  0.00    +0.131 A 
ATOM     23  N   UNL     1      -3.643  -3.593  -0.226  0.00  0.00    -0.246 NA
ATOM     24  C   UNL     1      -4.656  -3.092  -0.901  0.00  0.00    +0.042 A 
ATOM     25  C   UNL     1      -6.051  -3.213  -0.343  0.00  0.00    +0.066 C 
BRANCH  22  26
ATOM     26  C   UNL     1      -1.286  -4.079   0.125  0.00  0.00    +0.093 A 
ATOM     27  C   UNL     1      -1.432  -4.228   1.503  0.00  0.00    +0.030 A 
ATOM     28  C   UNL     1      -0.387  -4.765   2.235  0.00  0.00    +0.004 A 
ATOM     29  C   UNL     1       0.771  -5.134   1.564  0.00  0.00    +0.020 A 
ATOM     30  C   UNL     1       0.847  -4.957   0.195  0.00  0.00    +0.111 A 
ATOM     31  N   UNL     1      -0.165  -4.449  -0.479  0.00  0.00    -0.253 NA
ENDBRANCH  22  26
ENDBRANCH  17  21
ENDBRANCH   1  17
TORSDOF 6
