REMARK  Name = CHEMBL519948
REMARK  3 active torsions:
REMARK  status: ('A' for Active; 'I' for Inactive)
REMARK    1  A    between atoms: C_1  and  C_2
REMARK    2  A    between atoms: C_6  and  C_8
REMARK    3  A    between atoms: C_9  and  C_14
REMARK                            x       y       z     vdW  Elec       q    Type
REMARK                         _______ _______ _______ _____ _____    ______ ____
ROOT
ATOM      1  C   UNL     1      -0.097  -2.612   2.545  0.00  0.00    +0.106 A 
ATOM      2  C   UNL     1       0.641  -2.090   3.603  0.00  0.00    +0.050 A 
ATOM      3  S   UNL     1       0.548  -3.443   4.768  0.00  0.00    -0.052 S 
ATOM      4  C   UNL     1      -0.437  -4.542   3.761  0.00  0.00    +0.157 A 
ATOM      5  N   UNL     1      -0.615  -3.822   2.668  0.00  0.00    -0.223 NA
ATOM      6  N   UNL     1      -0.898  -5.813   4.052  0.00  0.00    -0.337 N 
ATOM      7  H   UNL     1      -0.690  -6.220   4.908  0.00  0.00    +0.144 HD
ATOM      8  H   UNL     1      -1.429  -6.298   3.401  0.00  0.00    +0.144 HD
ENDROOT
BRANCH   2   9
ATOM      9  C   UNL     1       1.314  -0.784   3.729  0.00  0.00    -0.007 A 
ATOM     10  C   UNL     1       1.114  -0.003   4.883  0.00  0.00    +0.011 A 
ATOM     11  C   UNL     1       1.722   1.202   5.021  0.00  0.00    +0.030 A 
ATOM     12  C   UNL     1       2.566   1.687   4.003  0.00  0.00    +0.089 A 
ATOM     13  C   UNL     1       2.776   0.909   2.835  0.00  0.00    +0.090 A 
ATOM     14  C   UNL     1       2.143  -0.337   2.712  0.00  0.00    +0.039 A 
ATOM     15  N   UNL     1       3.580   1.371   1.869  0.00  0.00    -0.252 NA
ATOM     16  C   UNL     1       4.165   2.539   2.012  0.00  0.00    +0.131 A 
ATOM     17  C   UNL     1       3.958   3.303   3.161  0.00  0.00    +0.131 A 
ATOM     18  N   UNL     1       3.173   2.871   4.123  0.00  0.00    -0.252 NA
ENDBRANCH   2   9
BRANCH   1  24
ATOM     19  C   UNL     1      -0.408   1.740   0.391  0.00  0.00    +0.065 C 
ATOM     20  C   UNL     1      -0.453   0.238   0.281  0.00  0.00    +0.039 A 
ATOM     21  C   UNL     1      -0.681  -0.349  -0.950  0.00  0.00    +0.023 A 
ATOM     22  C   UNL     1      -0.721  -1.733  -1.048  0.00  0.00    +0.004 A 
ATOM     23  C   UNL     1      -0.529  -2.483   0.099  0.00  0.00    +0.030 A 
ATOM     24  C   UNL     1      -0.304  -1.825   1.309  0.00  0.00    +0.091 A 
ATOM     25  N   UNL     1      -0.268  -0.498   1.358  0.00  0.00    -0.250 NA
ENDBRANCH   1  24
TORSDOF 2
