REMARK  Name = CHEMBL481546
REMARK  3 active torsions:
REMARK  status: ('A' for Active; 'I' for Inactive)
REMARK    1  A    between atoms: C_1  and  C_2
REMARK    2  A    between atoms: C_6  and  C_8
REMARK    3  A    between atoms: C_9  and  C_20
REMARK                            x       y       z     vdW  Elec       q    Type
REMARK                         _______ _______ _______ _____ _____    ______ ____
ROOT
ATOM      1  C   UNL     1       0.051  -2.682   2.491  0.00  0.00    +0.092 A 
ATOM      2  C   UNL     1       0.516  -2.164   3.684  0.00  0.00    +0.076 A 
ATOM      3  N   UNL     1       0.338  -3.152   4.632  0.00  0.00    -0.327 N 
ATOM      4  H   UNL     1       0.567  -3.094   5.573  0.00  0.00    +0.169 HD
ATOM      5  C   UNL     1      -0.220  -4.222   4.000  0.00  0.00    +0.174 A 
ATOM      6  N   UNL     1      -0.392  -3.934   2.733  0.00  0.00    -0.326 N 
ATOM      7  N   UNL     1      -0.556  -5.421   4.602  0.00  0.00    -0.303 N 
ATOM      8  C   UNL     1      -1.046  -6.549   3.799  0.00  0.00    +0.108 C 
ATOM      9  C   UNL     1      -0.188  -7.781   4.103  0.00  0.00    +0.019 C 
ATOM     10  C   UNL     1      -0.187  -8.037   5.612  0.00  0.00    +0.003 C 
ATOM     11  C   UNL     1       0.422  -6.833   6.335  0.00  0.00    +0.019 C 
ATOM     12  C   UNL     1      -0.424  -5.593   6.055  0.00  0.00    +0.108 C 
ATOM     13  H   UNL     1      -0.776  -4.529   2.071  0.00  0.00    +0.169 HD
ENDROOT
BRANCH   2  14
ATOM     14  C   UNL     1       1.090  -0.821   3.902  0.00  0.00    +0.019 A 
ATOM     15  C   UNL     1       0.245   0.314   3.942  0.00  0.00    +0.015 A 
ATOM     16  C   UNL     1       0.787   1.543   4.144  0.00  0.00    +0.049 A 
ATOM     17  C   UNL     1       2.179   1.672   4.310  0.00  0.00    +0.156 A 
ATOM     18  N   UNL     1       2.966   2.723   4.518  0.00  0.00    -0.215 NA
ATOM     19  C   UNL     1       4.227   2.325   4.608  0.00  0.00    +0.246 A 
ATOM     20  N   UNL     1       4.290   1.022   4.463  0.00  0.00    -0.154 NA
ATOM     21  N   UNL     1       2.979   0.566   4.268  0.00  0.00    -0.220 N 
ATOM     22  C   UNL     1       2.447  -0.669   4.072  0.00  0.00    +0.124 A 
ENDBRANCH   2  14
BRANCH   1  28
ATOM     23  C   UNL     1      -0.018   1.503   0.010  0.00  0.00    +0.068 C 
ATOM     24  C   UNL     1       0.002  -0.004   0.002  0.00  0.00    +0.074 A 
ATOM     25  C   UNL     1       0.006  -0.681  -1.206  0.00  0.00    +0.144 A 
ATOM     26  C   UNL     1       0.025  -2.071  -1.209  0.00  0.00    +0.042 A 
ATOM     27  C   UNL     1       0.040  -2.733   0.005  0.00  0.00    +0.033 A 
ATOM     28  C   UNL     1       0.035  -1.988   1.185  0.00  0.00    +0.090 A 
ATOM     29  N   UNL     1       0.022  -0.660   1.144  0.00  0.00    -0.247 NA
ATOM     30  F   UNL     1      -0.010   0.003  -2.371  0.00  0.00    -0.204 F 
ENDBRANCH   1  28
TORSDOF 2
