REMARK  Name = CHEMBL238125
REMARK  3 active torsions:
REMARK  status: ('A' for Active; 'I' for Inactive)
REMARK    1  A    between atoms: C_4  and  C_8
REMARK    2  A    between atoms: C_12  and  N_14
REMARK    3  A    between atoms: N_14  and  C_15
REMARK                            x       y       z     vdW  Elec       q    Type
REMARK                         _______ _______ _______ _____ _____    ______ ____
ROOT
ATOM      1  C   UNL     1       4.167  -1.529  -2.280  0.00  0.00    +0.167 A 
ATOM      2  N   UNL     1       5.244  -0.769  -2.254  0.00  0.00    -0.206 NA
ATOM      3  C   UNL     1       6.264  -1.044  -1.433  0.00  0.00    +0.184 A 
ATOM      4  C   UNL     1       6.168  -2.176  -0.585  0.00  0.00    +0.148 A 
ATOM      5  C   UNL     1       4.949  -2.983  -0.657  0.00  0.00    +0.155 A 
ATOM      6  N   UNL     1       4.008  -2.602  -1.509  0.00  0.00    -0.210 NA
ATOM      7  N   UNL     1       7.165  -2.475   0.242  0.00  0.00    -0.247 NA
ATOM      8  C   UNL     1       8.238  -1.714   0.267  0.00  0.00    +0.131 A 
ATOM      9  C   UNL     1       8.338  -0.598  -0.566  0.00  0.00    +0.133 A 
ATOM     10  N   UNL     1       7.363  -0.285  -1.392  0.00  0.00    -0.233 NA
ENDROOT
BRANCH   1  14
ATOM     11  C   UNL     1       1.032  -0.488  -4.959  0.00  0.00    +0.023 A 
ATOM     12  C   UNL     1       2.220   0.217  -4.985  0.00  0.00    +0.040 A 
ATOM     13  C   UNL     1       3.244  -0.115  -4.117  0.00  0.00    +0.134 A 
ATOM     14  C   UNL     1       3.074  -1.167  -3.213  0.00  0.00    +0.056 A 
ATOM     15  C   UNL     1       1.873  -1.874  -3.193  0.00  0.00    +0.034 A 
ATOM     16  C   UNL     1       0.859  -1.532  -4.065  0.00  0.00    +0.042 A 
ATOM     17 CL   UNL     1      -0.638  -2.411  -4.040  0.00  0.00    -0.084 Cl
ATOM     18  F   UNL     1       4.405   0.574  -4.143  0.00  0.00    -0.205 F 
ENDBRANCH   1  14
BRANCH   5  19
ATOM     19  N   UNL     1       4.784  -4.098   0.137  0.00  0.00    -0.298 N 
ATOM     20  H   UNL     1       5.514  -4.409   0.695  0.00  0.00    +0.154 HD
BRANCH  19  21
ATOM     21  C   UNL     1       3.568  -4.779   0.138  0.00  0.00    +0.035 A 
ATOM     22  C   UNL     1       2.367  -4.099  -0.064  0.00  0.00    +0.043 A 
ATOM     23  C   UNL     1       1.185  -4.809  -0.055  0.00  0.00    +0.112 A 
ATOM     24  N   UNL     1       1.181  -6.114   0.141  0.00  0.00    -0.263 NA
ATOM     25  C   UNL     1       2.296  -6.794   0.335  0.00  0.00    +0.112 A 
ATOM     26  C   UNL     1       3.520  -6.159   0.335  0.00  0.00    +0.043 A 
ENDBRANCH  19  21
ENDBRANCH   5  19
TORSDOF 3
