REMARK  Name = CHEMBL565422
REMARK  7 active torsions:
REMARK  status: ('A' for Active; 'I' for Inactive)
REMARK    1  A    between atoms: C_1  and  C_2
REMARK    2  A    between atoms: C_6  and  C_8
REMARK    3  A    between atoms: C_9  and  C_25
REMARK    4  A    between atoms: C_11  and  C_14
REMARK    5  A    between atoms: C_14  and  N_15
REMARK    6  A    between atoms: N_15  and  C_16
REMARK    7  A    between atoms: C_19  and  C_22
REMARK                            x       y       z     vdW  Elec       q    Type
REMARK                         _______ _______ _______ _____ _____    ______ ____
ROOT
ATOM      1  C   UNL     1      -0.053  -2.632   2.522  0.00  0.00    +0.093 A 
ATOM      2  C   UNL     1       0.599  -2.217   3.670  0.00  0.00    +0.098 A 
ATOM      3  N   UNL     1       0.494  -3.210   4.572  0.00  0.00    -0.230 NA
ATOM      4  C   UNL     1      -0.176  -4.202   4.054  0.00  0.00    +0.125 A 
ATOM      5  N   UNL     1      -0.541  -3.890   2.792  0.00  0.00    -0.339 N 
ATOM      6  H   UNL     1      -1.051  -4.451   2.186  0.00  0.00    +0.167 HD
ENDROOT
BRANCH   2   7
ATOM      7  C   UNL     1       1.285  -0.920   3.869  0.00  0.00    -0.000 C 
ATOM      8  C   UNL     1       0.866  -0.070   4.830  0.00  0.00    +0.004 C 
ATOM      9  C   UNL     1       1.608   1.226   4.997  0.00  0.00    +0.106 C 
ATOM     10  C   UNL     1       3.104   0.964   4.803  0.00  0.00    +0.148 C 
ATOM     11  C   UNL     1       3.320   0.350   3.450  0.00  0.00    +0.002 C 
ATOM     12  C   UNL     1       2.439  -0.550   3.018  0.00  0.00    +0.008 C 
ATOM     13  N   UNL     1       3.840   2.202   4.997  0.00  0.00    -0.285 NA
ATOM     14  C   UNL     1       3.370   3.162   5.685  0.00  0.00    +0.093 C 
ATOM     15  C   UNL     1       2.025   3.158   6.349  0.00  0.00    +0.128 C 
ATOM     16  N   UNL     1       1.422   1.816   6.326  0.00  0.00    -0.303 NA
ATOM     17  H   UNL     1       0.444   1.855   6.571  0.00  0.00    +0.123 HD
ENDBRANCH   2   7
BRANCH   1  23
ATOM     18  C   UNL     1      -0.237   1.669   0.259  0.00  0.00    +0.065 C 
ATOM     19  C   UNL     1      -0.290   0.165   0.183  0.00  0.00    +0.039 A 
ATOM     20  C   UNL     1      -0.472  -0.450  -1.042  0.00  0.00    +0.023 A 
ATOM     21  C   UNL     1      -0.520  -1.836  -1.110  0.00  0.00    +0.004 A 
ATOM     22  C   UNL     1      -0.383  -2.560   0.060  0.00  0.00    +0.030 A 
ATOM     23  C   UNL     1      -0.201  -1.875   1.264  0.00  0.00    +0.090 A 
ATOM     24  N   UNL     1      -0.157  -0.546   1.284  0.00  0.00    -0.250 NA
ENDBRANCH   1  23
BRANCH   4  25
ATOM     25  C   UNL     1      -0.500  -5.494   4.758  0.00  0.00    +0.175 C 
BRANCH  25  26
ATOM     26  N   UNL     1       0.625  -6.422   4.617  0.00  0.00    -0.337 N 
ATOM     27  H   UNL     1       1.417  -6.153   4.126  0.00  0.00    +0.147 HD
BRANCH  26  28
ATOM     28  C   UNL     1       0.558  -7.688   5.189  0.00  0.00    +0.027 A 
ATOM     29  C   UNL     1      -0.581  -8.074   5.889  0.00  0.00    +0.023 A 
ATOM     30  C   UNL     1      -0.651  -9.326   6.455  0.00  0.00    +0.015 A 
ATOM     31  C   UNL     1       0.424 -10.211   6.327  0.00  0.00    +0.037 A 
ATOM     32  C   UNL     1       1.567  -9.819   5.623  0.00  0.00    +0.015 A 
ATOM     33  C   UNL     1       1.628  -8.568   5.054  0.00  0.00    +0.023 A 
BRANCH  31  34
ATOM     34  C   UNL     1       0.353 -11.553   6.933  0.00  0.00    +0.242 C 
ATOM     35  O   UNL     1      -0.641 -11.892   7.546  0.00  0.00    -0.270 OA
ATOM     36  N   UNL     1       1.391 -12.405   6.809  0.00  0.00    -0.325 N 
ATOM     37  H   UNL     1       2.184 -12.135   6.320  0.00  0.00    +0.145 HD
ATOM     38  H   UNL     1       1.344 -13.288   7.207  0.00  0.00    +0.145 HD
ENDBRANCH  31  34
ENDBRANCH  26  28
ENDBRANCH  25  26
ENDBRANCH   4  25
TORSDOF 6
