REMARK  Name = CHEMBL567505
REMARK  8 active torsions:
REMARK  status: ('A' for Active; 'I' for Inactive)
REMARK    1  A    between atoms: C_1  and  C_2
REMARK    2  A    between atoms: C_2  and  C_3
REMARK    3  A    between atoms: C_7  and  C_9
REMARK    4  A    between atoms: C_10  and  C_25
REMARK    5  A    between atoms: C_12  and  C_15
REMARK    6  A    between atoms: C_15  and  N_16
REMARK    7  A    between atoms: N_16  and  C_17
REMARK    8  A    between atoms: C_20  and  C_23
REMARK                            x       y       z     vdW  Elec       q    Type
REMARK                         _______ _______ _______ _____ _____    ______ ____
ROOT
ATOM      1  C   UNL     1       0.410   0.079  -4.824  0.00  0.00    +0.093 A 
ATOM      2  C   UNL     1      -0.903   0.358  -5.161  0.00  0.00    +0.098 A 
ATOM      3  N   UNL     1      -0.925   0.658  -6.473  0.00  0.00    -0.230 NA
ATOM      4  C   UNL     1       0.283   0.581  -6.959  0.00  0.00    +0.125 A 
ATOM      5  N   UNL     1       1.143   0.232  -5.979  0.00  0.00    -0.339 N 
ATOM      6  H   UNL     1       2.101   0.110  -6.072  0.00  0.00    +0.167 HD
ENDROOT
BRANCH   2   7
ATOM      7  C   UNL     1      -2.068   0.332  -4.247  0.00  0.00    -0.000 C 
ATOM      8  C   UNL     1      -2.803   1.438  -4.061  0.00  0.00    +0.004 C 
ATOM      9  C   UNL     1      -4.003   1.416  -3.156  0.00  0.00    +0.106 C 
ATOM     10  C   UNL     1      -3.805   0.437  -2.007  0.00  0.00    +0.148 C 
ATOM     11  C   UNL     1      -3.247  -0.869  -2.500  0.00  0.00    +0.002 C 
ATOM     12  C   UNL     1      -2.430  -0.914  -3.542  0.00  0.00    +0.008 C 
ATOM     13  N   UNL     1      -5.062   0.205  -1.305  0.00  0.00    -0.285 NA
ATOM     14  C   UNL     1      -6.198   0.518  -1.766  0.00  0.00    +0.093 C 
ATOM     15  C   UNL     1      -6.401   1.182  -3.097  0.00  0.00    +0.128 C 
ATOM     16  N   UNL     1      -5.196   1.027  -3.924  0.00  0.00    -0.303 NA
ATOM     17  H   UNL     1      -5.269   1.565  -4.775  0.00  0.00    +0.123 HD
ENDBRANCH   2   7
BRANCH   1  22
ATOM     18  C   UNL     1       0.690  -0.242  -1.196  0.00  0.00    +0.042 A 
ATOM     19  C   UNL     1       1.842  -0.987  -1.022  0.00  0.00    +0.023 A 
ATOM     20  C   UNL     1       2.560  -1.402  -2.135  0.00  0.00    +0.004 A 
ATOM     21  C   UNL     1       2.093  -1.055  -3.390  0.00  0.00    +0.030 A 
ATOM     22  C   UNL     1       0.922  -0.301  -3.493  0.00  0.00    +0.090 A 
ATOM     23  N   UNL     1       0.262   0.072  -2.401  0.00  0.00    -0.250 NA
BRANCH  18  25
ATOM     24  C   UNL     1      -0.275   1.728  -0.039  0.00  0.00    +0.010 C 
ATOM     25  C   UNL     1      -0.091   0.210   0.011  0.00  0.00    +0.052 C 
ENDBRANCH  18  25
ENDBRANCH   1  22
BRANCH   4  26
ATOM     26  C   UNL     1       0.661   0.846  -8.393  0.00  0.00    +0.175 C 
BRANCH  26  27
ATOM     27  N   UNL     1       0.462  -0.371  -9.184  0.00  0.00    -0.337 N 
ATOM     28  H   UNL     1       0.132  -1.178  -8.758  0.00  0.00    +0.147 HD
BRANCH  27  29
ATOM     29  C   UNL     1       0.746  -0.370 -10.547  0.00  0.00    +0.028 A 
ATOM     30  C   UNL     1       1.224   0.787 -11.155  0.00  0.00    +0.024 A 
ATOM     31  C   UNL     1       1.506   0.791 -12.502  0.00  0.00    +0.020 A 
ATOM     32  C   UNL     1       1.312  -0.368 -13.260  0.00  0.00    +0.052 A 
ATOM     33  C   UNL     1       0.831  -1.528 -12.645  0.00  0.00    +0.020 A 
ATOM     34  C   UNL     1       0.557  -1.527 -11.296  0.00  0.00    +0.024 A 
BRANCH  32  35
ATOM     35  C   UNL     1       1.603  -0.366 -14.662  0.00  0.00    +0.099 C 
ATOM     36  N   UNL     1       1.835  -0.365 -15.774  0.00  0.00    -0.191 NA
ENDBRANCH  32  35
ENDBRANCH  27  29
ENDBRANCH  26  27
ENDBRANCH   4  26
TORSDOF 7
