REMARK  Name = CHEMBL338196
REMARK  3 active torsions:
REMARK  status: ('A' for Active; 'I' for Inactive)
REMARK    1  A    between atoms: C_7  and  C_11
REMARK    2  A    between atoms: C_12  and  C_20
REMARK    3  A    between atoms: C_16  and  C_17
REMARK                            x       y       z     vdW  Elec       q    Type
REMARK                         _______ _______ _______ _____ _____    ______ ____
ROOT
ATOM      1  C   UNL     1       0.059  -2.916  -0.013  0.00  0.00    +0.033 A 
ATOM      2  C   UNL     1      -0.677  -3.399  -1.183  0.00  0.00    +0.119 A 
ATOM      3  N   UNL     1      -1.706  -4.085  -0.734  0.00  0.00    -0.171 NA
ATOM      4  N   UNL     1      -1.678  -4.074   0.664  0.00  0.00    -0.280 N 
ATOM      5  H   UNL     1      -2.326  -4.508   1.241  0.00  0.00    +0.189 HD
ATOM      6  C   UNL     1      -0.609  -3.373   1.086  0.00  0.00    +0.047 A 
ENDROOT
BRANCH   1  13
ATOM      7  C   UNL     1      -0.016   1.359   0.009  0.00  0.00    +0.001 A 
ATOM      8  C   UNL     1       1.170   2.088   0.002  0.00  0.00    +0.002 A 
ATOM      9  C   UNL     1       2.379   1.462  -0.013  0.00  0.00    +0.028 A 
ATOM     10  C   UNL     1       2.437   0.058  -0.021  0.00  0.00    +0.072 A 
ATOM     11  C   UNL     1       1.229  -0.680  -0.013  0.00  0.00    +0.008 A 
ATOM     12  C   UNL     1       0.002  -0.004   0.002  0.00  0.00    +0.010 A 
ATOM     13  C   UNL     1       1.291  -2.097  -0.021  0.00  0.00    -0.003 A 
ATOM     14  C   UNL     1       2.548  -2.691  -0.036  0.00  0.00    +0.029 A 
ATOM     15  C   UNL     1       3.684  -1.893  -0.043  0.00  0.00    +0.112 A 
ATOM     16  N   UNL     1       3.611  -0.582  -0.035  0.00  0.00    -0.255 NA
ENDBRANCH   1  13
BRANCH   2  17
ATOM     17  C   UNL     1      -0.330  -3.160  -2.604  0.00  0.00    +0.091 A 
ATOM     18  C   UNL     1      -0.766  -4.053  -3.582  0.00  0.00    +0.030 A 
ATOM     19  C   UNL     1      -0.434  -3.816  -4.904  0.00  0.00    +0.004 A 
ATOM     20  C   UNL     1       0.324  -2.693  -5.206  0.00  0.00    +0.020 A 
ATOM     21  C   UNL     1       0.723  -1.850  -4.186  0.00  0.00    +0.111 A 
ATOM     22  N   UNL     1       0.389  -2.095  -2.936  0.00  0.00    -0.253 NA
ENDBRANCH   2  17
BRANCH   6  23
ATOM     23  C   UNL     1      -0.220  -3.132   2.522  0.00  0.00    +0.038 C 
ATOM     24  C   UNL     1      -0.988  -3.899   3.601  0.00  0.00    +0.010 C 
ATOM     25  C   UNL     1      -1.226  -2.400   3.413  0.00  0.00    +0.010 C 
ENDBRANCH   6  23
TORSDOF 3
