REMARK  Name = CHEMBL565846
REMARK  7 active torsions:
REMARK  status: ('A' for Active; 'I' for Inactive)
REMARK    1  A    between atoms: C_1  and  C_2
REMARK    2  A    between atoms: C_6  and  C_8
REMARK    3  A    between atoms: C_9  and  C_24
REMARK    4  A    between atoms: C_11  and  C_14
REMARK    5  A    between atoms: C_14  and  N_15
REMARK    6  A    between atoms: N_15  and  C_16
REMARK    7  A    between atoms: C_19  and  C_22
REMARK                            x       y       z     vdW  Elec       q    Type
REMARK                         _______ _______ _______ _____ _____    ______ ____
ROOT
ATOM      1  C   UNL     1      -0.047  -2.635   2.517  0.00  0.00    +0.092 A 
ATOM      2  C   UNL     1       0.601  -2.217   3.673  0.00  0.00    +0.094 A 
ATOM      3  N   UNL     1       0.489  -3.212   4.576  0.00  0.00    -0.231 NA
ATOM      4  C   UNL     1      -0.179  -4.202   4.054  0.00  0.00    +0.125 A 
ATOM      5  N   UNL     1      -0.537  -3.894   2.789  0.00  0.00    -0.339 N 
ATOM      6  H   UNL     1      -1.044  -4.457   2.183  0.00  0.00    +0.167 HD
ENDROOT
BRANCH   2   7
ATOM      7  C   UNL     1       1.282  -0.931   3.873  0.00  0.00    -0.017 C 
ATOM      8  C   UNL     1       2.326  -0.613   3.084  0.00  0.00    +0.009 C 
ATOM      9  C   UNL     1       3.045   0.651   3.296  0.00  0.00    +0.044 C 
ATOM     10  C   UNL     1       2.833   1.286   4.449  0.00  0.00    +0.130 C 
ATOM     11  C   UNL     1       1.978   0.731   5.581  0.00  0.00    +0.191 C 
ATOM     12  C   UNL     1       0.788  -0.002   4.952  0.00  0.00    +0.077 C 
ATOM     13  O   UNL     1       1.535   1.898   6.294  0.00  0.00    -0.333 OA
ATOM     14  C   UNL     1       2.144   3.020   5.623  0.00  0.00    +0.395 C 
ATOM     15  O   UNL     1       3.281   2.480   4.909  0.00  0.00    -0.468 OA
ENDBRANCH   2   7
BRANCH   1  21
ATOM     16  C   UNL     1      -0.217   1.659   0.243  0.00  0.00    +0.065 C 
ATOM     17  C   UNL     1      -0.270   0.155   0.171  0.00  0.00    +0.039 A 
ATOM     18  C   UNL     1      -0.445  -0.463  -1.053  0.00  0.00    +0.023 A 
ATOM     19  C   UNL     1      -0.493  -1.849  -1.118  0.00  0.00    +0.004 A 
ATOM     20  C   UNL     1      -0.363  -2.571   0.054  0.00  0.00    +0.030 A 
ATOM     21  C   UNL     1      -0.188  -1.883   1.258  0.00  0.00    +0.089 A 
ATOM     22  N   UNL     1      -0.143  -0.553   1.275  0.00  0.00    -0.250 NA
ENDBRANCH   1  21
BRANCH   4  23
ATOM     23  C   UNL     1      -0.507  -5.494   4.758  0.00  0.00    +0.175 C 
BRANCH  23  24
ATOM     24  N   UNL     1       0.618  -6.422   4.625  0.00  0.00    -0.337 N 
ATOM     25  H   UNL     1       1.413  -6.154   4.137  0.00  0.00    +0.147 HD
BRANCH  24  26
ATOM     26  C   UNL     1       0.547  -7.689   5.198  0.00  0.00    +0.028 A 
ATOM     27  C   UNL     1      -0.596  -8.073   5.892  0.00  0.00    +0.024 A 
ATOM     28  C   UNL     1      -0.669  -9.325   6.460  0.00  0.00    +0.020 A 
ATOM     29  C   UNL     1       0.406 -10.210   6.338  0.00  0.00    +0.052 A 
ATOM     30  C   UNL     1       1.553  -9.820   5.640  0.00  0.00    +0.020 A 
ATOM     31  C   UNL     1       1.617  -8.569   5.070  0.00  0.00    +0.024 A 
BRANCH  29  32
ATOM     32  C   UNL     1       0.333 -11.513   6.928  0.00  0.00    +0.099 C 
ATOM     33  N   UNL     1       0.276 -12.547   7.396  0.00  0.00    -0.191 NA
ENDBRANCH  29  32
ENDBRANCH  24  26
ENDBRANCH  23  24
ENDBRANCH   4  23
TORSDOF 6
