REMARK  Name = CHEMBL574413
REMARK  7 active torsions:
REMARK  status: ('A' for Active; 'I' for Inactive)
REMARK    1  A    between atoms: C_1  and  C_2
REMARK    2  A    between atoms: C_4  and  O_15
REMARK    3  A    between atoms: C_5  and  C_9
REMARK    4  A    between atoms: C_7  and  C_8
REMARK    5  A    between atoms: O_15  and  C_16
REMARK    6  A    between atoms: N_22  and  C_23
REMARK    7  A    between atoms: C_27  and  N_29
REMARK                            x       y       z     vdW  Elec       q    Type
REMARK                         _______ _______ _______ _____ _____    ______ ____
ROOT
ATOM      1  C   UNL     1      -0.451  -1.919  -3.221  0.00  0.00    +0.133 A 
ATOM      2  C   UNL     1      -0.450  -2.685  -4.406  0.00  0.00    +0.064 A 
ATOM      3  C   UNL     1      -0.188  -2.099  -5.592  0.00  0.00    +0.088 A 
ATOM      4  N   UNL     1       0.080  -0.766  -5.670  0.00  0.00    -0.346 N 
ATOM      5  C   UNL     1       0.089   0.013  -4.540  0.00  0.00    +0.135 A 
ATOM      6  C   UNL     1      -0.187  -0.567  -3.290  0.00  0.00    +0.092 A 
ATOM      7  N   UNL     1       0.353   1.313  -4.628  0.00  0.00    -0.230 NA
ATOM      8  H   UNL     1       0.266  -0.364  -6.533  0.00  0.00    +0.167 HD
ENDROOT
BRANCH   7   9
ATOM      9  C   UNL     1       0.491   2.060  -3.495  0.00  0.00    +0.068 A 
ATOM     10  C   UNL     1       1.492   1.750  -2.568  0.00  0.00    +0.028 A 
ATOM     11  C   UNL     1       1.629   2.508  -1.423  0.00  0.00    +0.004 A 
ATOM     12  C   UNL     1       0.780   3.573  -1.187  0.00  0.00    +0.023 A 
ATOM     13  C   UNL     1      -0.219   3.889  -2.101  0.00  0.00    +0.032 A 
ATOM     14  C   UNL     1      -0.363   3.140  -3.258  0.00  0.00    +0.051 A 
BRANCH  13  15
ATOM     15  N   UNL     1      -1.074   4.967  -1.857  0.00  0.00    -0.325 N 
ATOM     16  C   UNL     1      -2.172   5.288  -2.782  0.00  0.00    +0.133 C 
ATOM     17  C   UNL     1      -3.464   5.428  -1.969  0.00  0.00    +0.178 C 
ATOM     18  O   UNL     1      -3.248   6.348  -0.897  0.00  0.00    -0.377 OA
ATOM     19  C   UNL     1      -2.257   5.928   0.044  0.00  0.00    +0.178 C 
ATOM     20  C   UNL     1      -0.907   5.810  -0.662  0.00  0.00    +0.133 C 
ENDBRANCH  13  15
ENDBRANCH   7   9
BRANCH   1  21
ATOM     21  O   UNL     1      -0.714  -2.505  -2.028  0.00  0.00    -0.454 OA
BRANCH  21  25
ATOM     22  C   UNL     1       3.587  -4.819  -2.364  0.00  0.00    +0.046 C 
ATOM     23  C   UNL     1       2.272  -4.548  -1.680  0.00  0.00    -0.026 A 
ATOM     24  C   UNL     1       1.387  -3.623  -2.209  0.00  0.00    +0.053 A 
ATOM     25  C   UNL     1       0.184  -3.402  -1.547  0.00  0.00    +0.156 A 
ATOM     26  C   UNL     1      -0.086  -4.120  -0.377  0.00  0.00    +0.131 A 
ATOM     27  N   UNL     1       0.793  -4.996   0.092  0.00  0.00    -0.246 NA
ATOM     28  C   UNL     1       1.935  -5.226  -0.521  0.00  0.00    +0.042 A 
ATOM     29  C   UNL     1       2.894  -6.237   0.052  0.00  0.00    +0.066 C 
BRANCH  26  30
ATOM     30  C   UNL     1      -1.363  -3.900   0.343  0.00  0.00    +0.093 A 
ATOM     31  C   UNL     1      -1.879  -4.905   1.158  0.00  0.00    +0.030 A 
ATOM     32  C   UNL     1      -3.071  -4.685   1.825  0.00  0.00    +0.004 A 
ATOM     33  C   UNL     1      -3.710  -3.465   1.654  0.00  0.00    +0.020 A 
ATOM     34  C   UNL     1      -3.141  -2.511   0.830  0.00  0.00    +0.111 A 
ATOM     35  N   UNL     1      -2.002  -2.744   0.211  0.00  0.00    -0.253 NA
ENDBRANCH  26  30
ENDBRANCH  21  25
ENDBRANCH   1  21
TORSDOF 5
