REMARK  Name = CHEMBL387748
REMARK  7 active torsions:
REMARK  status: ('A' for Active; 'I' for Inactive)
REMARK    1  A    between atoms: C_1  and  C_2
REMARK    2  A    between atoms: C_6  and  C_8
REMARK    3  A    between atoms: C_9  and  C_24
REMARK    4  A    between atoms: C_11  and  C_14
REMARK    5  A    between atoms: C_14  and  N_15
REMARK    6  A    between atoms: N_15  and  C_16
REMARK    7  A    between atoms: C_20  and  C_22
REMARK                            x       y       z     vdW  Elec       q    Type
REMARK                         _______ _______ _______ _____ _____    ______ ____
ROOT
ATOM      1  C   UNL     1       0.050  -2.682   2.491  0.00  0.00    +0.115 A 
ATOM      2  C   UNL     1       0.515  -2.166   3.688  0.00  0.00    +0.076 A 
ATOM      3  N   UNL     1       0.335  -3.153   4.628  0.00  0.00    -0.340 N 
ATOM      4  C   UNL     1      -0.220  -4.216   3.995  0.00  0.00    +0.125 A 
ATOM      5  N   UNL     1      -0.392  -3.931   2.735  0.00  0.00    -0.229 NA
ATOM      6  H   UNL     1       0.563  -3.099   5.569  0.00  0.00    +0.167 HD
ENDROOT
BRANCH   2   7
ATOM      7  C   UNL     1       1.089  -0.825   3.911  0.00  0.00    +0.003 A 
ATOM      8  C   UNL     1       2.034  -0.310   3.004  0.00  0.00    +0.012 A 
ATOM      9  C   UNL     1       2.576   0.920   3.188  0.00  0.00    +0.030 A 
ATOM     10  C   UNL     1       2.195   1.700   4.296  0.00  0.00    +0.089 A 
ATOM     11  C   UNL     1       1.243   1.193   5.217  0.00  0.00    +0.090 A 
ATOM     12  C   UNL     1       0.690  -0.079   5.008  0.00  0.00    +0.040 A 
ATOM     13  N   UNL     1       0.881   1.936   6.270  0.00  0.00    -0.252 NA
ATOM     14  C   UNL     1       1.411   3.127   6.440  0.00  0.00    +0.131 A 
ATOM     15  C   UNL     1       2.347   3.625   5.533  0.00  0.00    +0.131 A 
ATOM     16  N   UNL     1       2.719   2.915   4.492  0.00  0.00    -0.252 NA
ENDBRANCH   2   7
BRANCH   1  22
ATOM     17  C   UNL     1      -0.018   1.503   0.010  0.00  0.00    +0.065 C 
ATOM     18  C   UNL     1       0.002  -0.004   0.002  0.00  0.00    +0.039 A 
ATOM     19  C   UNL     1       0.005  -0.679  -1.204  0.00  0.00    +0.023 A 
ATOM     20  C   UNL     1       0.024  -2.067  -1.209  0.00  0.00    +0.004 A 
ATOM     21  C   UNL     1       0.039  -2.732   0.005  0.00  0.00    +0.030 A 
ATOM     22  C   UNL     1       0.035  -1.987   1.185  0.00  0.00    +0.092 A 
ATOM     23  N   UNL     1       0.022  -0.660   1.145  0.00  0.00    -0.250 NA
ENDBRANCH   1  22
BRANCH   4  24
ATOM     24  C   UNL     1      -0.587  -5.524   4.649  0.00  0.00    +0.175 C 
BRANCH  24  25
ATOM     25  N   UNL     1      -2.001  -5.498   5.031  0.00  0.00    -0.337 N 
ATOM     26  H   UNL     1      -2.539  -4.712   4.849  0.00  0.00    +0.147 HD
BRANCH  25  27
ATOM     27  C   UNL     1      -2.575  -6.607   5.659  0.00  0.00    +0.029 A 
ATOM     28  C   UNL     1      -1.803  -7.732   5.925  0.00  0.00    +0.023 A 
ATOM     29  C   UNL     1      -2.366  -8.831   6.545  0.00  0.00    +0.003 A 
ATOM     30  C   UNL     1      -3.699  -8.820   6.905  0.00  0.00    +0.019 A 
ATOM     31  C   UNL     1      -4.483  -7.695   6.642  0.00  0.00    +0.054 A 
ATOM     32  C   UNL     1      -3.913  -6.583   6.021  0.00  0.00    +0.041 A 
BRANCH  31  33
ATOM     33  C   UNL     1      -5.866  -7.680   7.013  0.00  0.00    +0.099 C 
ATOM     34  N   UNL     1      -6.963  -7.669   7.308  0.00  0.00    -0.191 NA
ENDBRANCH  31  33
ENDBRANCH  25  27
ENDBRANCH  24  25
ENDBRANCH   4  24
TORSDOF 6
