REMARK  Name = CHEMBL575311
REMARK  7 active torsions:
REMARK  status: ('A' for Active; 'I' for Inactive)
REMARK    1  A    between atoms: C_1  and  C_2
REMARK    2  A    between atoms: C_4  and  O_15
REMARK    3  A    between atoms: C_5  and  C_9
REMARK    4  A    between atoms: C_7  and  C_8
REMARK    5  A    between atoms: O_15  and  C_16
REMARK    6  A    between atoms: N_22  and  C_23
REMARK    7  A    between atoms: C_26  and  N_29
REMARK                            x       y       z     vdW  Elec       q    Type
REMARK                         _______ _______ _______ _____ _____    ______ ____
ROOT
ATOM      1  C   UNL     1      -0.288  -1.918  -3.396  0.00  0.00    +0.133 A 
ATOM      2  C   UNL     1      -0.249  -2.642  -4.606  0.00  0.00    +0.064 A 
ATOM      3  C   UNL     1       0.007  -2.010  -5.768  0.00  0.00    +0.088 A 
ATOM      4  N   UNL     1       0.233  -0.666  -5.798  0.00  0.00    -0.346 N 
ATOM      5  C   UNL     1       0.204   0.075  -4.641  0.00  0.00    +0.135 A 
ATOM      6  C   UNL     1      -0.067  -0.557  -3.415  0.00  0.00    +0.092 A 
ATOM      7  N   UNL     1       0.426   1.383  -4.682  0.00  0.00    -0.230 NA
ATOM      8  H   UNL     1       0.416  -0.229  -6.644  0.00  0.00    +0.167 HD
ENDROOT
BRANCH   7   9
ATOM      9  C   UNL     1       0.528   2.096  -3.520  0.00  0.00    +0.066 A 
ATOM     10  C   UNL     1       1.527   1.786  -2.593  0.00  0.00    +0.029 A 
ATOM     11  C   UNL     1       1.626   2.508  -1.422  0.00  0.00    +0.025 A 
ATOM     12  C   UNL     1       0.734   3.541  -1.163  0.00  0.00    +0.030 A 
ATOM     13  C   UNL     1      -0.262   3.852  -2.081  0.00  0.00    +0.025 A 
ATOM     14  C   UNL     1      -0.364   3.140  -3.258  0.00  0.00    +0.029 A 
BRANCH  12  15
ATOM     15  N   UNL     1       0.837   4.271   0.028  0.00  0.00    -0.326 N 
ATOM     16  C   UNL     1      -0.128   5.333   0.352  0.00  0.00    +0.133 C 
ATOM     17  C   UNL     1      -0.655   5.091   1.771  0.00  0.00    +0.178 C 
ATOM     18  O   UNL     1       0.451   4.944   2.665  0.00  0.00    -0.377 OA
ATOM     19  C   UNL     1       1.289   3.822   2.380  0.00  0.00    +0.178 C 
ATOM     20  C   UNL     1       1.912   3.995   0.995  0.00  0.00    +0.133 C 
ENDBRANCH  12  15
ENDBRANCH   7   9
BRANCH   1  21
ATOM     21  O   UNL     1      -0.546  -2.553  -2.226  0.00  0.00    -0.454 OA
BRANCH  21  25
ATOM     22  C   UNL     1       3.832  -4.715  -2.585  0.00  0.00    +0.046 C 
ATOM     23  C   UNL     1       2.501  -4.510  -1.909  0.00  0.00    -0.026 A 
ATOM     24  C   UNL     1       1.592  -3.596  -2.418  0.00  0.00    +0.053 A 
ATOM     25  C   UNL     1       0.375  -3.437  -1.764  0.00  0.00    +0.156 A 
ATOM     26  C   UNL     1       0.115  -4.202  -0.623  0.00  0.00    +0.131 A 
ATOM     27  N   UNL     1       1.016  -5.065  -0.173  0.00  0.00    -0.246 NA
ATOM     28  C   UNL     1       2.173  -5.237  -0.779  0.00  0.00    +0.042 A 
ATOM     29  C   UNL     1       3.157  -6.236  -0.228  0.00  0.00    +0.066 C 
BRANCH  26  30
ATOM     30  C   UNL     1      -1.176  -4.048   0.088  0.00  0.00    +0.093 A 
ATOM     31  C   UNL     1      -1.669  -5.096   0.863  0.00  0.00    +0.030 A 
ATOM     32  C   UNL     1      -2.876  -4.937   1.521  0.00  0.00    +0.004 A 
ATOM     33  C   UNL     1      -3.551  -3.732   1.385  0.00  0.00    +0.020 A 
ATOM     34  C   UNL     1      -3.004  -2.733   0.600  0.00  0.00    +0.111 A 
ATOM     35  N   UNL     1      -1.851  -2.909  -0.012  0.00  0.00    -0.253 NA
ENDBRANCH  26  30
ENDBRANCH  21  25
ENDBRANCH   1  21
TORSDOF 5
