REMARK  Name = CHEMBL389078
REMARK  7 active torsions:
REMARK  status: ('A' for Active; 'I' for Inactive)
REMARK    1  A    between atoms: C_1  and  C_2
REMARK    2  A    between atoms: C_6  and  C_8
REMARK    3  A    between atoms: C_9  and  C_25
REMARK    4  A    between atoms: C_11  and  C_14
REMARK    5  A    between atoms: C_14  and  N_15
REMARK    6  A    between atoms: N_15  and  C_16
REMARK    7  A    between atoms: C_20  and  C_22
REMARK                            x       y       z     vdW  Elec       q    Type
REMARK                         _______ _______ _______ _____ _____    ______ ____
ROOT
ATOM      1  C   UNL     1       0.051  -2.683   2.491  0.00  0.00    +0.115 A 
ATOM      2  C   UNL     1       0.517  -2.166   3.687  0.00  0.00    +0.076 A 
ATOM      3  N   UNL     1       0.338  -3.153   4.627  0.00  0.00    -0.340 N 
ATOM      4  C   UNL     1      -0.217  -4.218   3.994  0.00  0.00    +0.125 A 
ATOM      5  N   UNL     1      -0.389  -3.932   2.735  0.00  0.00    -0.229 NA
ATOM      6  H   UNL     1       0.567  -3.098   5.568  0.00  0.00    +0.167 HD
ENDROOT
BRANCH   2   7
ATOM      7  C   UNL     1       1.090  -0.823   3.910  0.00  0.00    +0.004 A 
ATOM      8  C   UNL     1       2.027  -0.305   3.013  0.00  0.00    +0.014 A 
ATOM      9  C   UNL     1       2.561   0.949   3.223  0.00  0.00    +0.050 A 
ATOM     10  C   UNL     1       2.171   1.700   4.322  0.00  0.00    +0.166 A 
ATOM     11  C   UNL     1       1.236   1.188   5.221  0.00  0.00    +0.167 A 
ATOM     12  C   UNL     1       0.692  -0.067   5.014  0.00  0.00    +0.059 A 
ATOM     13  O   UNL     1       1.025   2.111   6.205  0.00  0.00    -0.453 OA
ATOM     14  C   UNL     1       2.140   3.019   6.124  0.00  0.00    +0.466 C 
ATOM     15  O   UNL     1       2.544   2.943   4.744  0.00  0.00    -0.453 OA
ENDBRANCH   2   7
BRANCH   1  21
ATOM     16  C   UNL     1      -0.018   1.503   0.010  0.00  0.00    +0.065 C 
ATOM     17  C   UNL     1       0.002  -0.004   0.002  0.00  0.00    +0.039 A 
ATOM     18  C   UNL     1       0.006  -0.679  -1.204  0.00  0.00    +0.023 A 
ATOM     19  C   UNL     1       0.025  -2.067  -1.209  0.00  0.00    +0.004 A 
ATOM     20  C   UNL     1       0.040  -2.732   0.005  0.00  0.00    +0.030 A 
ATOM     21  C   UNL     1       0.035  -1.988   1.185  0.00  0.00    +0.092 A 
ATOM     22  N   UNL     1       0.022  -0.660   1.145  0.00  0.00    -0.250 NA
ENDBRANCH   1  21
BRANCH   4  23
ATOM     23  C   UNL     1      -0.583  -5.525   4.648  0.00  0.00    +0.175 C 
BRANCH  23  24
ATOM     24  N   UNL     1      -1.997  -5.500   5.032  0.00  0.00    -0.337 N 
ATOM     25  H   UNL     1      -2.535  -4.714   4.849  0.00  0.00    +0.147 HD
BRANCH  24  26
ATOM     26  C   UNL     1      -2.570  -6.609   5.659  0.00  0.00    +0.028 A 
ATOM     27  C   UNL     1      -1.797  -7.734   5.926  0.00  0.00    +0.023 A 
ATOM     28  C   UNL     1      -2.359  -8.833   6.547  0.00  0.00    +0.003 A 
ATOM     29  C   UNL     1      -3.691  -8.822   6.907  0.00  0.00    +0.013 A 
ATOM     30  C   UNL     1      -4.476  -7.698   6.644  0.00  0.00    +0.038 A 
ATOM     31  C   UNL     1      -3.908  -6.586   6.022  0.00  0.00    +0.036 A 
BRANCH  30  32
ATOM     32  C   UNL     1      -5.903  -7.684   7.029  0.00  0.00    +0.242 C 
ATOM     33  O   UNL     1      -6.585  -6.704   6.799  0.00  0.00    -0.270 OA
ATOM     34  N   UNL     1      -6.449  -8.757   7.635  0.00  0.00    -0.325 N 
ATOM     35  H   UNL     1      -5.905  -9.539   7.818  0.00  0.00    +0.145 HD
ATOM     36  H   UNL     1      -7.386  -8.748   7.887  0.00  0.00    +0.145 HD
ENDBRANCH  30  32
ENDBRANCH  24  26
ENDBRANCH  23  24
ENDBRANCH   4  23
TORSDOF 6
