REMARK  Name = CHEMBL389078
REMARK  7 active torsions:
REMARK  status: ('A' for Active; 'I' for Inactive)
REMARK    1  A    between atoms: C_1  and  C_2
REMARK    2  A    between atoms: C_6  and  C_8
REMARK    3  A    between atoms: C_9  and  C_25
REMARK    4  A    between atoms: C_11  and  C_14
REMARK    5  A    between atoms: C_14  and  N_15
REMARK    6  A    between atoms: N_15  and  C_16
REMARK    7  A    between atoms: C_20  and  C_22
REMARK                            x       y       z     vdW  Elec       q    Type
REMARK                         _______ _______ _______ _____ _____    ______ ____
ROOT
ATOM      1  C   UNL     1       0.050  -2.682   2.486  0.00  0.00    +0.093 A 
ATOM      2  C   UNL     1       0.512  -2.180   3.690  0.00  0.00    +0.098 A 
ATOM      3  N   UNL     1       0.340  -3.139   4.618  0.00  0.00    -0.230 NA
ATOM      4  C   UNL     1      -0.194  -4.192   4.064  0.00  0.00    +0.125 A 
ATOM      5  N   UNL     1      -0.397  -3.958   2.750  0.00  0.00    -0.339 N 
ATOM      6  H   UNL     1      -0.784  -4.575   2.109  0.00  0.00    +0.167 HD
ENDROOT
BRANCH   2   7
ATOM      7  C   UNL     1       1.089  -0.834   3.916  0.00  0.00    +0.006 A 
ATOM      8  C   UNL     1       1.861  -0.230   2.925  0.00  0.00    +0.014 A 
ATOM      9  C   UNL     1       2.398   1.024   3.136  0.00  0.00    +0.050 A 
ATOM     10  C   UNL     1       2.171   1.687   4.333  0.00  0.00    +0.166 A 
ATOM     11  C   UNL     1       1.399   1.088   5.328  0.00  0.00    +0.167 A 
ATOM     12  C   UNL     1       0.855  -0.167   5.118  0.00  0.00    +0.059 A 
ATOM     13  O   UNL     1       1.328   1.936   6.395  0.00  0.00    -0.453 OA
ATOM     14  C   UNL     1       2.398   2.881   6.207  0.00  0.00    +0.466 C 
ATOM     15  O   UNL     1       2.582   2.910   4.779  0.00  0.00    -0.453 OA
ENDBRANCH   2   7
BRANCH   1  21
ATOM     16  C   UNL     1      -0.018   1.503   0.010  0.00  0.00    +0.065 C 
ATOM     17  C   UNL     1       0.002  -0.004   0.002  0.00  0.00    +0.039 A 
ATOM     18  C   UNL     1       0.005  -0.679  -1.205  0.00  0.00    +0.023 A 
ATOM     19  C   UNL     1       0.024  -2.067  -1.210  0.00  0.00    +0.004 A 
ATOM     20  C   UNL     1       0.039  -2.733   0.002  0.00  0.00    +0.030 A 
ATOM     21  C   UNL     1       0.035  -1.989   1.184  0.00  0.00    +0.090 A 
ATOM     22  N   UNL     1       0.022  -0.660   1.145  0.00  0.00    -0.250 NA
ENDBRANCH   1  21
BRANCH   4  23
ATOM     23  C   UNL     1      -0.537  -5.472   4.781  0.00  0.00    +0.175 C 
BRANCH  23  24
ATOM     24  N   UNL     1       0.649  -6.331   4.840  0.00  0.00    -0.337 N 
ATOM     25  H   UNL     1       1.484  -6.032   4.448  0.00  0.00    +0.147 HD
BRANCH  24  26
ATOM     26  C   UNL     1       0.576  -7.580   5.462  0.00  0.00    +0.028 A 
ATOM     27  C   UNL     1      -0.622  -8.010   6.020  0.00  0.00    +0.023 A 
ATOM     28  C   UNL     1      -0.699  -9.245   6.636  0.00  0.00    +0.003 A 
ATOM     29  C   UNL     1       0.413 -10.059   6.701  0.00  0.00    +0.013 A 
ATOM     30  C   UNL     1       1.621  -9.637   6.145  0.00  0.00    +0.038 A 
ATOM     31  C   UNL     1       1.698  -8.393   5.518  0.00  0.00    +0.036 A 
BRANCH  30  32
ATOM     32  C   UNL     1       2.815 -10.507   6.214  0.00  0.00    +0.242 C 
ATOM     33  O   UNL     1       3.866 -10.137   5.729  0.00  0.00    -0.270 OA
ATOM     34  N   UNL     1       2.737 -11.711   6.816  0.00  0.00    -0.325 N 
ATOM     35  H   UNL     1       1.898 -12.006   7.203  0.00  0.00    +0.145 HD
ATOM     36  H   UNL     1       3.520 -12.281   6.861  0.00  0.00    +0.145 HD
ENDBRANCH  30  32
ENDBRANCH  24  26
ENDBRANCH  23  24
ENDBRANCH   4  23
TORSDOF 6
