REMARK  Name = CHEMBL480582
REMARK  4 active torsions:
REMARK  status: ('A' for Active; 'I' for Inactive)
REMARK    1  A    between atoms: C_1  and  C_2
REMARK    2  A    between atoms: C_6  and  C_8
REMARK    3  A    between atoms: C_9  and  C_23
REMARK    4  A    between atoms: C_20  and  C_22
REMARK                            x       y       z     vdW  Elec       q    Type
REMARK                         _______ _______ _______ _____ _____    ______ ____
ROOT
ATOM      1  C   UNL     1      -0.015  -2.682   2.320  0.00  0.00    +0.094 A 
ATOM      2  C   UNL     1       0.542  -2.178   3.479  0.00  0.00    +0.101 A 
ATOM      3  N   UNL     1       0.362  -3.092   4.451  0.00  0.00    -0.214 NA
ATOM      4  H   UNL     1      -0.997  -4.530   2.048  0.00  0.00    +0.169 HD
ATOM      5  C   UNL     1      -0.274  -4.132   3.966  0.00  0.00    +0.197 A 
ATOM      6  N   UNL     1      -0.535  -3.923   2.647  0.00  0.00    -0.324 N 
ATOM      7  N   UNL     1      -0.626  -5.259   4.682  0.00  0.00    -0.298 N 
ATOM      8  C   UNL     1      -1.333  -6.370   4.029  0.00  0.00    +0.127 C 
ATOM      9  C   UNL     1      -0.532  -7.659   4.250  0.00  0.00    +0.126 C 
ATOM     10  N   UNL     1      -0.207  -7.770   5.679  0.00  0.00    -0.299 N 
ATOM     11  C   UNL     1       0.501  -6.659   6.332  0.00  0.00    +0.126 C 
ATOM     12  C   UNL     1      -0.295  -5.373   6.109  0.00  0.00    +0.127 C 
ATOM     13  C   UNL     1      -0.551  -8.870   6.378  0.00  0.00    +0.213 C 
ATOM     14  O   UNL     1      -1.058  -9.814   5.811  0.00  0.00    -0.276 OA
ATOM     15  C   UNL     1      -0.304  -8.926   7.863  0.00  0.00    +0.109 C 
ENDROOT
BRANCH   2  16
ATOM     16  C   UNL     1       1.218  -0.867   3.626  0.00  0.00    +0.021 A 
ATOM     17  C   UNL     1       2.299  -0.530   2.780  0.00  0.00    +0.015 A 
ATOM     18  C   UNL     1       2.911   0.675   2.924  0.00  0.00    +0.049 A 
ATOM     19  C   UNL     1       2.458   1.568   3.913  0.00  0.00    +0.156 A 
ATOM     20  N   UNL     1       2.850   2.784   4.277  0.00  0.00    -0.215 NA
ATOM     21  C   UNL     1       2.096   3.216   5.277  0.00  0.00    +0.246 A 
ATOM     22  N   UNL     1       1.205   2.303   5.584  0.00  0.00    -0.154 NA
ATOM     23  N   UNL     1       1.411   1.219   4.718  0.00  0.00    -0.220 N 
ATOM     24  C   UNL     1       0.794   0.018   4.574  0.00  0.00    +0.124 A 
ENDBRANCH   2  16
BRANCH   1  30
ATOM     25  C   UNL     1       0.002   1.429  -0.277  0.00  0.00    +0.068 C 
ATOM     26  C   UNL     1      -0.048  -0.077  -0.240  0.00  0.00    +0.074 A 
ATOM     27  C   UNL     1      -0.128  -0.787  -1.426  0.00  0.00    +0.144 A 
ATOM     28  C   UNL     1      -0.173  -2.177  -1.388  0.00  0.00    +0.042 A 
ATOM     29  C   UNL     1      -0.136  -2.805  -0.158  0.00  0.00    +0.033 A 
ATOM     30  C   UNL     1      -0.055  -2.027   1.000  0.00  0.00    +0.090 A 
ATOM     31  N   UNL     1      -0.009  -0.700   0.920  0.00  0.00    -0.247 NA
ATOM     32  F   UNL     1      -0.162  -0.136  -2.609  0.00  0.00    -0.204 F 
ENDBRANCH   1  30
TORSDOF 2
