REMARK  Name = CHEMBL409158
REMARK  5 active torsions:
REMARK  status: ('A' for Active; 'I' for Inactive)
REMARK    1  A    between atoms: C_5  and  C_7
REMARK    2  A    between atoms: C_8  and  C_15
REMARK    3  A    between atoms: C_23  and  O_25
REMARK    4  A    between atoms: O_25  and  C_26
REMARK    5  A    between atoms: C_26  and  C_27
REMARK                            x       y       z     vdW  Elec       q    Type
REMARK                         _______ _______ _______ _____ _____    ______ ____
ROOT
ATOM      1  C   UNL     1       3.622  -2.522  -1.128  0.00  0.00    -0.003 A 
ATOM      2  C   UNL     1       4.747  -2.298  -0.343  0.00  0.00    +0.029 A 
ATOM      3  C   UNL     1       5.924  -1.863  -0.937  0.00  0.00    +0.112 A 
ATOM      4  N   UNL     1       6.011  -1.653  -2.230  0.00  0.00    -0.255 NA
ATOM      5  C   UNL     1       4.970  -1.848  -3.047  0.00  0.00    +0.075 A 
ATOM      6  C   UNL     1       3.733  -2.298  -2.524  0.00  0.00    +0.008 A 
ATOM      7  C   UNL     1       2.646  -2.507  -3.383  0.00  0.00    +0.014 A 
ATOM      8  C   UNL     1       2.784  -2.283  -4.718  0.00  0.00    +0.046 A 
ATOM      9  C   UNL     1       4.002  -1.845  -5.247  0.00  0.00    +0.123 A 
ATOM     10  C   UNL     1       5.084  -1.618  -4.428  0.00  0.00    +0.074 A 
ENDROOT
BRANCH   1  12
ATOM     11  C   UNL     1       1.267  -2.146  -0.022  0.00  0.00    +0.119 A 
ATOM     12  C   UNL     1       2.352  -2.986  -0.528  0.00  0.00    +0.033 A 
ATOM     13  C   UNL     1       1.964  -4.285  -0.339  0.00  0.00    +0.048 A 
ATOM     14  N   UNL     1       0.749  -4.283   0.238  0.00  0.00    -0.267 N 
ATOM     15  N   UNL     1       0.335  -2.954   0.430  0.00  0.00    -0.169 NA
ATOM     16  C   UNL     1       0.279  -5.660   0.476  0.00  0.00    +0.144 C 
ATOM     17  C   UNL     1       1.157  -6.559  -0.420  0.00  0.00    +0.029 C 
ATOM     18  C   UNL     1       2.438  -5.706  -0.559  0.00  0.00    +0.057 C 
BRANCH  11  23
ATOM     19  C   UNL     1      -0.017   1.379   0.010  0.00  0.00    +0.004 A 
ATOM     20  C   UNL     1       1.194   2.059   0.002  0.00  0.00    +0.020 A 
ATOM     21  C   UNL     1       2.375   1.340  -0.013  0.00  0.00    +0.111 A 
ATOM     22  N   UNL     1       2.365   0.022  -0.020  0.00  0.00    -0.253 NA
ATOM     23  C   UNL     1       1.230  -0.665  -0.013  0.00  0.00    +0.091 A 
ATOM     24  C   UNL     1       0.002  -0.004   0.002  0.00  0.00    +0.030 A 
ENDBRANCH  11  23
ENDBRANCH   1  12
BRANCH   9  25
ATOM     25  O   UNL     1       4.114  -1.629  -6.584  0.00  0.00    -0.489 OA
BRANCH  25  26
ATOM     26  C   UNL     1       2.952  -1.869  -7.380  0.00  0.00    +0.260 C 
BRANCH  26  27
ATOM     27  C   UNL     1       3.269  -1.574  -8.847  0.00  0.00    +0.156 C 
ATOM     28  C   UNL     1       1.990  -1.720  -9.699  0.00  0.00    +0.037 C 
ATOM     29  C   UNL     1       2.529  -2.396 -10.990  0.00  0.00    +0.031 C 
ATOM     30  C   UNL     1       3.652  -3.289 -10.407  0.00  0.00    +0.160 C 
ATOM     31  O   UNL     1       4.226  -2.521  -9.338  0.00  0.00    -0.373 OA
ENDBRANCH  26  27
ENDBRANCH  25  26
ENDBRANCH   9  25
TORSDOF 5
