REMARK  Name = CHEMBL206017
REMARK  5 active torsions:
REMARK  status: ('A' for Active; 'I' for Inactive)
REMARK    1  A    between atoms: C_5  and  C_7
REMARK    2  A    between atoms: C_8  and  C_13
REMARK    3  A    between atoms: C_17  and  C_19
REMARK    4  A    between atoms: C_22  and  N_25
REMARK    5  A    between atoms: C_26  and  C_28
REMARK                            x       y       z     vdW  Elec       q    Type
REMARK                         _______ _______ _______ _____ _____    ______ ____
ROOT
ATOM      1  C   UNL     1       3.578  -2.317  -0.974  0.00  0.00    -0.011 A 
ATOM      2  C   UNL     1       3.551  -1.498  -2.109  0.00  0.00    +0.028 A 
ATOM      3  C   UNL     1       4.731  -1.216  -2.764  0.00  0.00    +0.112 A 
ATOM      4  N   UNL     1       5.879  -1.704  -2.338  0.00  0.00    -0.255 NA
ATOM      5  C   UNL     1       5.955  -2.484  -1.266  0.00  0.00    +0.072 A 
ATOM      6  C   UNL     1       4.811  -2.813  -0.546  0.00  0.00    +0.037 A 
ENDROOT
BRANCH   1   8
ATOM      7  C   UNL     1       1.368  -1.742   0.188  0.00  0.00    +0.092 A 
ATOM      8  C   UNL     1       2.332  -2.645  -0.242  0.00  0.00    +0.029 A 
ATOM      9  C   UNL     1       1.905  -3.927   0.145  0.00  0.00    +0.143 A 
ATOM     10  N   UNL     1       0.762  -3.814   0.768  0.00  0.00    -0.181 NA
ATOM     11  H   UNL     1      -0.403  -2.104   1.227  0.00  0.00    +0.189 HD
ATOM     12  N   UNL     1       0.399  -2.463   0.817  0.00  0.00    -0.275 N 
BRANCH   7  17
ATOM     13  C   UNL     1       0.234   1.812  -0.178  0.00  0.00    +0.004 A 
ATOM     14  C   UNL     1       1.469   2.425  -0.340  0.00  0.00    +0.020 A 
ATOM     15  C   UNL     1       2.617   1.654  -0.322  0.00  0.00    +0.111 A 
ATOM     16  N   UNL     1       2.553   0.349  -0.155  0.00  0.00    -0.253 NA
ATOM     17  C   UNL     1       1.392  -0.276   0.003  0.00  0.00    +0.089 A 
ATOM     18  C   UNL     1       0.194   0.441  -0.004  0.00  0.00    +0.030 A 
ENDBRANCH   7  17
ENDBRANCH   1   8
BRANCH   5  19
ATOM     19  C   UNL     1       7.272  -3.006  -0.830  0.00  0.00    +0.000 A 
ATOM     20  C   UNL     1       7.360  -3.831   0.291  0.00  0.00    +0.012 A 
ATOM     21  C   UNL     1       8.586  -4.315   0.695  0.00  0.00    +0.024 A 
ATOM     22  C   UNL     1       9.734  -3.981  -0.015  0.00  0.00    +0.033 A 
ATOM     23  C   UNL     1       9.649  -3.159  -1.132  0.00  0.00    +0.024 A 
ATOM     24  C   UNL     1       8.425  -2.677  -1.543  0.00  0.00    +0.012 A 
BRANCH  22  25
ATOM     25  N   UNL     1      10.976  -4.473   0.397  0.00  0.00    -0.285 N 
ATOM     26  C   UNL     1      11.064  -5.694   0.959  0.00  0.00    +0.220 C 
ATOM     27  O   UNL     1      10.084  -6.406   1.022  0.00  0.00    -0.275 OA
ATOM     28  H   UNL     1      11.774  -3.935   0.277  0.00  0.00    +0.155 HD
BRANCH  26  29
ATOM     29  C   UNL     1      12.381  -6.177   1.511  0.00  0.00    +0.080 C 
ATOM     30  C   UNL     1      13.422  -6.221   0.387  0.00  0.00    +0.041 C 
ATOM     31  C   UNL     1      14.733  -6.787   0.939  0.00  0.00    +0.160 C 
ATOM     32  O   UNL     1      14.497  -8.084   1.489  0.00  0.00    -0.380 OA
ATOM     33  C   UNL     1      13.568  -8.097   2.575  0.00  0.00    +0.160 C 
ATOM     34  C   UNL     1      12.210  -7.585   2.089  0.00  0.00    +0.041 C 
ENDBRANCH  26  29
ENDBRANCH  22  25
ENDBRANCH   5  19
TORSDOF 5
