REMARK  Name = ZINC09217418
REMARK  6 active torsions:
REMARK  status: ('A' for Active; 'I' for Inactive)
REMARK    1  A    between atoms: C_4  and  C_7
REMARK    2  A    between atoms: C_8  and  S_9
REMARK    3  A    between atoms: S_9  and  N_12
REMARK    4  A    between atoms: C_17  and  C_18
REMARK    5  A    between atoms: C_17  and  N_55
REMARK    6  A    between atoms: C_24  and  C_29
REMARK                            x       y       z     vdW  Elec       q    Type
REMARK                         _______ _______ _______ _____ _____    ______ ____
ROOT
ATOM      1  N   UNL     1       7.145   1.503  -0.813  0.00  0.00    -0.181 NA
ATOM      2  C   UNL     1       7.172   0.598   0.347  0.00  0.00    +0.091 C 
ATOM      3  C   UNL     1       6.059  -0.442   0.179  0.00  0.00    -0.061 C 
ATOM      4  C   UNL     1       4.802   1.024  -1.288  0.00  0.00    -0.061 C 
ATOM      5  C   UNL     1       5.864   2.124  -1.181  0.00  0.00    +0.091 C 
ATOM      6  N   UNL     1       4.775   0.265  -0.019  0.00  0.00    +0.386 N 
ATOM      7  H   UNL     1       4.632   0.921   0.758  0.00  0.00    -0.081 HD
ENDROOT
BRANCH   1   8
ATOM      8  S   UNL     1       8.520   1.813  -1.681  0.00  0.00    +0.054 S 
ATOM      9  O   UNL     1       8.325   3.068  -2.317  0.00  0.00    -0.153 OA
ATOM     10  O   UNL     1       9.615   1.563  -0.810  0.00  0.00    -0.153 OA
BRANCH   8  12
ATOM     11  C   UNL     1       8.519   0.981  -4.231  0.00  0.00    +0.028 C 
ATOM     12  C   UNL     1       8.610   0.607  -2.963  0.00  0.00    +0.153 C 
BRANCH  11  16
ATOM     13  C   UNL     1       8.736  -1.925  -7.321  0.00  0.00    +0.000 A 
ATOM     14  C   UNL     1       8.570  -0.590  -7.642  0.00  0.00    +0.001 A 
ATOM     15  C   UNL     1       8.499   0.359  -6.643  0.00  0.00    +0.008 A 
ATOM     16  C   UNL     1       8.595  -0.031  -5.307  0.00  0.00    -0.024 A 
ATOM     17  C   UNL     1       8.767  -1.379  -4.990  0.00  0.00    +0.008 A 
ATOM     18  C   UNL     1       8.831  -2.318  -5.998  0.00  0.00    +0.001 A 
ENDBRANCH  11  16
ENDBRANCH   8  12
ENDBRANCH   1   8
BRANCH   6  19
ATOM     19  C   UNL     1       3.662  -0.707  -0.037  0.00  0.00    -0.003 C 
BRANCH  19  20
ATOM     20  C   UNL     1       2.358   0.048  -0.020  0.00  0.00    +0.094 A 
ATOM     21  N   UNL     1       1.188  -0.640  -0.013  0.00  0.00    -0.312 N 
ATOM     22  H   UNL     1       1.207  -1.610  -0.018  0.00  0.00    +0.170 HD
ATOM     23  C   UNL     1       0.002  -0.004   0.002  0.00  0.00    +0.260 A 
ATOM     24  O   UNL     1      -1.040  -0.637   0.008  0.00  0.00    -0.267 OA
ATOM     25  C   UNL     1      -0.017   1.427   0.010  0.00  0.00    +0.080 A 
ATOM     26  C   UNL     1      -1.159   2.334   0.020  0.00  0.00    +0.010 A 
ATOM     27  C   UNL     1      -0.929   3.671   0.030  0.00  0.00    +0.057 A 
ATOM     28  S   UNL     1       0.850   3.783   0.014  0.00  0.00    -0.076 S 
ATOM     29  C   UNL     1       1.240   2.052   0.001  0.00  0.00    +0.116 A 
ATOM     30  N   UNL     1       2.373   1.354  -0.013  0.00  0.00    -0.229 NA
BRANCH  26  31
ATOM     31  C   UNL     1      -2.540   1.808   0.024  0.00  0.00    +0.021 A 
ATOM     32  C   UNL     1      -3.585   2.131   0.848  0.00  0.00    +0.016 A 
ATOM     33  C   UNL     1      -4.798   1.504   0.657  0.00  0.00    +0.008 A 
ATOM     34  C   UNL     1      -4.917   0.581  -0.331  0.00  0.00    +0.046 A 
ATOM     35  S   UNL     1      -3.279   0.579  -1.041  0.00  0.00    -0.097 S 
ENDBRANCH  26  31
ENDBRANCH  19  20
ENDBRANCH   6  19
TORSDOF 6
