REMARK  Name = ZINC06410137
REMARK  6 active torsions:
REMARK  status: ('A' for Active; 'I' for Inactive)
REMARK    1  A    between atoms: C_1  and  C_2
REMARK    2  A    between atoms: C_7  and  C_14
REMARK    3  A    between atoms: C_14  and  C_16
REMARK    4  A    between atoms: C_14  and  N_61
REMARK    5  A    between atoms: N_20  and  C_21
REMARK    6  A    between atoms: C_21  and  C_22
REMARK                            x       y       z     vdW  Elec       q    Type
REMARK                         _______ _______ _______ _____ _____    ______ ____
ROOT
ATOM      1  C   UNL     1       1.536  -1.470  -1.585  0.00  0.00    +0.039 C 
ENDROOT
BRANCH   1   8
ATOM      2  C   UNL     1      -5.557  -0.556  -5.117  0.00  0.00    +0.044 C 
ATOM      3  C   UNL     1      -4.334  -0.705  -4.249  0.00  0.00    -0.048 A 
ATOM      4  C   UNL     1      -4.461  -0.649  -2.868  0.00  0.00    +0.004 A 
ATOM      5  C   UNL     1      -3.366  -0.783  -2.063  0.00  0.00    +0.010 A 
ATOM      6  C   UNL     1      -2.104  -0.978  -2.635  0.00  0.00    -0.001 A 
ATOM      7  C   UNL     1      -0.910  -1.131  -1.802  0.00  0.00    +0.017 A 
ATOM      8  C   UNL     1       0.287  -1.313  -2.413  0.00  0.00    +0.011 A 
ATOM      9  C   UNL     1       0.366  -1.363  -3.821  0.00  0.00    +0.251 A 
ATOM     10  O   UNL     1       1.451  -1.532  -4.349  0.00  0.00    -0.268 OA
ATOM     11  N   UNL     1      -0.726  -1.228  -4.594  0.00  0.00    -0.322 N 
ATOM     12  H   UNL     1      -0.636  -1.267  -5.559  0.00  0.00    +0.169 HD
ATOM     13  C   UNL     1      -1.971  -1.035  -4.035  0.00  0.00    +0.049 A 
ATOM     14  C   UNL     1      -3.101  -0.896  -4.835  0.00  0.00    +0.029 A 
ENDBRANCH   1   8
BRANCH   1  24
ATOM     15  C   UNL     1       1.371  -3.878  -1.796  0.00  0.00    -0.072 C 
ATOM     16  C   UNL     1       1.990  -5.056  -2.549  0.00  0.00    +0.017 C 
ATOM     17  C   UNL     1       3.443  -5.198  -2.175  0.00  0.00    -0.048 A 
ATOM     18  C   UNL     1       4.087  -6.392  -2.464  0.00  0.00    +0.004 A 
ATOM     19  C   UNL     1       5.420  -6.561  -2.147  0.00  0.00    +0.000 A 
ATOM     20  C   UNL     1       6.117  -5.534  -1.538  0.00  0.00    +0.000 A 
ATOM     21  C   UNL     1       5.476  -4.346  -1.248  0.00  0.00    +0.002 A 
ATOM     22  C   UNL     1       4.137  -4.175  -1.565  0.00  0.00    -0.061 A 
ATOM     23  C   UNL     1       3.481  -2.863  -1.225  0.00  0.00    -0.041 C 
ATOM     24  N   UNL     1       2.240  -2.703  -2.002  0.00  0.00    +0.392 N 
ATOM     25  H   UNL     1       2.476  -2.631  -2.999  0.00  0.00    -0.080 HD
ENDBRANCH   1  24
BRANCH   1  26
ATOM     26  C   UNL     1       2.440  -0.285  -1.810  0.00  0.00    +0.143 A 
ATOM     27  N   UNL     1       3.047   0.034  -2.927  0.00  0.00    -0.115 NA
ATOM     28  N   UNL     1       3.729   1.107  -2.717  0.00  0.00    -0.023 NA
ATOM     29  N   UNL     1       3.569   1.482  -1.496  0.00  0.00    -0.044 NA
ATOM     30  N   UNL     1       2.778   0.651  -0.905  0.00  0.00    -0.226 N 
BRANCH  30  31
ATOM     31  C   UNL     1       2.337   0.712   0.490  0.00  0.00    +0.182 C 
BRANCH  31  32
ATOM     32  C   UNL     1       1.168   1.657   0.607  0.00  0.00    -0.026 A 
ATOM     33  C   UNL     1      -0.123   1.162   0.603  0.00  0.00    +0.005 A 
ATOM     34  C   UNL     1      -1.195   2.029   0.704  0.00  0.00    +0.000 A 
ATOM     35  C   UNL     1      -0.976   3.389   0.819  0.00  0.00    +0.000 A 
ATOM     36  C   UNL     1       0.315   3.883   0.824  0.00  0.00    +0.000 A 
ATOM     37  C   UNL     1       1.387   3.017   0.718  0.00  0.00    +0.005 A 
ENDBRANCH  31  32
ENDBRANCH  30  31
ENDBRANCH   1  26
TORSDOF 5
