REMARK  Name = ZINC23516958
REMARK  8 active torsions:
REMARK  status: ('A' for Active; 'I' for Inactive)
REMARK    1  A    between atoms: C_1  and  C_2
REMARK    2  A    between atoms: C_2  and  C_4
REMARK    3  A    between atoms: C_2  and  S_13
REMARK    4  A    between atoms: N_6  and  C_7
REMARK    5  A    between atoms: S_13  and  C_14
REMARK    6  A    between atoms: C_17  and  C_26
REMARK    7  A    between atoms: N_18  and  C_19
REMARK    8  A    between atoms: C_19  and  C_20
REMARK                            x       y       z     vdW  Elec       q    Type
REMARK                         _______ _______ _______ _____ _____    ______ ____
ROOT
ATOM      1  C   UNL     1       1.203   1.749  -0.077  0.00  0.00    +0.193 A 
ATOM      2  N   UNL     1      -0.012   1.279   0.090  0.00  0.00    -0.122 NA
ATOM      3  N   UNL     1       0.012  -0.005   0.130  0.00  0.00    -0.128 NA
ATOM      4  C   UNL     1       1.245  -0.435  -0.010  0.00  0.00    +0.167 A 
ATOM      5  N   UNL     1       2.047   0.675  -0.146  0.00  0.00    -0.300 N 
ENDROOT
BRANCH   4   6
ATOM      6  C   UNL     1       1.688  -1.844  -0.019  0.00  0.00    +0.044 A 
ATOM      7  C   UNL     1       2.733  -2.370   0.670  0.00  0.00    +0.095 A 
ATOM      8  N   UNL     1       2.831  -3.706   0.409  0.00  0.00    -0.360 N 
ATOM      9  H   UNL     1       3.625  -4.303   0.882  0.00  0.00    +0.165 HD
ATOM     10  C   UNL     1       1.840  -4.094  -0.468  0.00  0.00    +0.047 A 
ATOM     11  C   UNL     1       1.077  -2.953  -0.771  0.00  0.00    +0.010 A 
ATOM     12  C   UNL     1      -0.009  -3.051  -1.639  0.00  0.00    +0.011 A 
ATOM     13  C   UNL     1      -0.331  -4.269  -2.193  0.00  0.00    +0.001 A 
ATOM     14  C   UNL     1       0.419  -5.397  -1.892  0.00  0.00    +0.002 A 
ATOM     15  C   UNL     1       1.500  -5.314  -1.042  0.00  0.00    +0.026 A 
ENDBRANCH   4   6
BRANCH   1  16
ATOM     16  S   UNL     1       1.660   3.447  -0.190  0.00  0.00    -0.074 S 
BRANCH  16  18
ATOM     17  C   UNL     1      -0.843   3.848  -1.209  0.00  0.00    +0.029 C 
ATOM     18  C   UNL     1       0.035   4.223  -0.013  0.00  0.00    +0.137 C 
BRANCH  18  19
ATOM     19  C   UNL     1       0.196   5.720   0.042  0.00  0.00    +0.226 C 
ATOM     20  O   UNL     1       1.165   6.245  -0.465  0.00  0.00    -0.275 OA
ATOM     21  N   UNL     1      -0.737   6.477   0.653  0.00  0.00    -0.312 N 
ATOM     22  H   UNL     1      -1.616   6.001   1.113  0.00  0.00    +0.149 HD
BRANCH  21  23
ATOM     23  C   UNL     1      -0.580   7.932   0.707  0.00  0.00    +0.073 C 
ATOM     24  C   UNL     1       0.298   8.307   1.903  0.00  0.00    +0.022 C 
ATOM     25  C   UNL     1       0.462   9.827   1.958  0.00  0.00    +0.002 C 
ATOM     26  C   UNL     1      -0.912  10.483   2.108  0.00  0.00    +0.000 C 
ATOM     27  C   UNL     1      -1.790  10.109   0.912  0.00  0.00    +0.002 C 
ATOM     28  C   UNL     1      -1.954   8.588   0.857  0.00  0.00    +0.022 C 
ENDBRANCH  21  23
ENDBRANCH  18  19
ENDBRANCH  16  18
ENDBRANCH   1  16
BRANCH   5  29
ATOM     29  C   UNL     1       3.500   0.701  -0.328  0.00  0.00    +0.157 C 
BRANCH  29  30
ATOM     30  C   UNL     1       3.826   0.792  -1.820  0.00  0.00    +0.138 C 
ATOM     31  C   UNL     1       5.359   0.876  -2.031  0.00  0.00    +0.035 C 
ATOM     32  C   UNL     1       5.489   0.318  -3.475  0.00  0.00    +0.031 C 
ATOM     33  C   UNL     1       4.363  -0.738  -3.520  0.00  0.00    +0.160 C 
ATOM     34  O   UNL     1       3.420  -0.409  -2.494  0.00  0.00    -0.375 OA
ENDBRANCH  29  30
ENDBRANCH   5  29
TORSDOF 7
