REMARK  Name = ZINC09738090
REMARK  6 active torsions:
REMARK  status: ('A' for Active; 'I' for Inactive)
REMARK    1  A    between atoms: C_1  and  C_2
REMARK    2  A    between atoms: C_6  and  N_16
REMARK    3  A    between atoms: C_17  and  C_19
REMARK    4  A    between atoms: N_21  and  C_22
REMARK    5  A    between atoms: C_22  and  C_23
REMARK    6  A    between atoms: C_23  and  C_24
REMARK                            x       y       z     vdW  Elec       q    Type
REMARK                         _______ _______ _______ _____ _____    ______ ____
ROOT
ATOM      1  N   UNL     1      -4.823  -1.045  -1.179  0.00  0.00    -0.278 N 
ATOM      2  C   UNL     1      -5.925  -1.760  -0.874  0.00  0.00    +0.303 C 
ATOM      3  O   UNL     1      -5.965  -2.405   0.153  0.00  0.00    -0.265 OA
ATOM      4  H   UNL     1      -4.819  -0.469  -1.959  0.00  0.00    +0.155 HD
ENDROOT
BRANCH   1   9
ATOM      5  C   UNL     1      -1.186  -4.683   0.976  0.00  0.00    +0.022 C 
ATOM      6  C   UNL     1      -1.605  -3.515   1.871  0.00  0.00    +0.104 C 
ATOM      7  C   UNL     1      -2.260  -2.430   1.051  0.00  0.00    -0.012 A 
ATOM      8  C   UNL     1      -3.379  -2.341   0.254  0.00  0.00    +0.029 A 
ATOM      9  C   UNL     1      -3.687  -1.134  -0.369  0.00  0.00    +0.034 A 
ATOM     10  C   UNL     1      -2.876  -0.012  -0.196  0.00  0.00    +0.028 A 
ATOM     11  C   UNL     1      -1.762  -0.103   0.598  0.00  0.00    -0.024 A 
ATOM     12  C   UNL     1      -1.465  -1.319   1.214  0.00  0.00    +0.043 A 
ATOM     13  N   UNL     1      -0.364  -1.578   2.049  0.00  0.00    -0.270 N 
ATOM     14  C   UNL     1      -0.382  -2.846   2.479  0.00  0.00    +0.227 C 
ATOM     15  O   UNL     1       0.428  -3.367   3.216  0.00  0.00    -0.275 OA
ATOM     16  C   UNL     1       0.602  -0.501   2.325  0.00  0.00    +0.114 C 
ATOM     17  C   UNL     1       0.591   0.472   1.141  0.00  0.00    +0.024 C 
ATOM     18  C   UNL     1      -0.808   1.030   0.869  0.00  0.00    +0.038 C 
ENDBRANCH   1   9
BRANCH   2  19
ATOM     19  C   UNL     1      -7.096  -1.757  -1.801  0.00  0.00    +0.299 C 
ATOM     20  O   UNL     1      -7.055  -1.112  -2.828  0.00  0.00    -0.265 OA
ATOM     21  N   UNL     1      -8.197  -2.472  -1.497  0.00  0.00    -0.307 N 
ATOM     22  H   UNL     1      -8.229  -2.987  -0.676  0.00  0.00    +0.149 HD
BRANCH  21  23
ATOM     23  C   UNL     1      -9.346  -2.470  -2.406  0.00  0.00    +0.109 C 
BRANCH  23  24
ATOM     24  C   UNL     1     -10.454  -3.353  -1.830  0.00  0.00    +0.049 C 
BRANCH  24  25
ATOM     25  C   UNL     1     -11.636  -3.351  -2.765  0.00  0.00    -0.072 C 
ATOM     26  C   UNL     1     -11.731  -4.314  -3.625  0.00  0.00    -0.028 C 
ATOM     27  C   UNL     1     -12.842  -4.440  -4.626  0.00  0.00    +0.027 C 
ATOM     28  C   UNL     1     -14.023  -3.557  -4.217  0.00  0.00    +0.004 C 
ATOM     29  C   UNL     1     -13.492  -2.153  -3.902  0.00  0.00    +0.005 C 
ATOM     30  C   UNL     1     -12.632  -2.236  -2.638  0.00  0.00    +0.030 C 
ENDBRANCH  24  25
ENDBRANCH  23  24
ENDBRANCH  21  23
ENDBRANCH   2  19
TORSDOF 5
