REMARK  Name = ZINC18117815
REMARK  6 active torsions:
REMARK  status: ('A' for Active; 'I' for Inactive)
REMARK    1  A    between atoms: C_1  and  O_2
REMARK    2  A    between atoms: O_2  and  C_3
REMARK    3  A    between atoms: C_5  and  C_10
REMARK    4  A    between atoms: C_8  and  O_9
REMARK    5  A    between atoms: N_18  and  C_21
REMARK    6  A    between atoms: N_32  and  C_33
REMARK                            x       y       z     vdW  Elec       q    Type
REMARK                         _______ _______ _______ _____ _____    ______ ____
ROOT
ATOM      1  C   UNL     1       2.462   0.334   4.204  0.00  0.00    +0.157 C 
ATOM      2  C   UNL     1       3.981   0.299   4.100  0.00  0.00    +0.145 C 
ATOM      3  C   UNL     1       4.212  -0.995   4.969  0.00  0.00    +0.249 C 
ATOM      4  C   UNL     1       5.556  -1.371   4.578  0.00  0.00    +0.259 C 
ATOM      5  O   UNL     1       6.402  -1.898   5.268  0.00  0.00    -0.272 OA
ATOM      6  N   UNL     1       5.667  -1.004   3.263  0.00  0.00    -0.207 N 
ATOM      7  C   UNL     1       4.649  -0.173   2.846  0.00  0.00    +0.235 C 
ATOM      8  O   UNL     1       4.347   0.113   1.708  0.00  0.00    -0.274 OA
ATOM      9  O   UNL     1       3.458  -0.750   6.083  0.00  0.00    -0.257 OA
ATOM     10  N   UNL     1       2.186  -0.273   5.539  0.00  0.00    -0.244 N 
ENDROOT
BRANCH   6  11
ATOM     11  C   UNL     1       6.712  -1.416   2.429  0.00  0.00    +0.052 A 
ATOM     12  C   UNL     1       6.596  -2.573   1.690  0.00  0.00    +0.024 A 
ATOM     13  C   UNL     1       7.629  -2.992   0.857  0.00  0.00    +0.002 A 
ATOM     14  C   UNL     1       8.780  -2.273   0.749  0.00  0.00    +0.008 A 
ATOM     15  C   UNL     1       8.938  -1.087   1.485  0.00  0.00    -0.016 A 
ATOM     16  C   UNL     1       7.891  -0.648   2.333  0.00  0.00    +0.004 A 
ATOM     17  C   UNL     1       8.048   0.540   3.064  0.00  0.00    +0.010 A 
ATOM     18  C   UNL     1       9.200   1.256   2.946  0.00  0.00    +0.001 A 
ATOM     19  C   UNL     1      10.229   0.828   2.110  0.00  0.00    +0.001 A 
ATOM     20  C   UNL     1      10.115  -0.325   1.394  0.00  0.00    +0.008 A 
ENDBRANCH   6  11
BRANCH  10  21
ATOM     21  C   UNL     1       0.937  -0.360   6.160  0.00  0.00    +0.065 A 
ATOM     22  C   UNL     1      -0.192   0.141   5.524  0.00  0.00    +0.029 A 
ATOM     23  C   UNL     1      -1.425   0.054   6.140  0.00  0.00    +0.022 A 
ATOM     24  C   UNL     1      -1.536  -0.533   7.388  0.00  0.00    +0.041 A 
ATOM     25  C   UNL     1      -0.413  -1.033   8.023  0.00  0.00    +0.022 A 
ATOM     26  C   UNL     1       0.821  -0.953   7.410  0.00  0.00    +0.029 A 
ATOM     27 CL   UNL     1      -3.088  -0.640   8.159  0.00  0.00    -0.084 Cl
ENDBRANCH  10  21
BRANCH   1  30
ATOM     28  C   UNL     1       0.830  -0.633   0.937  0.00  0.00    +0.162 A 
ATOM     29  C   UNL     1       1.405   0.123   1.946  0.00  0.00    +0.055 A 
ATOM     30  C   UNL     1       1.836  -0.490   3.108  0.00  0.00    -0.018 A 
ATOM     31  C   UNL     1       1.694  -1.856   3.267  0.00  0.00    +0.009 A 
ATOM     32  C   UNL     1       1.121  -2.615   2.264  0.00  0.00    +0.049 A 
ATOM     33  C   UNL     1       0.682  -2.007   1.099  0.00  0.00    +0.158 A 
BRANCH  28  35
ATOM     34  C   UNL     1       0.590   1.382  -0.304  0.00  0.00    +0.277 C 
ATOM     35  O   UNL     1       0.405  -0.032  -0.207  0.00  0.00    -0.491 OA
ENDBRANCH  28  35
BRANCH  33  36
ATOM     36  O   UNL     1       0.112  -2.752   0.114  0.00  0.00    -0.503 OA
ATOM     37  H   UNL     1       0.743  -3.096  -0.534  0.00  0.00    +0.292 HD
ENDBRANCH  33  36
ENDBRANCH   1  30
TORSDOF 5
