REMARK  Name = ZINC59854052
REMARK  11 active torsions:
REMARK  status: ('A' for Active; 'I' for Inactive)
REMARK    1  A    between atoms: C_1  and  C_2
REMARK    2  A    between atoms: C_2  and  C_3
REMARK    3  A    between atoms: C_3  and  C_5
REMARK    4  A    between atoms: C_3  and  S_28
REMARK    5  A    between atoms: N_7  and  C_8
REMARK    6  A    between atoms: C_15  and  S_17
REMARK    7  A    between atoms: S_17  and  C_18
REMARK    8  A    between atoms: C_18  and  C_19
REMARK    9  A    between atoms: N_21  and  C_22
REMARK   10  A    between atoms: S_28  and  C_29
REMARK   11  A    between atoms: N_33  and  C_34
REMARK                            x       y       z     vdW  Elec       q    Type
REMARK                         _______ _______ _______ _____ _____    ______ ____
ROOT
ATOM      1  C   UNL     1       2.480  -4.242  -0.543  0.00  0.00    +0.035 A 
ATOM      2  C   UNL     1       1.692  -5.093  -1.314  0.00  0.00    +0.025 A 
ATOM      3  C   UNL     1       2.011  -6.416  -1.470  0.00  0.00    +0.031 A 
ATOM      4  C   UNL     1       3.157  -6.963  -0.847  0.00  0.00    +0.080 A 
ATOM      5  C   UNL     1       3.934  -6.073  -0.072  0.00  0.00    +0.042 A 
ATOM      6  C   UNL     1       3.616  -4.747   0.077  0.00  0.00    +0.040 A 
ATOM      7  S   UNL     1       5.240  -7.124   0.516  0.00  0.00    -0.061 S 
ATOM      8  C   UNL     1       4.692  -8.630  -0.276  0.00  0.00    +0.136 A 
ATOM      9  N   UNL     1       3.605  -8.238  -0.901  0.00  0.00    -0.233 NA
ENDROOT
BRANCH   1  12
ATOM     10  C   UNL     1       2.470  -2.226   0.724  0.00  0.00    +0.231 C 
ATOM     11  O   UNL     1       2.991  -2.817   1.647  0.00  0.00    -0.274 OA
ATOM     12  N   UNL     1       2.135  -2.892  -0.399  0.00  0.00    -0.285 N 
ATOM     13  H   UNL     1       1.654  -2.436  -1.107  0.00  0.00    +0.155 HD
BRANCH  10  14
ATOM     14  C   UNL     1       2.198  -0.748   0.834  0.00  0.00    +0.140 C 
BRANCH  14  16
ATOM     15  C   UNL     1       2.944   1.519   0.095  0.00  0.00    +0.005 C 
ATOM     16  C   UNL     1       3.289   0.028   0.094  0.00  0.00    +0.020 C 
ENDBRANCH  14  16
BRANCH  14  17
ATOM     17  S   UNL     1       2.190  -0.263   2.582  0.00  0.00    -0.073 S 
BRANCH  17  18
ATOM     18  C   UNL     1       0.790  -1.098   3.250  0.00  0.00    +0.192 A 
ATOM     19  N   UNL     1       0.019  -1.956   2.622  0.00  0.00    -0.123 NA
ATOM     20  N   UNL     1      -0.908  -2.369   3.411  0.00  0.00    -0.137 NA
ATOM     21  C   UNL     1      -0.785  -1.805   4.579  0.00  0.00    +0.225 A 
ATOM     22  N   UNL     1       0.304  -0.980   4.521  0.00  0.00    -0.312 N 
ATOM     23  C   UNL     1       0.836  -0.140   5.597  0.00  0.00    +0.152 C 
ENDBRANCH  17  18
ENDBRANCH  14  17
ENDBRANCH  10  14
ENDBRANCH   1  12
BRANCH   8  24
ATOM     24  S   UNL     1       5.424 -10.232  -0.230  0.00  0.00    -0.089 S 
BRANCH  24  25
ATOM     25  C   UNL     1       4.325 -11.246  -1.257  0.00  0.00    +0.172 C 
BRANCH  25  26
ATOM     26  C   UNL     1       4.843 -12.660  -1.303  0.00  0.00    +0.227 C 
ATOM     27  O   UNL     1       5.854 -12.955  -0.702  0.00  0.00    -0.275 OA
ATOM     28  N   UNL     1       4.183 -13.597  -2.012  0.00  0.00    -0.285 N 
ATOM     29  H   UNL     1       3.410 -13.348  -2.544  0.00  0.00    +0.155 HD
BRANCH  28  30
ATOM     30  C   UNL     1       4.611 -14.929  -1.980  0.00  0.00    +0.033 A 
ATOM     31  C   UNL     1       4.485 -15.727  -3.110  0.00  0.00    +0.023 A 
ATOM     32  C   UNL     1       4.909 -17.041  -3.076  0.00  0.00    +0.002 A 
ATOM     33  C   UNL     1       5.458 -17.562  -1.919  0.00  0.00    +0.000 A 
ATOM     34  C   UNL     1       5.584 -16.770  -0.792  0.00  0.00    +0.002 A 
ATOM     35  C   UNL     1       5.168 -15.454  -0.822  0.00  0.00    +0.023 A 
ENDBRANCH  28  30
ENDBRANCH  25  26
ENDBRANCH  24  25
ENDBRANCH   8  24
TORSDOF 9
