REMARK  Name = ZINC20937645
REMARK  6 active torsions:
REMARK  status: ('A' for Active; 'I' for Inactive)
REMARK    1  A    between atoms: C_1  and  C_2
REMARK    2  A    between atoms: C_2  and  C_3
REMARK    3  A    between atoms: C_3  and  C_5
REMARK    4  A    between atoms: C_3  and  N_19
REMARK    5  A    between atoms: C_26  and  S_28
REMARK    6  A    between atoms: S_28  and  N_31
REMARK                            x       y       z     vdW  Elec       q    Type
REMARK                         _______ _______ _______ _____ _____    ______ ____
ROOT
ATOM      1  C   UNL     1       0.189   9.480  -2.646  0.00  0.00    +0.173 C 
ENDROOT
BRANCH   1   2
ATOM      2  C   UNL     1       1.079   8.902  -1.576  0.00  0.00    +0.239 C 
ATOM      3  O   UNL     1       1.057   9.363  -0.454  0.00  0.00    -0.273 OA
ATOM      4  N   UNL     1       1.900   7.873  -1.866  0.00  0.00    -0.297 N 
ATOM      5  C   UNL     1       2.855   7.365  -0.869  0.00  0.00    +0.127 C 
ATOM      6  C   UNL     1       4.244   7.302  -1.513  0.00  0.00    +0.125 C 
ATOM      7  N   UNL     1       4.169   6.522  -2.755  0.00  0.00    -0.314 N 
ATOM      8  C   UNL     1       3.292   7.170  -3.740  0.00  0.00    +0.125 C 
ATOM      9  C   UNL     1       1.864   7.227  -3.187  0.00  0.00    +0.127 C 
ATOM     10  C   UNL     1       5.436   6.305  -3.284  0.00  0.00    +0.099 A 
ATOM     11  C   UNL     1       5.576   5.582  -4.464  0.00  0.00    +0.042 A 
ATOM     12  C   UNL     1       6.843   5.378  -4.982  0.00  0.00    +0.005 A 
ATOM     13  C   UNL     1       7.931   5.896  -4.293  0.00  0.00    +0.018 A 
ATOM     14  C   UNL     1       7.720   6.604  -3.127  0.00  0.00    +0.084 A 
ATOM     15  N   UNL     1       6.499   6.788  -2.659  0.00  0.00    -0.350 N 
ATOM     16  H   UNL     1       6.377   7.358  -1.727  0.00  0.00    +0.166 HD
ENDBRANCH   1   2
BRANCH   1  17
ATOM     17  N   UNL     1       0.939  10.472  -3.421  0.00  0.00    -0.335 N 
ATOM     18  C   UNL     1       1.502  11.608  -2.908  0.00  0.00    +0.087 A 
ATOM     19  C   UNL     1       2.117  12.295  -3.884  0.00  0.00    +0.027 A 
ATOM     20  C   UNL     1       1.925  11.541  -5.125  0.00  0.00    +0.002 A 
ATOM     21  C   UNL     1       1.176  10.402  -4.776  0.00  0.00    +0.050 A 
ATOM     22  C   UNL     1       0.832   9.484  -5.762  0.00  0.00    +0.028 A 
ATOM     23  C   UNL     1       1.227   9.699  -7.065  0.00  0.00    +0.030 A 
ATOM     24  C   UNL     1       1.966  10.824  -7.404  0.00  0.00    +0.106 A 
ATOM     25  C   UNL     1       2.314  11.739  -6.450  0.00  0.00    +0.038 A 
BRANCH  24  26
ATOM     26  S   UNL     1       2.458  11.075  -9.077  0.00  0.00    +0.061 S 
ATOM     27  O   UNL     1       1.540  10.348  -9.883  0.00  0.00    -0.153 OA
ATOM     28  O   UNL     1       2.668  12.472  -9.233  0.00  0.00    -0.153 OA
BRANCH  26  29
ATOM     29  N   UNL     1       3.934  10.349  -9.268  0.00  0.00    -0.177 NA
ATOM     30  C   UNL     1       5.174  11.100  -9.030  0.00  0.00    +0.109 C 
ATOM     31  C   UNL     1       6.033  10.319  -8.024  0.00  0.00    +0.017 C 
ATOM     32  C   UNL     1       6.250   8.897  -8.543  0.00  0.00    +0.003 C 
ATOM     33  C   UNL     1       4.900   8.188  -8.675  0.00  0.00    +0.017 C 
ATOM     34  C   UNL     1       4.028   8.943  -9.684  0.00  0.00    +0.109 C 
ENDBRANCH  26  29
ENDBRANCH  24  26
ENDBRANCH   1  17
BRANCH   1  36
ATOM     35  C   UNL     1      -1.992  10.617  -3.081  0.00  0.00    +0.006 C 
ATOM     36  C   UNL     1      -1.022  10.151  -1.994  0.00  0.00    +0.031 C 
ENDBRANCH   1  36
TORSDOF 5
