REMARK  Name = ZINC01952941
REMARK  7 active torsions:
REMARK  status: ('A' for Active; 'I' for Inactive)
REMARK    1  A    between atoms: C_1  and  C_2
REMARK    2  A    between atoms: C_5  and  N_8
REMARK    3  A    between atoms: C_9  and  C_11
REMARK    4  A    between atoms: C_11  and  C_12
REMARK    5  A    between atoms: C_12  and  C_13
REMARK    6  A    between atoms: N_15  and  N_16
REMARK    7  A    between atoms: C_17  and  C_18
REMARK                            x       y       z     vdW  Elec       q    Type
REMARK                         _______ _______ _______ _____ _____    ______ ____
ROOT
ATOM      1  C   UNL     1       4.857   1.790  -0.224  0.00  0.00    +0.233 C 
ATOM      2  O   UNL     1       5.028   0.613   0.019  0.00  0.00    -0.274 OA
ATOM      3  N   UNL     1       5.918   2.601  -0.405  0.00  0.00    -0.207 N 
ATOM      4  H   UNL     1       5.782   3.542  -0.599  0.00  0.00    +0.177 HD
ENDROOT
BRANCH   3   5
ATOM      5  N   UNL     1       7.218   2.086  -0.314  0.00  0.00    -0.187 NA
ATOM      6  C   UNL     1       8.239   2.867  -0.489  0.00  0.00    +0.145 C 
BRANCH   6   7
ATOM      7  C   UNL     1       9.606   2.325  -0.393  0.00  0.00    +0.077 A 
ATOM      8  C   UNL     1      10.690   3.132  -0.580  0.00  0.00    +0.209 A 
ATOM      9  O   UNL     1      11.942   2.681  -0.495  0.00  0.00    -0.462 OA
ATOM     10  C   UNL     1      12.252   1.395  -0.232  0.00  0.00    +0.138 A 
ATOM     11  C   UNL     1      13.580   0.989  -0.163  0.00  0.00    +0.048 A 
ATOM     12  C   UNL     1      13.885  -0.327   0.106  0.00  0.00    +0.019 A 
ATOM     13  C   UNL     1      12.879  -1.261   0.312  0.00  0.00    +0.019 A 
ATOM     14  C   UNL     1      11.556  -0.880   0.251  0.00  0.00    +0.030 A 
ATOM     15  C   UNL     1      11.235   0.449  -0.022  0.00  0.00    +0.066 A 
ATOM     16  C   UNL     1       9.831   0.898  -0.099  0.00  0.00    +0.201 A 
ATOM     17  O   UNL     1       8.904   0.127   0.073  0.00  0.00    -0.286 OA
ATOM     18 BR   UNL     1      13.325  -3.062   0.680  0.00  0.00    -0.050 Br
ENDBRANCH   6   7
ENDBRANCH   3   5
BRANCH   1  19
ATOM     19  C   UNL     1       3.459   2.344  -0.322  0.00  0.00    +0.107 C 
BRANCH  19  20
ATOM     20  C   UNL     1       2.448   1.223  -0.076  0.00  0.00    +0.105 C 
BRANCH  20  22
ATOM     21  N   UNL     1      -0.011   0.966   0.007  0.00  0.00    -0.285 N 
ATOM     22  C   UNL     1       1.050   1.777  -0.174  0.00  0.00    +0.218 C 
ATOM     23  O   UNL     1       0.879   2.953  -0.417  0.00  0.00    -0.275 OA
ATOM     24  H   UNL     1       0.122   0.012   0.124  0.00  0.00    +0.155 HD
BRANCH  21  29
ATOM     25  C   UNL     1      -5.256   3.126   0.068  0.00  0.00    +0.044 C 
ATOM     26  C   UNL     1      -3.863   2.552   0.052  0.00  0.00    -0.050 A 
ATOM     27  C   UNL     1      -3.645   1.284  -0.456  0.00  0.00    +0.005 A 
ATOM     28  C   UNL     1      -2.369   0.756  -0.472  0.00  0.00    +0.023 A 
ATOM     29  C   UNL     1      -1.305   1.499   0.022  0.00  0.00    +0.033 A 
ATOM     30  C   UNL     1      -1.528   2.769   0.536  0.00  0.00    +0.023 A 
ATOM     31  C   UNL     1      -2.806   3.294   0.544  0.00  0.00    +0.005 A 
ENDBRANCH  21  29
ENDBRANCH  20  22
ENDBRANCH  19  20
ENDBRANCH   1  19
TORSDOF 6
