REMARK  Name = ZINC10135989
REMARK  8 active torsions:
REMARK  status: ('A' for Active; 'I' for Inactive)
REMARK    1  A    between atoms: N_13  and  C_16
REMARK    2  A    between atoms: C_16  and  C_17
REMARK    3  A    between atoms: C_17  and  C_18
REMARK    4  A    between atoms: C_18  and  C_19
REMARK    5  A    between atoms: N_21  and  C_22
REMARK    6  A    between atoms: C_22  and  C_23
REMARK    7  A    between atoms: C_23  and  C_25
REMARK    8  A    between atoms: C_23  and  N_63
REMARK                            x       y       z     vdW  Elec       q    Type
REMARK                         _______ _______ _______ _____ _____    ______ ____
ROOT
ATOM      1  C   UNL     1      -1.731   1.521  -3.546  0.00  0.00    +0.097 C 
ENDROOT
BRANCH   1   2
ATOM      2  C   UNL     1      -0.789   1.139  -2.433  0.00  0.00    +0.213 C 
ATOM      3  O   UNL     1       0.257   0.583  -2.689  0.00  0.00    -0.276 OA
ATOM      4  N   UNL     1      -1.110   1.417  -1.154  0.00  0.00    -0.316 N 
ATOM      5  H   UNL     1      -1.947   1.862  -0.949  0.00  0.00    +0.149 HD
BRANCH   4   6
ATOM      6  C   UNL     1      -0.195   1.045  -0.072  0.00  0.00    +0.096 C 
BRANCH   6   7
ATOM      7  C   UNL     1      -0.848   1.353   1.277  0.00  0.00    +0.016 C 
BRANCH   7  13
ATOM      8  C   UNL     1      -0.133   3.658   1.092  0.00  0.00    -0.078 C 
ATOM      9  C   UNL     1      -0.632   5.101   0.983  0.00  0.00    -0.019 C 
ATOM     10  C   UNL     1      -1.371   5.479   2.271  0.00  0.00    -0.004 C 
ATOM     11  C   UNL     1      -2.524   4.497   2.495  0.00  0.00    -0.019 C 
ATOM     12  C   UNL     1      -1.970   3.072   2.560  0.00  0.00    -0.078 C 
ATOM     13  N   UNL     1      -1.292   2.762   1.283  0.00  0.00    +0.387 N 
ATOM     14  H   UNL     1      -1.955   2.906   0.511  0.00  0.00    -0.081 HD
ENDBRANCH   7  13
BRANCH   7  15
ATOM     15  C   UNL     1      -2.047   0.461   1.470  0.00  0.00    +0.093 A 
ATOM     16  C   UNL     1      -2.081  -0.662   2.209  0.00  0.00    +0.043 A 
ATOM     17  C   UNL     1      -3.394  -1.177   2.111  0.00  0.00    +0.041 A 
ATOM     18  C   UNL     1      -4.084  -0.338   1.318  0.00  0.00    +0.195 A 
ATOM     19  O   UNL     1      -3.264   0.655   0.937  0.00  0.00    -0.469 OA
ENDBRANCH   7  15
ENDBRANCH   6   7
ENDBRANCH   4   6
ENDBRANCH   1   2
BRANCH   1  20
ATOM     20  C   UNL     1      -1.133   1.097  -4.888  0.00  0.00    +0.029 C 
BRANCH  20  21
ATOM     21  C   UNL     1      -2.089   1.485  -6.018  0.00  0.00    +0.117 C 
BRANCH  21  34
ATOM     22  C   UNL     1      -0.955  -2.222 -10.815  0.00  0.00    +0.001 A 
ATOM     23  C   UNL     1      -0.150  -1.379 -11.525  0.00  0.00    +0.008 A 
ATOM     24  C   UNL     1       0.142  -0.097 -11.026  0.00  0.00    -0.016 A 
ATOM     25  C   UNL     1       0.964   0.807 -11.720  0.00  0.00    +0.008 A 
ATOM     26  C   UNL     1       1.218   2.042 -11.194  0.00  0.00    +0.001 A 
ATOM     27  C   UNL     1       0.680   2.439  -9.976  0.00  0.00    +0.014 A 
ATOM     28  C   UNL     1      -0.135   1.575  -9.259  0.00  0.00    +0.046 A 
ATOM     29  C   UNL     1      -0.410   0.294  -9.788  0.00  0.00    +0.006 A 
ATOM     30  C   UNL     1      -1.241  -0.593  -9.067  0.00  0.00    +0.046 A 
ATOM     31  C   UNL     1      -1.504  -1.849  -9.594  0.00  0.00    +0.014 A 
ATOM     32  C   UNL     1      -1.797  -0.149  -7.780  0.00  0.00    +0.254 C 
ATOM     33  O   UNL     1      -2.515  -0.895  -7.142  0.00  0.00    -0.270 OA
ATOM     34  N   UNL     1      -1.516   1.079  -7.304  0.00  0.00    -0.234 N 
ATOM     35  C   UNL     1      -0.732   1.949  -7.968  0.00  0.00    +0.254 C 
ATOM     36  O   UNL     1      -0.513   3.048  -7.496  0.00  0.00    -0.270 OA
ENDBRANCH  21  34
ENDBRANCH  20  21
ENDBRANCH   1  20
TORSDOF 8
