REMARK  Name = ZINC65486205
REMARK  9 active torsions:
REMARK  status: ('A' for Active; 'I' for Inactive)
REMARK    1  A    between atoms: C_1  and  C_2
REMARK    2  A    between atoms: C_3  and  C_9
REMARK    3  A    between atoms: C_4  and  C_8
REMARK    4  A    between atoms: N_5  and  C_7
REMARK    5  A    between atoms: C_9  and  C_10
REMARK    6  A    between atoms: C_9  and  N_11
REMARK    7  A    between atoms: N_14  and  N_15
REMARK    8  A    between atoms: C_16  and  C_18
REMARK    9  A    between atoms: N_22  and  C_23
REMARK                            x       y       z     vdW  Elec       q    Type
REMARK                         _______ _______ _______ _____ _____    ______ ____
ROOT
ATOM      1  N   UNL     1       0.225   1.413  -2.883  0.00  0.00    -0.292 N 
ATOM      2  C   UNL     1       0.708   1.717  -4.104  0.00  0.00    +0.316 C 
ATOM      3  O   UNL     1       0.235   1.191  -5.093  0.00  0.00    -0.251 OA
ATOM      4  N   UNL     1       1.715   2.603  -4.229  0.00  0.00    -0.218 N 
ATOM      5  H   UNL     1       0.603   1.833  -2.094  0.00  0.00    +0.151 HD
ATOM      6  H   UNL     1       2.063   2.822  -5.109  0.00  0.00    +0.174 HD
ENDROOT
BRANCH   4   7
ATOM      7  N   UNL     1       2.261   3.210  -3.090  0.00  0.00    -0.228 N 
ATOM      8  C   UNL     1       3.268   4.096  -3.215  0.00  0.00    +0.277 C 
ATOM      9  O   UNL     1       3.773   4.294  -4.305  0.00  0.00    -0.267 OA
ATOM     10  H   UNL     1       1.913   2.991  -2.211  0.00  0.00    +0.173 HD
BRANCH   8  11
ATOM     11  C   UNL     1       3.756   4.823  -2.038  0.00  0.00    +0.107 A 
ATOM     12  C   UNL     1       3.338   4.641  -0.737  0.00  0.00    +0.047 A 
ATOM     13  C   UNL     1       4.062   5.537   0.056  0.00  0.00    +0.036 A 
ATOM     14  C   UNL     1       4.891   6.236  -0.756  0.00  0.00    +0.101 A 
ATOM     15  N   UNL     1       4.717   5.808  -2.031  0.00  0.00    -0.345 N 
ATOM     16  C   UNL     1       5.433   6.311  -3.206  0.00  0.00    +0.149 C 
ATOM     17 BR   UNL     1       3.910   5.738   1.931  0.00  0.00    -0.049 Br
ENDBRANCH   8  11
ENDBRANCH   4   7
BRANCH   1  18
ATOM     18  C   UNL     1      -0.869   0.449  -2.747  0.00  0.00    +0.105 C 
ATOM     19  C   UNL     1      -2.207   1.167  -2.936  0.00  0.00    +0.033 C 
BRANCH  18  22
ATOM     20  C   UNL     1      -0.432   1.993  -0.014  0.00  0.00    +0.068 C 
ATOM     21  C   UNL     1      -0.631   0.507  -0.169  0.00  0.00    +0.065 A 
ATOM     22  C   UNL     1      -0.823  -0.173  -1.375  0.00  0.00    +0.016 A 
ATOM     23  C   UNL     1      -0.960  -1.490  -1.094  0.00  0.00    +0.041 A 
ATOM     24  N   UNL     1      -0.859  -1.637   0.244  0.00  0.00    -0.271 N 
ATOM     25  N   UNL     1      -0.647  -0.370   0.802  0.00  0.00    -0.176 NA
ATOM     26  C   UNL     1      -0.949  -2.900   0.981  0.00  0.00    +0.172 C 
ATOM     27  C   UNL     1      -1.187  -2.594  -2.094  0.00  0.00    +0.065 C 
ENDBRANCH  18  22
ENDBRANCH   1  18
TORSDOF 4
