REMARK  Name = ZINC06409357
REMARK  6 active torsions:
REMARK  status: ('A' for Active; 'I' for Inactive)
REMARK    1  A    between atoms: C_1  and  C_2
REMARK    2  A    between atoms: C_9  and  C_14
REMARK    3  A    between atoms: C_14  and  C_16
REMARK    4  A    between atoms: C_14  and  N_70
REMARK    5  A    between atoms: N_20  and  C_21
REMARK    6  A    between atoms: C_21  and  C_22
REMARK                            x       y       z     vdW  Elec       q    Type
REMARK                         _______ _______ _______ _____ _____    ______ ____
ROOT
ATOM      1  C   UNL     1       1.667   6.426  -1.702  0.00  0.00    +0.039 C 
ENDROOT
BRANCH   1  10
ATOM      2  C   UNL     1       4.265  11.475   3.133  0.00  0.00    +0.044 C 
ATOM      3  C   UNL     1       4.093  10.973   1.722  0.00  0.00    -0.050 A 
ATOM      4  C   UNL     1       4.626  11.697   0.665  0.00  0.00    +0.005 A 
ATOM      5  C   UNL     1       4.480  11.257  -0.633  0.00  0.00    +0.026 A 
ATOM      6  C   UNL     1       3.791  10.076  -0.888  0.00  0.00    +0.049 A 
ATOM      7  C   UNL     1       3.252   9.345   0.187  0.00  0.00    -0.001 A 
ATOM      8  C   UNL     1       3.412   9.810   1.496  0.00  0.00    +0.013 A 
ATOM      9  C   UNL     1       2.529   8.102  -0.092  0.00  0.00    +0.017 A 
ATOM     10  C   UNL     1       2.405   7.700  -1.381  0.00  0.00    +0.011 A 
ATOM     11  C   UNL     1       2.970   8.467  -2.422  0.00  0.00    +0.251 A 
ATOM     12  O   UNL     1       2.851   8.085  -3.574  0.00  0.00    -0.268 OA
ATOM     13  N   UNL     1       3.631   9.612  -2.177  0.00  0.00    -0.322 N 
ATOM     14  H   UNL     1       4.003  10.117  -2.916  0.00  0.00    +0.169 HD
ENDBRANCH   1  10
BRANCH   1  25
ATOM     15  C   UNL     1      -0.010   5.463  -3.159  0.00  0.00    -0.077 C 
ATOM     16  C   UNL     1      -0.998   5.780  -4.284  0.00  0.00    -0.018 C 
ATOM     17  C   UNL     1      -2.069   6.741  -3.759  0.00  0.00    +0.003 C 
ATOM     18  C   UNL     1      -1.391   8.007  -3.229  0.00  0.00    -0.044 C 
ATOM     19  C   UNL     1      -0.391   7.626  -2.135  0.00  0.00    -0.071 C 
ATOM     20  C   UNL     1      -0.654   8.708  -4.372  0.00  0.00    +0.005 C 
ATOM     21  C   UNL     1       0.022   9.974  -3.844  0.00  0.00    +0.000 C 
ATOM     22  C   UNL     1      -1.038  10.915  -3.267  0.00  0.00    +0.000 C 
ATOM     23  C   UNL     1      -1.772  10.215  -2.123  0.00  0.00    +0.000 C 
ATOM     24  C   UNL     1      -2.449   8.948  -2.650  0.00  0.00    +0.005 C 
ATOM     25  N   UNL     1       0.626   6.720  -2.709  0.00  0.00    +0.390 N 
ATOM     26  H   UNL     1       1.063   7.179  -3.517  0.00  0.00    -0.080 HD
ENDBRANCH   1  25
BRANCH   1  27
ATOM     27  C   UNL     1       2.630   5.417  -2.272  0.00  0.00    +0.143 A 
ATOM     28  N   UNL     1       3.144   5.420  -3.478  0.00  0.00    -0.115 NA
ATOM     29  N   UNL     1       3.920   4.397  -3.582  0.00  0.00    -0.023 NA
ATOM     30  N   UNL     1       3.919   3.745  -2.472  0.00  0.00    -0.044 NA
ATOM     31  N   UNL     1       3.131   4.339  -1.641  0.00  0.00    -0.226 N 
BRANCH  31  32
ATOM     32  C   UNL     1       2.842   3.923  -0.267  0.00  0.00    +0.182 C 
BRANCH  32  33
ATOM     33  C   UNL     1       1.651   3.000  -0.262  0.00  0.00    -0.026 A 
ATOM     34  C   UNL     1       1.833   1.635  -0.391  0.00  0.00    +0.005 A 
ATOM     35  C   UNL     1       0.741   0.788  -0.387  0.00  0.00    +0.000 A 
ATOM     36  C   UNL     1      -0.535   1.306  -0.258  0.00  0.00    +0.000 A 
ATOM     37  C   UNL     1      -0.717   2.670  -0.124  0.00  0.00    +0.000 A 
ATOM     38  C   UNL     1       0.376   3.517  -0.128  0.00  0.00    +0.005 A 
ENDBRANCH  32  33
ENDBRANCH  31  32
ENDBRANCH   1  27
TORSDOF 5
