REMARK  Name = ZINC22021458
REMARK  7 active torsions:
REMARK  status: ('A' for Active; 'I' for Inactive)
REMARK    1  A    between atoms: C_1  and  C_2
REMARK    2  A    between atoms: C_7  and  N_8
REMARK    3  A    between atoms: N_8  and  S_9
REMARK    4  A    between atoms: S_9  and  C_12
REMARK    5  A    between atoms: C_16  and  C_17
REMARK    6  A    between atoms: C_17  and  O_19
REMARK    7  A    between atoms: O_19  and  C_20
REMARK                            x       y       z     vdW  Elec       q    Type
REMARK                         _______ _______ _______ _____ _____    ______ ____
ROOT
ATOM      1  S   UNL     1       3.817   0.628   0.198  0.00  0.00    +0.074 S 
ATOM      2  O   UNL     1       4.487   1.438   1.155  0.00  0.00    -0.150 OA
ATOM      3  O   UNL     1       3.598  -0.762   0.397  0.00  0.00    -0.150 OA
ENDROOT
BRANCH   1   4
ATOM      4  C   UNL     1       2.233   1.356  -0.056  0.00  0.00    +0.130 A 
ATOM      5  C   UNL     1       1.082   0.614   0.026  0.00  0.00    +0.037 A 
ATOM      6  C   UNL     1      -0.116   1.222  -0.178  0.00  0.00    +0.048 A 
ATOM      7  S   UNL     1       0.324   2.868  -0.496  0.00  0.00    -0.088 S 
ATOM      8  C   UNL     1       2.095   2.705  -0.349  0.00  0.00    +0.123 A 
BRANCH   8   9
ATOM      9  C   UNL     1       3.131   3.728  -0.498  0.00  0.00    +0.348 C 
ATOM     10  O   UNL     1       4.305   3.422  -0.406  0.00  0.00    -0.244 OA
BRANCH   9  11
ATOM     11  O   UNL     1       2.785   5.009  -0.737  0.00  0.00    -0.464 OA
ATOM     12  C   UNL     1       3.863   5.945  -1.004  0.00  0.00    +0.280 C 
ENDBRANCH   9  11
ENDBRANCH   8   9
ENDBRANCH   1   4
BRANCH   1  13
ATOM     13  N   UNL     1       4.658   0.776  -1.220  0.00  0.00    -0.216 N 
ATOM     14  H   UNL     1       5.534   1.439  -1.274  0.00  0.00    +0.174 HD
BRANCH  13  21
ATOM     15  C   UNL     1       6.648   0.005  -3.101  0.00  0.00    +0.046 C 
ATOM     16  C   UNL     1       5.193  -0.337  -3.294  0.00  0.00    -0.027 A 
ATOM     17  C   UNL     1       4.792  -1.051  -4.406  0.00  0.00    +0.020 A 
ATOM     18  C   UNL     1       3.456  -1.360  -4.587  0.00  0.00    +0.018 A 
ATOM     19  C   UNL     1       2.518  -0.962  -3.651  0.00  0.00    +0.017 A 
ATOM     20  C   UNL     1       2.914  -0.253  -2.534  0.00  0.00    +0.026 A 
ATOM     21  C   UNL     1       4.255   0.059  -2.350  0.00  0.00    +0.051 A 
ATOM     22 BR   UNL     1       2.910  -2.331  -6.116  0.00  0.00    -0.050 Br
ENDBRANCH  13  21
ENDBRANCH   1  13
TORSDOF 5
