REMARK  Name = ZINC12750621
REMARK  8 active torsions:
REMARK  status: ('A' for Active; 'I' for Inactive)
REMARK    1  A    between atoms: C_1  and  C_2
REMARK    2  A    between atoms: C_5  and  C_7
REMARK    3  A    between atoms: C_7  and  N_8
REMARK    4  A    between atoms: C_9  and  C_11
REMARK    5  A    between atoms: C_11  and  C_12
REMARK    6  A    between atoms: C_12  and  C_13
REMARK    7  A    between atoms: C_24  and  S_26
REMARK    8  A    between atoms: S_26  and  C_27
REMARK                            x       y       z     vdW  Elec       q    Type
REMARK                         _______ _______ _______ _____ _____    ______ ____
ROOT
ATOM      1  C   UNL     1       2.609   5.465   0.152  0.00  0.00    +0.007 C 
ATOM      2  C   UNL     1       1.814   6.088  -0.998  0.00  0.00    +0.006 C 
ATOM      3  C   UNL     1       0.393   5.517  -0.994  0.00  0.00    +0.019 C 
ATOM      4  C   UNL     1       0.461   3.993  -1.115  0.00  0.00    +0.106 C 
ATOM      5  N   UNL     1       1.231   3.445   0.008  0.00  0.00    -0.315 N 
ATOM      6  C   UNL     1       2.613   3.942  -0.002  0.00  0.00    +0.110 C 
ATOM      7  C   UNL     1       1.202   2.060   0.002  0.00  0.00    +0.126 A 
ATOM      8  C   UNL     1      -0.017   1.377   0.010  0.00  0.00    +0.063 A 
ATOM      9  C   UNL     1       0.002  -0.004   0.002  0.00  0.00    +0.117 A 
ATOM     10  N   UNL     1       1.166  -0.637  -0.013  0.00  0.00    -0.230 NA
ATOM     11  C   UNL     1       2.308   0.037  -0.020  0.00  0.00    +0.190 A 
ATOM     12  N   UNL     1       2.333   1.362  -0.013  0.00  0.00    -0.207 NA
ENDROOT
BRANCH  11  13
ATOM     13  S   UNL     1       3.829  -0.851  -0.039  0.00  0.00    -0.089 S 
ATOM     14  C   UNL     1       3.202  -2.549  -0.042  0.00  0.00    +0.093 C 
ENDBRANCH  11  13
BRANCH   1  15
ATOM     15  C   UNL     1       4.048   5.985   0.119  0.00  0.00    +0.014 C 
BRANCH  15  16
ATOM     16  C   UNL     1       4.053   7.489   0.398  0.00  0.00    +0.096 C 
BRANCH  16  18
ATOM     17  N   UNL     1       5.720   9.307   0.586  0.00  0.00    -0.308 N 
ATOM     18  C   UNL     1       5.470   8.001   0.366  0.00  0.00    +0.213 C 
ATOM     19  O   UNL     1       6.385   7.238   0.142  0.00  0.00    -0.276 OA
ATOM     20  H   UNL     1       4.987   9.918   0.765  0.00  0.00    +0.149 HD
BRANCH  17  21
ATOM     21  C   UNL     1       7.097   9.805   0.554  0.00  0.00    +0.178 C 
BRANCH  21  26
ATOM     22  C   UNL     1       6.969  14.794  -0.181  0.00  0.00    +0.086 C 
ATOM     23  C   UNL     1       7.046  13.456   0.509  0.00  0.00    +0.102 A 
ATOM     24  C   UNL     1       7.165  13.261   1.835  0.00  0.00    +0.045 A 
ATOM     25  C   UNL     1       7.201  11.862   2.041  0.00  0.00    +0.046 A 
ATOM     26  C   UNL     1       7.102  11.287   0.829  0.00  0.00    +0.122 A 
ATOM     27  O   UNL     1       7.014  12.257  -0.096  0.00  0.00    -0.463 OA
ENDBRANCH  21  26
ENDBRANCH  17  21
ENDBRANCH  16  18
ENDBRANCH  15  16
ENDBRANCH   1  15
TORSDOF 6
