REMARK  Name = ZINC39730260
REMARK  6 active torsions:
REMARK  status: ('A' for Active; 'I' for Inactive)
REMARK    1  A    between atoms: C_1  and  C_2
REMARK    2  A    between atoms: C_5  and  C_29
REMARK    3  A    between atoms: N_8  and  C_10
REMARK    4  A    between atoms: C_10  and  C_11
REMARK    5  A    between atoms: N_13  and  C_14
REMARK    6  A    between atoms: C_17  and  C_20
REMARK                            x       y       z     vdW  Elec       q    Type
REMARK                         _______ _______ _______ _____ _____    ______ ____
ROOT
ATOM      1  C   UNL     1       0.165  -2.037   6.055  0.00  0.00    +0.251 C 
ATOM      2  N   UNL     1       0.902  -2.259   7.315  0.00  0.00    -0.254 NA
ATOM      3  C   UNL     1       0.628  -3.266   8.049  0.00  0.00    +0.054 C 
ATOM      4  C   UNL     1      -0.466  -4.219   7.591  0.00  0.00    +0.128 C 
ATOM      5  S   UNL     1      -1.259  -3.191   6.275  0.00  0.00    -0.109 S 
ENDROOT
BRANCH   3   6
ATOM      6  C   UNL     1       1.328  -3.493   9.261  0.00  0.00    +0.002 C 
ATOM      7  C   UNL     1       2.333  -2.716   9.802  0.00  0.00    +0.005 A 
ATOM      8  C   UNL     1       2.964  -1.522   9.371  0.00  0.00    +0.010 A 
ATOM      9  C   UNL     1       3.944  -0.964  10.116  0.00  0.00    +0.001 A 
ATOM     10  C   UNL     1       4.380  -1.522  11.326  0.00  0.00    +0.002 A 
ATOM     11  C   UNL     1       3.843  -2.658  11.824  0.00  0.00    +0.026 A 
ATOM     12  C   UNL     1       2.771  -3.329  11.077  0.00  0.00    +0.043 A 
ATOM     13  N   UNL     1       2.087  -4.417  11.319  0.00  0.00    -0.380 N 
ATOM     14  C   UNL     1       1.123  -4.633  10.235  0.00  0.00    +0.150 C 
ATOM     15  H   UNL     1       2.197  -4.988  12.095  0.00  0.00    +0.160 HD
ENDBRANCH   3   6
BRANCH   1  18
ATOM     16  C   UNL     1       0.578  -2.075   3.654  0.00  0.00    +0.199 C 
ATOM     17  O   UNL     1      -0.453  -1.456   3.496  0.00  0.00    -0.278 OA
ATOM     18  N   UNL     1       0.977  -2.415   4.895  0.00  0.00    -0.287 N 
ATOM     19  H   UNL     1       1.802  -2.910   5.021  0.00  0.00    +0.151 HD
BRANCH  16  20
ATOM     20  C   UNL     1       1.413  -2.463   2.461  0.00  0.00    +0.019 C 
BRANCH  20  26
ATOM     21  C   UNL     1      -0.019   1.526   0.010  0.00  0.00    +0.005 C 
ATOM     22  C   UNL     1       0.002  -0.004   0.002  0.00  0.00    -0.031 C 
ATOM     23  C   UNL     1       0.721  -0.499  -1.257  0.00  0.00    +0.003 C 
ATOM     24  C   UNL     1       0.805  -2.027  -1.217  0.00  0.00    -0.031 C 
ATOM     25  C   UNL     1       1.518  -2.460   0.066  0.00  0.00    -0.075 C 
ATOM     26  N   UNL     1       0.768  -1.979   1.233  0.00  0.00    +0.386 N 
ATOM     27  C   UNL     1       0.744  -0.512   1.240  0.00  0.00    -0.075 C 
ATOM     28  C   UNL     1      -0.606  -2.618  -1.242  0.00  0.00    +0.005 C 
ATOM     29  H   UNL     1      -0.177  -2.330   1.192  0.00  0.00    -0.081 HD
ENDBRANCH  20  26
ENDBRANCH  16  20
ENDBRANCH   1  18
TORSDOF 4
