REMARK  Name = ZINC05136565
REMARK  7 active torsions:
REMARK  status: ('A' for Active; 'I' for Inactive)
REMARK    1  A    between atoms: C_1  and  C_2
REMARK    2  A    between atoms: C_2  and  S_3
REMARK    3  A    between atoms: S_3  and  N_6
REMARK    4  A    between atoms: N_6  and  C_7
REMARK    5  A    between atoms: C_17  and  C_19
REMARK    6  A    between atoms: C_19  and  C_20
REMARK    7  A    between atoms: C_19  and  C_21
REMARK                            x       y       z     vdW  Elec       q    Type
REMARK                         _______ _______ _______ _____ _____    ______ ____
ROOT
ATOM      1  C   UNL     1      -1.111   1.621  -0.136  0.00  0.00    +0.049 A 
ATOM      2  C   UNL     1      -1.071   2.849   0.514  0.00  0.00    +0.025 A 
ATOM      3  C   UNL     1      -2.130   3.726   0.402  0.00  0.00    +0.007 A 
ATOM      4  C   UNL     1      -3.246   3.386  -0.347  0.00  0.00    -0.026 A 
ATOM      5  C   UNL     1      -3.291   2.161  -0.994  0.00  0.00    +0.041 A 
ATOM      6  C   UNL     1      -2.224   1.277  -0.888  0.00  0.00    +0.048 A 
ATOM      7  N   UNL     1      -4.403   1.796  -1.765  0.00  0.00    -0.271 N 
ATOM      8  C   UNL     1      -5.639   2.581  -1.643  0.00  0.00    +0.114 C 
ATOM      9  C   UNL     1      -5.255   4.066  -1.659  0.00  0.00    +0.024 C 
ATOM     10  C   UNL     1      -4.387   4.365  -0.436  0.00  0.00    +0.038 C 
ATOM     11  C   UNL     1      -4.340   0.744  -2.605  0.00  0.00    +0.222 C 
ATOM     12  O   UNL     1      -3.285   0.173  -2.784  0.00  0.00    -0.275 OA
ENDROOT
BRANCH  11  13
ATOM     13  C   UNL     1      -5.581   0.276  -3.321  0.00  0.00    +0.069 C 
ATOM     14  C   UNL     1      -5.237  -0.925  -4.205  0.00  0.00    +0.017 C 
ATOM     15  C   UNL     1      -6.638  -0.134  -2.295  0.00  0.00    +0.017 C 
ENDBRANCH  11  13
BRANCH   1  16
ATOM     16  N   UNL     1      -0.038   0.734  -0.026  0.00  0.00    -0.221 N 
ATOM     17  H   UNL     1      -0.202  -0.208   0.135  0.00  0.00    +0.173 HD
BRANCH  16  18
ATOM     18  S   UNL     1       1.515   1.291  -0.177  0.00  0.00    +0.043 S 
ATOM     19  O   UNL     1       1.611   2.356   0.759  0.00  0.00    -0.155 OA
ATOM     20  O   UNL     1       2.329   0.134  -0.045  0.00  0.00    -0.155 OA
BRANCH  18  22
ATOM     21  C   UNL     1       3.053   2.369  -2.165  0.00  0.00    +0.030 C 
ATOM     22  C   UNL     1       1.616   1.935  -1.870  0.00  0.00    +0.185 C 
ENDBRANCH  18  22
ENDBRANCH  16  18
ENDBRANCH   1  16
TORSDOF 4
