REMARK  Name = ZINC08437485
REMARK  8 active torsions:
REMARK  status: ('A' for Active; 'I' for Inactive)
REMARK    1  A    between atoms: C_1  and  O_2
REMARK    2  A    between atoms: O_2  and  C_3
REMARK    3  A    between atoms: C_6  and  N_9
REMARK    4  A    between atoms: C_15  and  C_16
REMARK    5  A    between atoms: C_19  and  C_21
REMARK    6  A    between atoms: C_23  and  C_28
REMARK    7  A    between atoms: C_28  and  O_30
REMARK    8  A    between atoms: O_30  and  C_31
REMARK                            x       y       z     vdW  Elec       q    Type
REMARK                         _______ _______ _______ _____ _____    ______ ____
ROOT
ATOM      1  N   UNL     1       2.384   1.126  -0.014  0.00  0.00    -0.226 NA
ATOM      2  C   UNL     1       3.341   1.514  -0.825  0.00  0.00    +0.166 C 
ATOM      3  N   UNL     1       4.601   0.978  -0.983  0.00  0.00    -0.260 N 
ATOM      4  C   UNL     1       5.449   1.497  -1.855  0.00  0.00    +0.257 C 
ATOM      5  O   UNL     1       6.566   1.036  -2.008  0.00  0.00    -0.269 OA
ATOM      6  C   UNL     1       4.984   2.655  -2.634  0.00  0.00    +0.081 C 
ATOM      7  C   UNL     1       5.641   3.377  -3.588  0.00  0.00    +0.066 C 
ATOM      8  S   UNL     1       3.326   2.859  -1.999  0.00  0.00    -0.049 S 
ATOM      9  H   UNL     1       4.869   0.213  -0.450  0.00  0.00    +0.157 HD
ENDROOT
BRANCH   1  13
ATOM     10  C   UNL     1      -1.236   3.138   0.029  0.00  0.00    +0.120 A 
ATOM     11  C   UNL     1      -1.216   1.750   0.017  0.00  0.00    +0.048 A 
ATOM     12  C   UNL     1      -0.013   1.076   0.008  0.00  0.00    +0.031 A 
ATOM     13  C   UNL     1       1.187   1.792   0.000  0.00  0.00    +0.067 A 
ATOM     14  C   UNL     1       1.161   3.188   0.008  0.00  0.00    +0.031 A 
ATOM     15  C   UNL     1      -0.046   3.853   0.022  0.00  0.00    +0.048 A 
BRANCH  10  17
ATOM     16  C   UNL     1      -3.610   3.001   0.050  0.00  0.00    +0.277 C 
ATOM     17  O   UNL     1      -2.424   3.799   0.043  0.00  0.00    -0.495 OA
ENDBRANCH  10  17
ENDBRANCH   1  13
BRANCH   7  18
ATOM     18  C   UNL     1       4.998   4.465  -4.217  0.00  0.00    +0.130 A 
ATOM     19  C   UNL     1       5.546   5.280  -5.191  0.00  0.00    +0.050 A 
ATOM     20  C   UNL     1       4.566   6.218  -5.530  0.00  0.00    +0.050 A 
ATOM     21  C   UNL     1       3.472   5.953  -4.756  0.00  0.00    +0.137 A 
ATOM     22  O   UNL     1       3.743   4.896  -3.969  0.00  0.00    -0.455 OA
BRANCH  21  23
ATOM     23  C   UNL     1       2.201   6.704  -4.779  0.00  0.00    +0.036 A 
ATOM     24  C   UNL     1       0.990   6.025  -4.893  0.00  0.00    +0.028 A 
ATOM     25  C   UNL     1      -0.205   6.742  -4.913  0.00  0.00    +0.060 A 
ATOM     26  C   UNL     1      -0.182   8.137  -4.818  0.00  0.00    +0.016 A 
ATOM     27  C   UNL     1       1.020   8.804  -4.705  0.00  0.00    +0.021 A 
ATOM     28  C   UNL     1       2.210   8.100  -4.679  0.00  0.00    +0.052 A 
ATOM     29 CL   UNL     1       3.716   8.949  -4.530  0.00  0.00    -0.083 Cl
BRANCH  25  30
ATOM     30  C   UNL     1      -1.494   6.030  -5.033  0.00  0.00    +0.339 C 
ATOM     31  O   UNL     1      -1.513   4.818  -5.115  0.00  0.00    -0.245 OA
BRANCH  30  32
ATOM     32  O   UNL     1      -2.648   6.725  -5.052  0.00  0.00    -0.464 OA
ATOM     33  C   UNL     1      -3.876   5.960  -5.173  0.00  0.00    +0.280 C 
ENDBRANCH  30  32
ENDBRANCH  25  30
ENDBRANCH  21  23
ENDBRANCH   7  18
TORSDOF 6
