REMARK  Name = ZINC43549645
REMARK  7 active torsions:
REMARK  status: ('A' for Active; 'I' for Inactive)
REMARK    1  A    between atoms: C_1  and  C_2
REMARK    2  A    between atoms: C_2  and  C_3
REMARK    3  A    between atoms: C_2  and  N_4
REMARK    4  A    between atoms: C_5  and  C_7
REMARK    5  A    between atoms: C_7  and  C_8
REMARK    6  A    between atoms: C_8  and  N_9
REMARK    7  A    between atoms: N_12  and  C_13
REMARK                            x       y       z     vdW  Elec       q    Type
REMARK                         _______ _______ _______ _____ _____    ______ ____
ROOT
ATOM      1  N   UNL     1      -4.463  -4.165  -1.075  0.00  0.00    -0.299 N 
ATOM      2  C   UNL     1      -4.734  -5.385  -1.580  0.00  0.00    +0.304 C 
ATOM      3  O   UNL     1      -3.839  -6.064  -2.045  0.00  0.00    -0.253 OA
ATOM      4  N   UNL     1      -5.998  -5.852  -1.568  0.00  0.00    -0.269 N 
ATOM      5  H   UNL     1      -5.177  -3.623  -0.704  0.00  0.00    +0.150 HD
ATOM      6  H   UNL     1      -6.701  -5.340  -1.138  0.00  0.00    +0.156 HD
ENDROOT
BRANCH   4   7
ATOM      7  C   UNL     1      -6.298  -7.077  -2.179  0.00  0.00    +0.038 A 
ATOM      8  C   UNL     1      -7.514  -7.252  -2.825  0.00  0.00    +0.027 A 
ATOM      9  C   UNL     1      -7.813  -8.460  -3.427  0.00  0.00    +0.051 A 
ATOM     10  C   UNL     1      -6.898  -9.498  -3.388  0.00  0.00    +0.167 A 
ATOM     11  C   UNL     1      -5.675  -9.325  -2.741  0.00  0.00    +0.169 A 
ATOM     12  C   UNL     1      -5.375  -8.115  -2.143  0.00  0.00    +0.073 A 
ATOM     13  O   UNL     1      -4.962 -10.491  -2.850  0.00  0.00    -0.447 OA
ATOM     14  C   UNL     1      -5.963 -11.482  -3.120  0.00  0.00    +0.254 C 
ATOM     15  O   UNL     1      -6.941 -10.772  -3.894  0.00  0.00    -0.448 OA
ATOM     16  C   UNL     1      -6.569 -12.027  -1.823  0.00  0.00    +0.093 C 
ATOM     17  C   UNL     1      -6.854 -13.519  -2.142  0.00  0.00    +0.008 C 
ATOM     18  C   UNL     1      -5.650 -13.918  -3.032  0.00  0.00    +0.008 C 
ATOM     19  C   UNL     1      -5.386 -12.665  -3.897  0.00  0.00    +0.093 C 
ENDBRANCH   4   7
BRANCH   1  20
ATOM     20  C   UNL     1      -3.088  -3.657  -1.087  0.00  0.00    +0.115 C 
BRANCH  20  21
ATOM     21  C   UNL     1      -3.055  -2.261  -0.462  0.00  0.00    +0.114 C 
BRANCH  21  23
ATOM     22  N   UNL     1      -1.370  -0.519   0.030  0.00  0.00    -0.313 N 
ATOM     23  C   UNL     1      -1.642  -1.738  -0.474  0.00  0.00    +0.215 C 
ATOM     24  O   UNL     1      -0.749  -2.416  -0.938  0.00  0.00    -0.276 OA
ATOM     25  H   UNL     1      -2.084   0.023   0.401  0.00  0.00    +0.149 HD
BRANCH  22  27
ATOM     26  C   UNL     1      -0.018   1.519   0.037  0.00  0.00    +0.027 C 
ATOM     27  C   UNL     1       0.004  -0.011   0.018  0.00  0.00    +0.067 C 
ATOM     28  C   UNL     1       0.749  -0.525   1.252  0.00  0.00    +0.027 C 
ENDBRANCH  22  27
ENDBRANCH  21  23
ENDBRANCH  20  21
ENDBRANCH   1  20
TORSDOF 5
