REMARK  Name = ZINC03846898
REMARK  7 active torsions:
REMARK  status: ('A' for Active; 'I' for Inactive)
REMARK    1  A    between atoms: C_1  and  C_2
REMARK    2  A    between atoms: C_7  and  N_8
REMARK    3  A    between atoms: N_9  and  C_31
REMARK    4  A    between atoms: C_12  and  N_18
REMARK    5  A    between atoms: C_13  and  C_17
REMARK    6  A    between atoms: N_19  and  C_20
REMARK    7  A    between atoms: C_29  and  O_30
REMARK                            x       y       z     vdW  Elec       q    Type
REMARK                         _______ _______ _______ _____ _____    ______ ____
ROOT
ATOM      1  C   UNL     1      -0.018   1.503   0.010  0.00  0.00    +0.046 C 
ATOM      2  C   UNL     1       0.002  -0.004   0.002  0.00  0.00    -0.028 A 
ATOM      3  C   UNL     1       0.005  -0.660  -1.185  0.00  0.00    +0.035 A 
ATOM      4  C   UNL     1       0.025  -2.071  -1.208  0.00  0.00    +0.089 A 
ATOM      5  C   UNL     1       0.041  -2.800   0.064  0.00  0.00    +0.074 A 
ATOM      6  C   UNL     1       0.037  -2.071   1.265  0.00  0.00    +0.051 A 
ATOM      7  C   UNL     1       0.023  -0.695   1.222  0.00  0.00    +0.030 A 
ATOM      8  N   UNL     1       0.060  -4.139   0.071  0.00  0.00    -0.306 N 
ATOM      9  C   UNL     1       0.062  -4.801  -1.093  0.00  0.00    +0.075 A 
ATOM     10  C   UNL     1       0.081  -6.204  -1.124  0.00  0.00    +0.058 A 
ATOM     11  C   UNL     1       0.083  -6.859  -2.346  0.00  0.00    +0.091 A 
ATOM     12  C   UNL     1       0.068  -6.139  -3.557  0.00  0.00    -0.021 A 
ATOM     13  C   UNL     1       0.050  -4.786  -3.575  0.00  0.00    +0.035 A 
ATOM     14  C   UNL     1       0.046  -4.063  -2.361  0.00  0.00    +0.089 A 
ATOM     15  N   UNL     1       0.028  -2.734  -2.361  0.00  0.00    -0.244 NA
ATOM     16  C   UNL     1       0.071  -6.893  -4.862  0.00  0.00    +0.046 C 
ENDROOT
BRANCH   8  17
ATOM     17  C   UNL     1       0.076  -4.825   1.258  0.00  0.00    +0.047 A 
ATOM     18  C   UNL     1       1.171  -4.715   2.117  0.00  0.00    +0.026 A 
ATOM     19  C   UNL     1       1.181  -5.408   3.309  0.00  0.00    +0.002 A 
ATOM     20  C   UNL     1       0.108  -6.211   3.655  0.00  0.00    +0.000 A 
ATOM     21  C   UNL     1      -0.981  -6.325   2.808  0.00  0.00    +0.002 A 
ATOM     22  C   UNL     1      -1.006  -5.633   1.616  0.00  0.00    +0.026 A 
ENDBRANCH   8  17
BRANCH   7  23
ATOM     23  N   UNL     1       0.025   0.025   2.414  0.00  0.00    -0.358 N 
ATOM     24  H   UNL     1       0.011   0.995   2.395  0.00  0.00    +0.142 HD
ATOM     25  H   UNL     1       0.039  -0.443   3.264  0.00  0.00    +0.142 HD
ENDBRANCH   7  23
BRANCH  11  26
ATOM     26  N   UNL     1       0.101  -8.223  -2.376  0.00  0.00    -0.149 NA
ATOM     27  N   UNL     1       0.115  -8.892  -1.273  0.00  0.00    -0.145 NA
BRANCH  27  28
ATOM     28  C   UNL     1       0.133 -10.249  -1.304  0.00  0.00    +0.135 A 
ATOM     29  C   UNL     1       0.144 -11.025  -0.063  0.00  0.00    +0.013 A 
ATOM     30  C   UNL     1       0.136 -10.400   1.189  0.00  0.00    +0.011 A 
ATOM     31  C   UNL     1       0.146 -11.159   2.322  0.00  0.00    +0.001 A 
ATOM     32  C   UNL     1       0.164 -12.549   2.250  0.00  0.00    +0.001 A 
ATOM     33  C   UNL     1       0.173 -13.189   1.048  0.00  0.00    +0.008 A 
ATOM     34  C   UNL     1       0.162 -12.438  -0.140  0.00  0.00    -0.016 A 
ATOM     35  C   UNL     1       0.170 -13.065  -1.399  0.00  0.00    +0.012 A 
ATOM     36  C   UNL     1       0.160 -12.331  -2.543  0.00  0.00    +0.048 A 
ATOM     37  C   UNL     1       0.136 -10.937  -2.521  0.00  0.00    +0.144 A 
BRANCH  37  38
ATOM     38  O   UNL     1       0.120 -10.245  -3.687  0.00  0.00    -0.505 OA
ATOM     39  H   UNL     1       0.999 -10.032  -4.030  0.00  0.00    +0.292 HD
ENDBRANCH  37  38
ENDBRANCH  27  28
ENDBRANCH  11  26
TORSDOF 5
