REMARK  Name = ZINC35072835
REMARK  11 active torsions:
REMARK  status: ('A' for Active; 'I' for Inactive)
REMARK    1  A    between atoms: C_1  and  C_2
REMARK    2  A    between atoms: C_2  and  C_3
REMARK    3  A    between atoms: C_3  and  C_5
REMARK    4  A    between atoms: C_3  and  N_23
REMARK    5  A    between atoms: N_15  and  C_16
REMARK    6  A    between atoms: N_23  and  C_24
REMARK    7  A    between atoms: C_24  and  C_25
REMARK    8  A    between atoms: C_25  and  N_26
REMARK    9  A    between atoms: N_26  and  C_27
REMARK   10  A    between atoms: N_26  and  C_28
REMARK   11  A    between atoms: N_31  and  C_32
REMARK                            x       y       z     vdW  Elec       q    Type
REMARK                         _______ _______ _______ _____ _____    ______ ____
ROOT
ATOM      1  C   UNL     1       0.402  -0.340   1.355  0.00  0.00    +0.144 C 
ENDROOT
BRANCH   1   2
ATOM      2  C   UNL     1       0.451  -1.845   1.407  0.00  0.00    +0.138 A 
ATOM      3  N   UNL     1      -0.415  -2.515   0.708  0.00  0.00    -0.231 NA
ATOM      4  C   UNL     1      -0.430  -3.871   0.706  0.00  0.00    +0.078 A 
ATOM      5  C   UNL     1      -1.361  -4.591  -0.046  0.00  0.00    +0.028 A 
ATOM      6  C   UNL     1      -1.341  -5.968  -0.020  0.00  0.00    +0.002 A 
ATOM      7  C   UNL     1      -0.405  -6.651   0.746  0.00  0.00    +0.001 A 
ATOM      8  C   UNL     1       0.523  -5.963   1.496  0.00  0.00    +0.015 A 
ATOM      9  C   UNL     1       0.520  -4.569   1.483  0.00  0.00    +0.065 A 
ATOM     10  C   UNL     1       1.487  -3.782   2.263  0.00  0.00    +0.266 A 
ATOM     11  O   UNL     1       2.331  -4.322   2.953  0.00  0.00    -0.267 OA
ATOM     12  N   UNL     1       1.404  -2.434   2.179  0.00  0.00    -0.263 N 
BRANCH  12  13
ATOM     13  C   UNL     1       2.305  -1.637   2.898  0.00  0.00    +0.051 A 
ATOM     14  C   UNL     1       2.228  -1.578   4.284  0.00  0.00    +0.029 A 
ATOM     15  C   UNL     1       3.116  -0.792   4.991  0.00  0.00    +0.040 A 
ATOM     16  C   UNL     1       4.084  -0.064   4.319  0.00  0.00    +0.124 A 
ATOM     17  C   UNL     1       4.162  -0.121   2.938  0.00  0.00    +0.040 A 
ATOM     18  C   UNL     1       3.279  -0.910   2.228  0.00  0.00    +0.029 A 
ATOM     19  F   UNL     1       4.953   0.704   5.013  0.00  0.00    -0.205 F 
ENDBRANCH  12  13
ENDBRANCH   1   2
BRANCH   1  20
ATOM     20  N   UNL     1      -0.208   0.171   2.585  0.00  0.00    -0.277 N 
ATOM     21  C   UNL     1       0.444   1.083   3.333  0.00  0.00    +0.307 C 
ATOM     22  O   UNL     1       1.540   1.481   2.986  0.00  0.00    -0.252 OA
ATOM     23  N   UNL     1      -0.117   1.553   4.464  0.00  0.00    -0.269 N 
ATOM     24  H   UNL     1      -0.951   1.176   4.785  0.00  0.00    +0.156 HD
BRANCH  23  25
ATOM     25  C   UNL     1       0.503   2.587   5.176  0.00  0.00    +0.035 A 
ATOM     26  C   UNL     1       1.204   3.575   4.498  0.00  0.00    +0.025 A 
ATOM     27  C   UNL     1       1.815   4.593   5.203  0.00  0.00    +0.022 A 
ATOM     28  C   UNL     1       1.729   4.629   6.584  0.00  0.00    +0.041 A 
ATOM     29  C   UNL     1       1.032   3.645   7.262  0.00  0.00    +0.022 A 
ATOM     30  C   UNL     1       0.414   2.628   6.561  0.00  0.00    +0.025 A 
ATOM     31 CL   UNL     1       2.499   5.911   7.467  0.00  0.00    -0.084 Cl
ENDBRANCH  23  25
BRANCH  20  32
ATOM     32  C   UNL     1      -1.528  -0.309   3.002  0.00  0.00    +0.091 C 
BRANCH  32  33
ATOM     33  C   UNL     1      -1.362  -1.446   4.012  0.00  0.00    -0.060 C 
BRANCH  33  34
ATOM     34  N   UNL     1      -2.679  -2.011   4.335  0.00  0.00    +0.377 N 
ATOM     35  C   UNL     1      -2.509  -3.179   5.211  0.00  0.00    -0.097 C 
ATOM     36  C   UNL     1      -3.491  -0.998   5.021  0.00  0.00    -0.097 C 
ATOM     37  H   UNL     1      -3.141  -2.294   3.484  0.00  0.00    -0.083 HD
ENDBRANCH  33  34
ENDBRANCH  32  33
ENDBRANCH  20  32
ENDBRANCH   1  20
BRANCH   1  39
ATOM     38  C   UNL     1      -0.400   1.627   0.041  0.00  0.00    +0.006 C 
ATOM     39  C   UNL     1      -0.431   0.102   0.150  0.00  0.00    +0.027 C 
ENDBRANCH   1  39
TORSDOF 8
