REMARK  Name = ZINC34747069
REMARK  9 active torsions:
REMARK  status: ('A' for Active; 'I' for Inactive)
REMARK    1  A    between atoms: C_1  and  C_2
REMARK    2  A    between atoms: C_2  and  C_3
REMARK    3  A    between atoms: C_3  and  C_4
REMARK    4  A    between atoms: C_4  and  N_5
REMARK    5  A    between atoms: N_18  and  C_21
REMARK    6  A    between atoms: C_21  and  C_22
REMARK    7  A    between atoms: N_24  and  C_25
REMARK    8  A    between atoms: C_33  and  C_35
REMARK    9  A    between atoms: C_33  and  C_36
REMARK                            x       y       z     vdW  Elec       q    Type
REMARK                         _______ _______ _______ _____ _____    ______ ____
ROOT
ATOM      1  N   UNL     1       1.614  -1.726   3.778  0.00  0.00    -0.280 N 
ATOM      2  C   UNL     1       2.947  -1.874   3.670  0.00  0.00    +0.264 A 
ATOM      3  O   UNL     1       3.686  -0.910   3.779  0.00  0.00    -0.267 OA
ATOM      4  C   UNL     1       3.486  -3.177   3.426  0.00  0.00    +0.076 A 
ATOM      5  C   UNL     1       4.886  -3.568   3.274  0.00  0.00    -0.018 A 
ATOM      6  C   UNL     1       5.138  -4.876   3.048  0.00  0.00    +0.021 A 
ATOM      7  S   UNL     1       3.547  -5.653   3.026  0.00  0.00    -0.071 S 
ATOM      8  C   UNL     1       2.546  -4.216   3.319  0.00  0.00    +0.118 A 
ATOM      9  N   UNL     1       1.240  -4.002   3.436  0.00  0.00    -0.208 NA
ATOM     10  C   UNL     1       0.772  -2.793   3.665  0.00  0.00    +0.202 A 
ATOM     11  N   UNL     1      -0.582  -2.603   3.787  0.00  0.00    -0.304 N 
ATOM     12  C   UNL     1      -1.409  -2.283   2.614  0.00  0.00    +0.089 C 
ATOM     13  C   UNL     1      -2.604  -3.241   2.587  0.00  0.00    -0.059 C 
ATOM     14  N   UNL     1      -3.317  -3.170   3.868  0.00  0.00    +0.387 N 
ATOM     15  C   UNL     1      -2.449  -3.651   4.950  0.00  0.00    -0.059 C 
ATOM     16  C   UNL     1      -1.247  -2.719   5.094  0.00  0.00    +0.089 C 
ATOM     17  C   UNL     1       6.486  -5.499   2.859  0.00  0.00    +0.203 C 
ATOM     18  O   UNL     1       7.434  -4.442   2.642  0.00  0.00    -0.368 OA
ATOM     19  C   UNL     1       7.333  -3.380   3.595  0.00  0.00    +0.068 C 
ATOM     20  C   UNL     1       6.048  -2.582   3.360  0.00  0.00    +0.071 C 
ATOM     21  C   UNL     1       7.314  -3.967   5.007  0.00  0.00    +0.041 C 
ATOM     22  C   UNL     1       8.540  -2.452   3.450  0.00  0.00    +0.041 C 
ATOM     23  H   UNL     1      -3.582  -2.214   4.052  0.00  0.00    -0.081 HD
ENDROOT
BRANCH   1  24
ATOM     24  C   UNL     1       1.057  -0.394   4.027  0.00  0.00    +0.128 C 
BRANCH  24  25
ATOM     25  C   UNL     1       1.080  -0.105   5.530  0.00  0.00    +0.021 C 
BRANCH  25  27
ATOM     26  C   UNL     1       0.520   1.575   7.292  0.00  0.00    +0.004 C 
ATOM     27  C   UNL     1       0.498   1.286   5.790  0.00  0.00    -0.002 C 
ENDBRANCH  25  27
ENDBRANCH  24  25
ENDBRANCH   1  24
BRANCH  14  28
ATOM     28  C   UNL     1      -4.524  -4.005   3.803  0.00  0.00    +0.019 C 
BRANCH  28  29
ATOM     29  C   UNL     1      -5.320  -3.837   5.071  0.00  0.00    +0.197 C 
ATOM     30  O   UNL     1      -4.922  -3.095   5.944  0.00  0.00    -0.278 OA
ATOM     31  N   UNL     1      -6.476  -4.512   5.235  0.00  0.00    -0.314 N 
ATOM     32  H   UNL     1      -6.794  -5.105   4.537  0.00  0.00    +0.149 HD
BRANCH  31  33
ATOM     33  C   UNL     1      -7.250  -4.349   6.468  0.00  0.00    +0.073 C 
ATOM     34  C   UNL     1      -6.712  -5.301   7.538  0.00  0.00    +0.022 C 
ATOM     35  C   UNL     1      -7.520  -5.131   8.826  0.00  0.00    +0.002 C 
ATOM     36  C   UNL     1      -8.991  -5.452   8.551  0.00  0.00    +0.000 C 
ATOM     37  C   UNL     1      -9.529  -4.499   7.481  0.00  0.00    +0.002 C 
ATOM     38  C   UNL     1      -8.720  -4.670   6.193  0.00  0.00    +0.022 C 
ENDBRANCH  31  33
ENDBRANCH  28  29
ENDBRANCH  14  28
TORSDOF 6
