REMARK  Name = ZINC01469454
REMARK  8 active torsions:
REMARK  status: ('A' for Active; 'I' for Inactive)
REMARK    1  A    between atoms: C_1  and  C_2
REMARK    2  A    between atoms: C_2  and  O_3
REMARK    3  A    between atoms: O_3  and  C_4
REMARK    4  A    between atoms: C_9  and  C_10
REMARK    5  A    between atoms: N_11  and  N_12
REMARK    6  A    between atoms: C_13  and  C_15
REMARK    7  A    between atoms: C_15  and  C_16
REMARK    8  A    between atoms: C_16  and  N_17
REMARK                            x       y       z     vdW  Elec       q    Type
REMARK                         _______ _______ _______ _____ _____    ______ ____
ROOT
ATOM      1  N   UNL     1      -4.837   0.936   0.030  0.00  0.00    -0.207 N 
ATOM      2  C   UNL     1      -6.011   1.599   0.039  0.00  0.00    +0.234 C 
ATOM      3  O   UNL     1      -6.022   2.812   0.046  0.00  0.00    -0.274 OA
ATOM      4  H   UNL     1      -4.827  -0.163   0.024  0.00  0.00    +0.177 HD
ENDROOT
BRANCH   1   6
ATOM      5  C   UNL     1      -2.500   1.010   0.019  0.00  0.00    +0.142 C 
ATOM      6  N   UNL     1      -3.630   1.648   0.028  0.00  0.00    -0.188 NA
BRANCH   5  12
ATOM      7  C   UNL     1      -1.240   3.160   0.030  0.00  0.00    +0.129 A 
ATOM      8  C   UNL     1      -0.041   3.854   0.023  0.00  0.00    +0.046 A 
ATOM      9  C   UNL     1       1.158   3.167   0.007  0.00  0.00    +0.004 A 
ATOM     10  C   UNL     1       1.171   1.783   0.000  0.00  0.00    +0.001 A 
ATOM     11  C   UNL     1      -0.013   1.076   0.008  0.00  0.00    +0.013 A 
ATOM     12  C   UNL     1      -1.231   1.759   0.017  0.00  0.00    +0.036 A 
BRANCH   7  13
ATOM     13  O   UNL     1      -2.418   3.835   0.045  0.00  0.00    -0.492 OA
BRANCH  13  15
ATOM     14  C   UNL     1      -3.764   5.842   0.069  0.00  0.00    +0.048 C 
ATOM     15  C   UNL     1      -2.349   5.262   0.052  0.00  0.00    +0.226 C 
ENDBRANCH  13  15
ENDBRANCH   7  13
ENDBRANCH   5  12
ENDBRANCH   1   6
BRANCH   2  16
ATOM     16  C   UNL     1      -7.308   0.834   0.041  0.00  0.00    +0.119 C 
BRANCH  16  17
ATOM     17  C   UNL     1      -8.481   1.817   0.052  0.00  0.00    +0.131 C 
BRANCH  17  18
ATOM     18  N   UNL     1      -9.742   1.072   0.054  0.00  0.00    -0.343 N 
ATOM     19  C   UNL     1     -10.418   0.665   1.183  0.00  0.00    +0.050 A 
ATOM     20  C   UNL     1     -10.173   0.800   2.546  0.00  0.00    +0.026 A 
ATOM     21  C   UNL     1     -11.059   0.271   3.458  0.00  0.00    +0.002 A 
ATOM     22  C   UNL     1     -12.198  -0.399   3.031  0.00  0.00    +0.001 A 
ATOM     23  C   UNL     1     -12.459  -0.544   1.698  0.00  0.00    +0.010 A 
ATOM     24  C   UNL     1     -11.575  -0.015   0.755  0.00  0.00    +0.003 A 
ATOM     25  C   UNL     1     -11.539   0.018  -0.703  0.00  0.00    -0.019 A 
ATOM     26  C   UNL     1     -10.426   0.685  -1.063  0.00  0.00    +0.023 A 
ATOM     27  C   UNL     1     -10.022   0.926  -2.500  0.00  0.00    +0.054 C 
ATOM     28  C   UNL     1     -10.819  -0.027  -3.398  0.00  0.00    +0.006 C 
ATOM     29  C   UNL     1     -12.306   0.064  -3.048  0.00  0.00    +0.005 C 
ATOM     30  C   UNL     1     -12.541  -0.563  -1.668  0.00  0.00    +0.037 C 
ENDBRANCH  17  18
ENDBRANCH  16  17
ENDBRANCH   2  16
TORSDOF 7
