REMARK  Name = ZINC08951319
REMARK  10 active torsions:
REMARK  status: ('A' for Active; 'I' for Inactive)
REMARK    1  A    between atoms: C_1  and  C_2
REMARK    2  A    between atoms: C_2  and  O_3
REMARK    3  A    between atoms: O_3  and  C_4
REMARK    4  A    between atoms: C_4  and  C_6
REMARK    5  A    between atoms: C_6  and  S_7
REMARK    6  A    between atoms: S_7  and  C_8
REMARK    7  A    between atoms: C_18  and  C_19
REMARK    8  A    between atoms: C_18  and  N_62
REMARK    9  A    between atoms: N_27  and  C_28
REMARK   10  A    between atoms: C_31  and  C_34
REMARK                            x       y       z     vdW  Elec       q    Type
REMARK                         _______ _______ _______ _____ _____    ______ ____
ROOT
ATOM      1  C   UNL     1       3.932   6.892  -7.640  0.00  0.00    +0.178 A 
ATOM      2  N   UNL     1       2.734   6.689  -7.109  0.00  0.00    -0.215 NA
ATOM      3  C   UNL     1       2.664   5.897  -6.047  0.00  0.00    +0.117 A 
ATOM      4  C   UNL     1       3.784   5.266  -5.457  0.00  0.00    +0.076 A 
ATOM      5  C   UNL     1       3.510   4.436  -4.298  0.00  0.00    -0.026 A 
ATOM      6  C   UNL     1       2.218   4.349  -3.902  0.00  0.00    -0.021 A 
ATOM      7  S   UNL     1       1.314   5.362  -5.043  0.00  0.00    -0.075 S 
ATOM      8  C   UNL     1       1.691   3.559  -2.745  0.00  0.00    -0.035 C 
ATOM      9  C   UNL     1       4.024   3.297  -2.158  0.00  0.00    -0.073 C 
ATOM     10  C   UNL     1       4.589   3.677  -3.529  0.00  0.00    +0.018 C 
ATOM     11  C   UNL     1       5.063   5.508  -6.057  0.00  0.00    +0.268 A 
ATOM     12  O   UNL     1       6.087   5.009  -5.621  0.00  0.00    -0.267 OA
ATOM     13  N   UNL     1       5.065   6.323  -7.137  0.00  0.00    -0.255 N 
ATOM     14  N   UNL     1       2.738   2.594  -2.337  0.00  0.00    +0.386 N 
ATOM     15  H   UNL     1       2.844   1.884  -3.071  0.00  0.00    -0.081 HD
ENDROOT
BRANCH  13  16
ATOM     16  C   UNL     1       6.287   6.597  -7.766  0.00  0.00    +0.052 A 
ATOM     17  C   UNL     1       7.049   7.684  -7.362  0.00  0.00    +0.026 A 
ATOM     18  C   UNL     1       8.256   7.948  -7.981  0.00  0.00    +0.005 A 
ATOM     19  C   UNL     1       8.699   7.137  -9.009  0.00  0.00    -0.050 A 
ATOM     20  C   UNL     1       7.939   6.056  -9.418  0.00  0.00    +0.005 A 
ATOM     21  C   UNL     1       6.735   5.784  -8.799  0.00  0.00    +0.026 A 
ATOM     22  C   UNL     1      10.012   7.431  -9.687  0.00  0.00    +0.044 C 
ENDBRANCH  13  16
BRANCH   1  23
ATOM     23  S   UNL     1       4.066   7.937  -9.052  0.00  0.00    -0.076 S 
BRANCH  23  24
ATOM     24  C   UNL     1       2.328   8.391  -9.272  0.00  0.00    +0.197 C 
BRANCH  24  25
ATOM     25  C   UNL     1       2.195   9.311 -10.459  0.00  0.00    +0.317 C 
ATOM     26  O   UNL     1       3.175   9.626 -11.091  0.00  0.00    -0.250 OA
BRANCH  25  27
ATOM     27  O   UNL     1       0.988   9.779 -10.814  0.00  0.00    -0.464 OA
BRANCH  27  29
ATOM     28  C   UNL     1      -0.512  11.088 -12.216  0.00  0.00    +0.048 C 
ATOM     29  C   UNL     1       0.936  10.660 -11.967  0.00  0.00    +0.229 C 
ENDBRANCH  27  29
ENDBRANCH  25  27
ENDBRANCH  24  25
ENDBRANCH  23  24
ENDBRANCH   1  23
BRANCH  14  30
ATOM     30  C   UNL     1       2.347   1.926  -1.076  0.00  0.00    -0.043 C 
BRANCH  30  31
ATOM     31  C   UNL     1       0.923   1.445  -1.192  0.00  0.00    -0.064 A 
ATOM     32  C   UNL     1       0.658   0.186  -1.696  0.00  0.00    +0.002 A 
ATOM     33  C   UNL     1      -0.647  -0.256  -1.803  0.00  0.00    +0.000 A 
ATOM     34  C   UNL     1      -1.688   0.564  -1.409  0.00  0.00    +0.000 A 
ATOM     35  C   UNL     1      -1.423   1.822  -0.899  0.00  0.00    +0.000 A 
ATOM     36  C   UNL     1      -0.117   2.263  -0.793  0.00  0.00    +0.002 A 
ENDBRANCH  30  31
ENDBRANCH  14  30
TORSDOF 8
