REMARK  Name = ZINC09878683
REMARK  11 active torsions:
REMARK  status: ('A' for Active; 'I' for Inactive)
REMARK    1  A    between atoms: C_1  and  C_2
REMARK    2  A    between atoms: C_2  and  C_4
REMARK    3  A    between atoms: C_4  and  C_6
REMARK    4  A    between atoms: C_4  and  N_13
REMARK    5  A    between atoms: C_6  and  C_7
REMARK    6  A    between atoms: C_14  and  C_16
REMARK    7  A    between atoms: C_16  and  S_17
REMARK    8  A    between atoms: S_17  and  C_18
REMARK    9  A    between atoms: C_21  and  C_29
REMARK   10  A    between atoms: N_22  and  C_23
REMARK   11  A    between atoms: C_29  and  N_65
REMARK                            x       y       z     vdW  Elec       q    Type
REMARK                         _______ _______ _______ _____ _____    ______ ____
ROOT
ATOM      1  C   UNL     1      -3.678   4.827   6.467  0.00  0.00    +0.197 A 
ATOM      2  N   UNL     1      -4.028   5.832   5.698  0.00  0.00    -0.122 NA
ATOM      3  N   UNL     1      -4.267   6.870   6.417  0.00  0.00    -0.135 NA
ATOM      4  C   UNL     1      -4.077   6.597   7.677  0.00  0.00    +0.122 A 
ATOM      5  N   UNL     1      -3.694   5.284   7.756  0.00  0.00    -0.276 N 
ENDROOT
BRANCH   5   6
ATOM      6  C   UNL     1      -3.383   4.560   8.916  0.00  0.00    +0.050 A 
ATOM      7  C   UNL     1      -4.364   4.319   9.869  0.00  0.00    +0.026 A 
ATOM      8  C   UNL     1      -4.056   3.602  11.008  0.00  0.00    +0.002 A 
ATOM      9  C   UNL     1      -2.770   3.132  11.205  0.00  0.00    +0.000 A 
ATOM     10  C   UNL     1      -1.790   3.375  10.260  0.00  0.00    +0.002 A 
ATOM     11  C   UNL     1      -2.094   4.088   9.116  0.00  0.00    +0.026 A 
ENDBRANCH   5   6
BRANCH   1  12
ATOM     12  S   UNL     1      -3.260   3.199   5.937  0.00  0.00    -0.076 S 
BRANCH  12  13
ATOM     13  C   UNL     1      -3.472   3.386   4.149  0.00  0.00    +0.173 C 
BRANCH  13  15
ATOM     14  N   UNL     1      -3.249   1.981   2.126  0.00  0.00    -0.305 N 
ATOM     15  C   UNL     1      -3.159   2.080   3.467  0.00  0.00    +0.224 C 
ATOM     16  O   UNL     1      -2.825   1.117   4.125  0.00  0.00    -0.275 OA
ATOM     17  H   UNL     1      -3.517   2.751   1.600  0.00  0.00    +0.149 HD
BRANCH  14  18
ATOM     18  C   UNL     1      -2.945   0.711   1.462  0.00  0.00    +0.143 C 
BRANCH  18  20
ATOM     19  C   UNL     1      -4.037  -1.652   1.268  0.00  0.00    +0.088 C 
ATOM     20  C   UNL     1      -4.172  -0.164   1.465  0.00  0.00    +0.151 C 
ATOM     21  O   UNL     1      -5.263   0.327   1.625  0.00  0.00    -0.296 OA
ENDBRANCH  18  20
BRANCH  18  22
ATOM     22  C   UNL     1      -2.514   0.980   0.019  0.00  0.00    +0.065 C 
BRANCH  22  23
ATOM     23  C   UNL     1      -1.219   1.751   0.017  0.00  0.00    -0.045 A 
ATOM     24  C   UNL     1      -0.013   1.076   0.008  0.00  0.00    +0.004 A 
ATOM     25  C   UNL     1       1.175   1.783   0.000  0.00  0.00    +0.000 A 
ATOM     26  C   UNL     1       1.156   3.165   0.008  0.00  0.00    +0.000 A 
ATOM     27  C   UNL     1      -0.050   3.840   0.022  0.00  0.00    +0.000 A 
ATOM     28  C   UNL     1      -1.238   3.133   0.030  0.00  0.00    +0.004 A 
ENDBRANCH  22  23
ENDBRANCH  18  22
ENDBRANCH  14  18
ENDBRANCH  13  15
ENDBRANCH  12  13
ENDBRANCH   1  12
BRANCH   4  29
ATOM     29  C   UNL     1      -4.246   7.549   8.833  0.00  0.00    -0.001 C 
BRANCH  29  35
ATOM     30  C   UNL     1      -1.950   7.294   9.555  0.00  0.00    -0.078 C 
ATOM     31  C   UNL     1      -0.605   8.017   9.673  0.00  0.00    -0.019 C 
ATOM     32  C   UNL     1      -0.741   9.179  10.660  0.00  0.00    -0.004 C 
ATOM     33  C   UNL     1      -1.848  10.121  10.178  0.00  0.00    -0.019 C 
ATOM     34  C   UNL     1      -3.156   9.338  10.046  0.00  0.00    -0.078 C 
ATOM     35  N   UNL     1      -2.966   8.249   9.064  0.00  0.00    +0.384 N 
ATOM     36  H   UNL     1      -2.642   8.653   8.177  0.00  0.00    -0.081 HD
ENDBRANCH  29  35
ENDBRANCH   4  29
TORSDOF 10
