REMARK  Name = ZINC59564773
REMARK  9 active torsions:
REMARK  status: ('A' for Active; 'I' for Inactive)
REMARK    1  A    between atoms: C_1  and  C_2
REMARK    2  A    between atoms: C_2  and  C_3
REMARK    3  A    between atoms: C_3  and  C_31
REMARK    4  A    between atoms: N_5  and  C_25
REMARK    5  A    between atoms: C_6  and  S_8
REMARK    6  A    between atoms: S_8  and  C_9
REMARK    7  A    between atoms: C_9  and  C_10
REMARK    8  A    between atoms: N_12  and  C_13
REMARK    9  A    between atoms: N_12  and  C_19
REMARK                            x       y       z     vdW  Elec       q    Type
REMARK                         _______ _______ _______ _____ _____    ______ ____
ROOT
ATOM      1  S   UNL     1       4.679  -0.593   1.176  0.00  0.00    -0.082 S 
ENDROOT
BRANCH   1   5
ATOM      2  C   UNL     1       0.812  -0.025   1.796  0.00  0.00    +0.104 C 
ATOM      3  N   UNL     1       1.032  -1.315   2.480  0.00  0.00    -0.209 NA
ATOM      4  N   UNL     1       2.360  -1.595   2.316  0.00  0.00    -0.213 N 
ATOM      5  C   UNL     1       2.968  -0.600   1.598  0.00  0.00    +0.151 C 
ATOM      6  N   UNL     1       2.134   0.340   1.264  0.00  0.00    -0.348 N 
ATOM      7  C   UNL     1       0.325   1.033   2.788  0.00  0.00    +0.053 C 
ATOM      8  H   UNL     1       0.794  -1.250   3.459  0.00  0.00    +0.147 HD
ATOM      9  H   UNL     1       2.345   1.139   0.756  0.00  0.00    +0.163 HD
BRANCH   4  10
ATOM     10  C   UNL     1       3.005  -2.734   2.810  0.00  0.00    +0.052 A 
ATOM     11  C   UNL     1       4.219  -2.614   3.473  0.00  0.00    +0.025 A 
ATOM     12  C   UNL     1       4.854  -3.740   3.959  0.00  0.00    +0.002 A 
ATOM     13  C   UNL     1       4.280  -4.986   3.787  0.00  0.00    +0.000 A 
ATOM     14  C   UNL     1       3.071  -5.110   3.128  0.00  0.00    +0.002 A 
ATOM     15  C   UNL     1       2.429  -3.987   2.644  0.00  0.00    +0.025 A 
ENDBRANCH   4  10
BRANCH   2  17
ATOM     16  C   UNL     1      -0.341   1.137  -0.091  0.00  0.00    +0.007 C 
ATOM     17  C   UNL     1      -0.195  -0.190   0.656  0.00  0.00    +0.042 C 
ENDBRANCH   2  17
ENDBRANCH   1   5
BRANCH   1  18
ATOM     18  C   UNL     1       4.894   0.947   0.242  0.00  0.00    +0.173 C 
BRANCH  18  19
ATOM     19  C   UNL     1       6.334   1.079  -0.184  0.00  0.00    +0.234 C 
ATOM     20  O   UNL     1       7.138   0.226   0.126  0.00  0.00    -0.274 OA
ATOM     21  N   UNL     1       6.727   2.144  -0.910  0.00  0.00    -0.240 N 
BRANCH  21  22
ATOM     22  C   UNL     1       8.038   2.213  -1.398  0.00  0.00    +0.041 A 
ATOM     23  C   UNL     1       8.368   1.597  -2.598  0.00  0.00    +0.024 A 
ATOM     24  C   UNL     1       9.661   1.667  -3.076  0.00  0.00    +0.002 A 
ATOM     25  C   UNL     1      10.628   2.350  -2.361  0.00  0.00    +0.000 A 
ATOM     26  C   UNL     1      10.303   2.965  -1.166  0.00  0.00    +0.002 A 
ATOM     27  C   UNL     1       9.009   2.904  -0.685  0.00  0.00    +0.024 A 
ENDBRANCH  21  22
BRANCH  21  28
ATOM     28  C   UNL     1       5.825   3.181  -1.177  0.00  0.00    +0.041 A 
ATOM     29  C   UNL     1       5.377   3.996  -0.146  0.00  0.00    +0.024 A 
ATOM     30  C   UNL     1       4.487   5.018  -0.413  0.00  0.00    +0.002 A 
ATOM     31  C   UNL     1       4.042   5.229  -1.704  0.00  0.00    +0.000 A 
ATOM     32  C   UNL     1       4.485   4.419  -2.733  0.00  0.00    +0.002 A 
ATOM     33  C   UNL     1       5.380   3.399  -2.474  0.00  0.00    +0.024 A 
ENDBRANCH  21  28
ENDBRANCH  18  19
ENDBRANCH   1  18
TORSDOF 7
