REMARK  Name = ZINC09345270
REMARK  6 active torsions:
REMARK  status: ('A' for Active; 'I' for Inactive)
REMARK    1  A    between atoms: C_1  and  O_2
REMARK    2  A    between atoms: O_2  and  C_3
REMARK    3  A    between atoms: C_7  and  C_11
REMARK    4  A    between atoms: C_8  and  O_9
REMARK    5  A    between atoms: O_9  and  C_10
REMARK    6  A    between atoms: C_29  and  C_31
REMARK                            x       y       z     vdW  Elec       q    Type
REMARK                         _______ _______ _______ _____ _____    ______ ____
ROOT
ATOM      1  C   UNL     1       1.729  -3.890  -3.139  0.00  0.00    +0.238 C 
ATOM      2  C   UNL     1       0.325  -4.339  -3.417  0.00  0.00    +0.028 C 
ATOM      3  C   UNL     1      -0.138  -4.408  -4.683  0.00  0.00    +0.083 C 
ATOM      4  C   UNL     1       0.796  -4.036  -5.775  0.00  0.00    +0.044 A 
ATOM      5  C   UNL     1       0.341  -3.760  -7.057  0.00  0.00    +0.033 A 
ATOM      6  C   UNL     1       1.247  -3.415  -8.043  0.00  0.00    +0.042 A 
ATOM      7  C   UNL     1       2.599  -3.345  -7.753  0.00  0.00    +0.023 A 
ATOM      8  C   UNL     1       3.059  -3.617  -6.478  0.00  0.00    +0.048 A 
ATOM      9  C   UNL     1       2.164  -3.966  -5.482  0.00  0.00    +0.131 A 
ATOM     10  O   UNL     1       2.586  -4.245  -4.227  0.00  0.00    -0.479 OA
ATOM     11 CL   UNL     1       0.687  -3.071  -9.650  0.00  0.00    -0.084 Cl
ATOM     12  N   UNL     1      -1.407  -4.805  -4.948  0.00  0.00    -0.216 NA
ATOM     13  C   UNL     1      -2.277  -5.157  -4.029  0.00  0.00    +0.209 C 
ATOM     14  N   UNL     1      -3.578  -5.582  -4.113  0.00  0.00    -0.275 N 
ATOM     15  C   UNL     1      -4.033  -5.827  -2.840  0.00  0.00    +0.208 C 
ATOM     16  N   UNL     1      -3.088  -5.574  -1.993  0.00  0.00    -0.169 NA
ATOM     17  N   UNL     1      -1.963  -5.148  -2.700  0.00  0.00    -0.182 N 
ATOM     18  C   UNL     1      -0.614  -4.728  -2.296  0.00  0.00    +0.163 C 
ATOM     19  H   UNL     1      -4.089  -5.690  -4.931  0.00  0.00    +0.156 HD
ENDROOT
BRANCH  18  20
ATOM     20  C   UNL     1       0.019  -5.857  -1.524  0.00  0.00    -0.021 A 
ATOM     21  C   UNL     1       0.047  -7.130  -2.061  0.00  0.00    +0.008 A 
ATOM     22  C   UNL     1       0.627  -8.166  -1.353  0.00  0.00    +0.038 A 
ATOM     23  C   UNL     1       1.180  -7.928  -0.107  0.00  0.00    +0.123 A 
ATOM     24  C   UNL     1       1.151  -6.652   0.430  0.00  0.00    +0.038 A 
ATOM     25  C   UNL     1       0.576  -5.617  -0.281  0.00  0.00    +0.008 A 
ATOM     26  F   UNL     1       1.747  -8.940   0.586  0.00  0.00    -0.205 F 
ENDBRANCH  18  20
BRANCH   1  31
ATOM     27  C   UNL     1       2.958  -0.319  -2.878  0.00  0.00    +0.162 A 
ATOM     28  C   UNL     1       1.775   0.356  -2.624  0.00  0.00    +0.049 A 
ATOM     29  C   UNL     1       0.585  -0.342  -2.539  0.00  0.00    +0.004 A 
ATOM     30  C   UNL     1       0.571  -1.714  -2.706  0.00  0.00    +0.011 A 
ATOM     31  C   UNL     1       1.748  -2.394  -2.959  0.00  0.00    +0.042 A 
ATOM     32  C   UNL     1       2.943  -1.700  -3.051  0.00  0.00    +0.168 A 
BRANCH  27  34
ATOM     33  C   UNL     1       4.068   1.781  -2.773  0.00  0.00    +0.277 C 
ATOM     34  O   UNL     1       4.129   0.366  -2.962  0.00  0.00    -0.491 OA
ENDBRANCH  27  34
BRANCH  32  35
ATOM     35  O   UNL     1       4.101  -2.367  -3.306  0.00  0.00    -0.491 OA
ATOM     36  C   UNL     1       4.834  -2.848  -2.177  0.00  0.00    +0.277 C 
ENDBRANCH  32  35
ENDBRANCH   1  31
TORSDOF 4
