REMARK  Name = ZINC15839171
REMARK  9 active torsions:
REMARK  status: ('A' for Active; 'I' for Inactive)
REMARK    1  A    between atoms: C_1  and  C_2
REMARK    2  A    between atoms: C_2  and  C_3
REMARK    3  A    between atoms: C_3  and  C_34
REMARK    4  A    between atoms: N_18  and  C_24
REMARK    5  A    between atoms: C_20  and  S_21
REMARK    6  A    between atoms: S_21  and  C_22
REMARK    7  A    between atoms: C_22  and  C_23
REMARK    8  A    between atoms: C_24  and  C_25
REMARK    9  A    between atoms: N_27  and  C_28
REMARK                            x       y       z     vdW  Elec       q    Type
REMARK                         _______ _______ _______ _____ _____    ______ ____
ROOT
ATOM      1  C   UNL     1      -6.379  -4.344  -3.284  0.00  0.00    +0.004 C 
ATOM      2  C   UNL     1      -6.487  -3.848  -4.723  0.00  0.00    +0.047 C 
ATOM      3  C   UNL     1      -5.128  -3.784  -5.365  0.00  0.00    -0.037 A 
ATOM      4  C   UNL     1      -4.973  -4.081  -6.704  0.00  0.00    +0.004 A 
ATOM      5  C   UNL     1      -3.723  -4.008  -7.290  0.00  0.00    +0.000 A 
ATOM      6  C   UNL     1      -2.619  -3.639  -6.542  0.00  0.00    +0.001 A 
ATOM      7  C   UNL     1      -2.759  -3.343  -5.201  0.00  0.00    +0.010 A 
ATOM      8  C   UNL     1      -4.016  -3.417  -4.607  0.00  0.00    +0.004 A 
ATOM      9  C   UNL     1      -4.197  -3.109  -3.169  0.00  0.00    +0.084 A 
ATOM     10  C   UNL     1      -5.348  -3.554  -2.528  0.00  0.00    +0.050 A 
ATOM     11  C   UNL     1      -5.520  -3.263  -1.174  0.00  0.00    +0.266 A 
ATOM     12  O   UNL     1      -6.521  -3.632  -0.580  0.00  0.00    -0.267 OA
ATOM     13  N   UNL     1      -4.565  -2.553  -0.535  0.00  0.00    -0.222 N 
ATOM     14  C   UNL     1      -3.453  -2.139  -1.208  0.00  0.00    +0.237 A 
ATOM     15  N   UNL     1      -3.283  -2.416  -2.491  0.00  0.00    -0.211 NA
ATOM     16  N   UNL     1      -2.677  -1.461  -0.319  0.00  0.00    -0.221 N 
ATOM     17  N   UNL     1      -3.349  -1.465   0.911  0.00  0.00    -0.142 NA
ATOM     18  C   UNL     1      -4.466  -2.115   0.767  0.00  0.00    +0.198 A 
ATOM     19  C   UNL     1      -7.736  -4.190  -2.594  0.00  0.00    +0.016 C 
ENDROOT
BRANCH   1  21
ATOM     20  C   UNL     1      -5.870  -6.324  -1.847  0.00  0.00    +0.005 C 
ATOM     21  C   UNL     1      -5.980  -5.821  -3.288  0.00  0.00    +0.008 C 
ENDBRANCH   1  21
BRANCH  18  22
ATOM     22  S   UNL     1      -5.660  -2.392   2.033  0.00  0.00    -0.086 S 
BRANCH  22  23
ATOM     23  C   UNL     1      -4.855  -1.545   3.415  0.00  0.00    +0.074 C 
ATOM     24  C   UNL     1      -5.734  -1.655   4.663  0.00  0.00    +0.016 C 
ENDBRANCH  22  23
ENDBRANCH  18  22
BRANCH  16  25
ATOM     25  C   UNL     1      -1.381  -0.837  -0.597  0.00  0.00    +0.243 C 
BRANCH  25  26
ATOM     26  C   UNL     1      -1.595   0.585  -1.048  0.00  0.00    +0.239 C 
ATOM     27  O   UNL     1      -2.719   1.033  -1.129  0.00  0.00    -0.273 OA
ATOM     28  N   UNL     1      -0.537   1.359  -1.362  0.00  0.00    -0.284 N 
ATOM     29  H   UNL     1       0.356   0.979  -1.371  0.00  0.00    +0.155 HD
BRANCH  28  30
ATOM     30  C   UNL     1      -0.726   2.710  -1.674  0.00  0.00    +0.033 A 
ATOM     31  C   UNL     1       0.100   3.332  -2.600  0.00  0.00    +0.023 A 
ATOM     32  C   UNL     1      -0.092   4.665  -2.910  0.00  0.00    +0.002 A 
ATOM     33  C   UNL     1      -1.100   5.381  -2.290  0.00  0.00    +0.000 A 
ATOM     34  C   UNL     1      -1.920   4.766  -1.363  0.00  0.00    +0.002 A 
ATOM     35  C   UNL     1      -1.736   3.432  -1.053  0.00  0.00    +0.023 A 
ENDBRANCH  28  30
ENDBRANCH  25  26
ENDBRANCH  16  25
TORSDOF 6
