REMARK  Name = ZINC41649537
REMARK  6 active torsions:
REMARK  status: ('A' for Active; 'I' for Inactive)
REMARK    1  A    between atoms: C_1  and  C_2
REMARK    2  A    between atoms: C_5  and  C_7
REMARK    3  A    between atoms: C_12  and  C_31
REMARK    4  A    between atoms: N_19  and  C_22
REMARK    5  A    between atoms: C_22  and  C_23
REMARK    6  A    between atoms: C_23  and  C_24
REMARK                            x       y       z     vdW  Elec       q    Type
REMARK                         _______ _______ _______ _____ _____    ______ ____
ROOT
ATOM      1  C   UNL     1       1.631  -3.173  -0.025  0.00  0.00    +0.096 C 
ATOM      2  C   UNL     1       2.980  -2.968  -0.030  0.00  0.00    +0.179 C 
ATOM      3  C   UNL     1       3.974  -3.984  -0.047  0.00  0.00    +0.232 C 
ATOM      4  O   UNL     1       3.800  -5.191  -0.059  0.00  0.00    -0.283 OA
ATOM      5  C   UNL     1       5.259  -3.265  -0.048  0.00  0.00    +0.071 A 
ATOM      6  C   UNL     1       6.592  -3.677  -0.060  0.00  0.00    -0.033 A 
ATOM      7  C   UNL     1       7.590  -2.746  -0.056  0.00  0.00    +0.050 A 
ATOM      8  C   UNL     1       7.287  -1.384  -0.040  0.00  0.00    +0.131 A 
ATOM      9  C   UNL     1       5.969  -0.962  -0.030  0.00  0.00    +0.051 A 
ATOM     10  C   UNL     1       4.941  -1.897  -0.032  0.00  0.00    +0.148 A 
ATOM     11  O   UNL     1       3.597  -1.763  -0.027  0.00  0.00    -0.451 OA
ATOM     12  C   UNL     1       5.627   0.506  -0.020  0.00  0.00    +0.130 C 
ATOM     13  N   UNL     1       6.805   1.284   0.390  0.00  0.00    -0.266 NA
ATOM     14  C   UNL     1       7.984   0.865  -0.384  0.00  0.00    +0.318 C 
ATOM     15  O   UNL     1       8.305  -0.484  -0.033  0.00  0.00    -0.476 OA
ATOM     16  C   UNL     1       6.928  -5.146  -0.077  0.00  0.00    +0.045 C 
ENDROOT
BRANCH   1  21
ATOM     17  C   UNL     1      -0.018   1.503   0.010  0.00  0.00    +0.086 C 
ATOM     18  C   UNL     1       0.002  -0.004   0.002  0.00  0.00    +0.103 A 
ATOM     19  C   UNL     1      -1.088  -0.803   0.003  0.00  0.00    +0.045 A 
ATOM     20  C   UNL     1      -0.631  -2.129  -0.007  0.00  0.00    +0.049 A 
ATOM     21  C   UNL     1       0.749  -2.069  -0.014  0.00  0.00    +0.132 A 
ATOM     22  O   UNL     1       1.104  -0.767  -0.013  0.00  0.00    -0.460 OA
ENDBRANCH   1  21
BRANCH  13  23
ATOM     23  C   UNL     1       6.562   2.725   0.241  0.00  0.00    +0.092 C 
BRANCH  23  24
ATOM     24  C   UNL     1       7.699   3.505   0.904  0.00  0.00    +0.052 C 
BRANCH  24  25
ATOM     25  C   UNL     1       7.451   4.983   0.752  0.00  0.00    -0.028 A 
ATOM     26  C   UNL     1       8.023   5.676  -0.299  0.00  0.00    +0.005 A 
ATOM     27  C   UNL     1       7.795   7.032  -0.439  0.00  0.00    +0.000 A 
ATOM     28  C   UNL     1       6.994   7.696   0.471  0.00  0.00    +0.001 A 
ATOM     29  C   UNL     1       6.421   7.005   1.521  0.00  0.00    +0.020 A 
ATOM     30  C   UNL     1       6.644   5.646   1.659  0.00  0.00    +0.044 A 
ATOM     31 CL   UNL     1       5.919   4.776   2.975  0.00  0.00    -0.083 Cl
ENDBRANCH  24  25
ENDBRANCH  23  24
ENDBRANCH  13  23
TORSDOF 4
