REMARK  Name = ZINC13065563
REMARK  12 active torsions:
REMARK  status: ('A' for Active; 'I' for Inactive)
REMARK    1  A    between atoms: C_1  and  C_2
REMARK    2  A    between atoms: C_7  and  C_8
REMARK    3  A    between atoms: C_8  and  C_9
REMARK    4  A    between atoms: C_9  and  N_69
REMARK    5  A    between atoms: C_10  and  C_11
REMARK    6  A    between atoms: C_10  and  N_69
REMARK    7  A    between atoms: C_15  and  C_24
REMARK    8  A    between atoms: C_17  and  C_23
REMARK    9  A    between atoms: C_25  and  C_26
REMARK   10  A    between atoms: C_25  and  N_69
REMARK   11  A    between atoms: N_30  and  C_31
REMARK   12  A    between atoms: C_31  and  C_32
REMARK                            x       y       z     vdW  Elec       q    Type
REMARK                         _______ _______ _______ _____ _____    ______ ____
ROOT
ATOM      1  N   UNL     1       5.428   0.945  -1.404  0.00  0.00    +0.387 N 
ATOM      2  H   UNL     1       5.525   1.823  -1.926  0.00  0.00    -0.081 HD
ENDROOT
BRANCH   1   3
ATOM      3  C   UNL     1       4.484   0.061  -2.120  0.00  0.00    -0.073 C 
BRANCH   3   4
ATOM      4  C   UNL     1       4.271  -1.239  -1.343  0.00  0.00    +0.017 C 
BRANCH   4  11
ATOM      5  C   UNL     1       4.991  -3.083  -3.446  0.00  0.00    +0.044 C 
ATOM      6  C   UNL     1       3.550  -2.943  -3.028  0.00  0.00    -0.047 A 
ATOM      7  C   UNL     1       2.573  -3.698  -3.650  0.00  0.00    +0.003 A 
ATOM      8  C   UNL     1       1.252  -3.570  -3.266  0.00  0.00    +0.000 A 
ATOM      9  C   UNL     1       0.907  -2.688  -2.259  0.00  0.00    +0.000 A 
ATOM     10  C   UNL     1       1.884  -1.937  -1.633  0.00  0.00    +0.004 A 
ATOM     11  C   UNL     1       3.206  -2.061  -2.021  0.00  0.00    -0.046 A 
ENDBRANCH   4  11
ENDBRANCH   3   4
ENDBRANCH   1   3
BRANCH   1  12
ATOM     12  C   UNL     1       4.912   1.245  -0.052  0.00  0.00    -0.037 C 
BRANCH  12  13
ATOM     13  C   UNL     1       3.735   2.178  -0.178  0.00  0.00    +0.001 A 
ATOM     14  C   UNL     1       2.473   1.680  -0.153  0.00  0.00    +0.017 A 
ATOM     15  C   UNL     1       1.351   2.612  -0.279  0.00  0.00    -0.001 A 
ATOM     16  C   UNL     1       0.028   2.159  -0.260  0.00  0.00    +0.013 A 
ATOM     17  C   UNL     1      -0.996   3.054  -0.386  0.00  0.00    -0.050 A 
ATOM     18  C   UNL     1      -0.736   4.411  -0.521  0.00  0.00    +0.008 A 
ATOM     19  C   UNL     1       0.559   4.880  -0.542  0.00  0.00    -0.026 A 
ATOM     20  C   UNL     1       1.619   3.987  -0.421  0.00  0.00    +0.052 A 
ATOM     21  N   UNL     1       2.925   4.429  -0.440  0.00  0.00    -0.322 N 
ATOM     22  H   UNL     1       3.107   5.376  -0.538  0.00  0.00    +0.169 HD
ATOM     23  C   UNL     1       3.949   3.565  -0.324  0.00  0.00    +0.251 A 
ATOM     24  O   UNL     1       5.091   3.991  -0.345  0.00  0.00    -0.268 OA
ATOM     25  C   UNL     1       0.827   6.355  -0.695  0.00  0.00    +0.046 C 
ATOM     26  C   UNL     1      -2.421   2.564  -0.372  0.00  0.00    +0.044 C 
ENDBRANCH  12  13
ENDBRANCH   1  12
BRANCH   1  27
ATOM     27  C   UNL     1       6.752   0.295  -1.306  0.00  0.00    +0.001 C 
BRANCH  27  28
ATOM     28  C   UNL     1       7.350   0.201  -2.686  0.00  0.00    +0.135 A 
ATOM     29  N   UNL     1       7.227  -0.798  -3.525  0.00  0.00    -0.115 NA
ATOM     30  N   UNL     1       7.880  -0.501  -4.596  0.00  0.00    -0.023 NA
ATOM     31  N   UNL     1       8.423   0.658  -4.458  0.00  0.00    -0.044 NA
ATOM     32  N   UNL     1       8.119   1.123  -3.293  0.00  0.00    -0.227 N 
BRANCH  32  33
ATOM     33  C   UNL     1       8.534   2.414  -2.737  0.00  0.00    +0.182 C 
BRANCH  33  34
ATOM     34  C   UNL     1       9.838   2.247  -2.000  0.00  0.00    -0.026 A 
ATOM     35  C   UNL     1       9.835   1.935  -0.653  0.00  0.00    +0.008 A 
ATOM     36  C   UNL     1      11.030   1.778   0.023  0.00  0.00    +0.038 A 
ATOM     37  C   UNL     1      12.230   1.943  -0.647  0.00  0.00    +0.123 A 
ATOM     38  C   UNL     1      12.232   2.261  -1.994  0.00  0.00    +0.038 A 
ATOM     39  C   UNL     1      11.036   2.413  -2.669  0.00  0.00    +0.008 A 
ATOM     40  F   UNL     1      13.399   1.794   0.014  0.00  0.00    -0.205 F 
ENDBRANCH  33  34
ENDBRANCH  32  33
ENDBRANCH  27  28
ENDBRANCH   1  27
TORSDOF 9
