REMARK  Name = ZINC39599704
REMARK  9 active torsions:
REMARK  status: ('A' for Active; 'I' for Inactive)
REMARK    1  A    between atoms: C_1  and  C_2
REMARK    2  A    between atoms: C_2  and  C_4
REMARK    3  A    between atoms: C_2  and  O_32
REMARK    4  A    between atoms: C_8  and  C_17
REMARK    5  A    between atoms: N_19  and  C_20
REMARK    6  A    between atoms: C_20  and  C_21
REMARK    7  A    between atoms: C_24  and  O_27
REMARK    8  A    between atoms: O_27  and  C_28
REMARK    9  A    between atoms: O_32  and  C_33
REMARK                            x       y       z     vdW  Elec       q    Type
REMARK                         _______ _______ _______ _____ _____    ______ ____
ROOT
ATOM      1  C   UNL     1       1.040  -0.317   1.586  0.00  0.00    +0.256 C 
ATOM      2  O   UNL     1       2.171  -0.754   1.569  0.00  0.00    -0.272 OA
ATOM      3  N   UNL     1       0.442  -0.040   2.761  0.00  0.00    -0.297 N 
ATOM      4  C   UNL     1      -0.925   0.488   2.983  0.00  0.00    +0.121 C 
ATOM      5  C   UNL     1      -1.443  -0.276   4.222  0.00  0.00    +0.100 C 
ATOM      6  C   UNL     1      -0.174  -0.721   4.968  0.00  0.00    -0.004 C 
ATOM      7  C   UNL     1       1.000  -0.201   4.125  0.00  0.00    +0.115 C 
ATOM      8  C   UNL     1      -0.138  -0.104   6.363  0.00  0.00    -0.010 C 
ATOM      9  C   UNL     1       1.103  -0.606   7.106  0.00  0.00    -0.082 C 
ATOM     10  N   UNL     1       1.062  -2.071   7.198  0.00  0.00    +0.379 N 
ATOM     11  C   UNL     1       1.121  -2.658   5.854  0.00  0.00    -0.082 C 
ATOM     12  C   UNL     1      -0.119  -2.243   5.058  0.00  0.00    -0.010 C 
ATOM     13  H   UNL     1       1.848  -2.395   7.740  0.00  0.00    -0.086 HD
ATOM     14  H   UNL     1       0.205  -2.354   7.650  0.00  0.00    -0.086 HD
ENDROOT
BRANCH   5  15
ATOM     15  C   UNL     1      -2.252  -1.475   3.798  0.00  0.00    +0.218 C 
ATOM     16  O   UNL     1      -1.996  -2.042   2.756  0.00  0.00    -0.275 OA
ATOM     17  N   UNL     1      -3.260  -1.917   4.576  0.00  0.00    -0.311 N 
ATOM     18  H   UNL     1      -3.465  -1.464   5.409  0.00  0.00    +0.149 HD
BRANCH  17  19
ATOM     19  C   UNL     1      -4.046  -3.083   4.164  0.00  0.00    +0.139 C 
BRANCH  19  20
ATOM     20  C   UNL     1      -5.102  -3.368   5.200  0.00  0.00    -0.030 A 
ATOM     21  C   UNL     1      -4.821  -4.214   6.257  0.00  0.00    +0.009 A 
ATOM     22  C   UNL     1      -5.788  -4.478   7.208  0.00  0.00    +0.046 A 
ATOM     23  C   UNL     1      -7.041  -3.893   7.103  0.00  0.00    +0.130 A 
ATOM     24  C   UNL     1      -7.321  -3.044   6.041  0.00  0.00    +0.046 A 
ATOM     25  C   UNL     1      -6.349  -2.779   5.096  0.00  0.00    +0.009 A 
BRANCH  23  26
ATOM     26  O   UNL     1      -7.994  -4.151   8.037  0.00  0.00    -0.406 OA
BRANCH  26  27
ATOM     27  C   UNL     1      -9.261  -3.514   7.864  0.00  0.00    +0.575 C 
ATOM     28  F   UNL     1      -9.818  -3.905   6.642  0.00  0.00    -0.133 F 
ATOM     29  F   UNL     1     -10.117  -3.886   8.907  0.00  0.00    -0.133 F 
ATOM     30  F   UNL     1      -9.091  -2.125   7.875  0.00  0.00    -0.133 F 
ENDBRANCH  26  27
ENDBRANCH  23  26
ENDBRANCH  19  20
ENDBRANCH  17  19
ENDBRANCH   5  15
BRANCH   1  32
ATOM     31  C   UNL     1       0.038   1.412   0.118  0.00  0.00    +0.062 C 
ATOM     32  C   UNL     1       0.302  -0.085   0.292  0.00  0.00    +0.256 C 
BRANCH  32  33
ATOM     33  O   UNL     1       1.094  -0.559  -0.799  0.00  0.00    -0.480 OA
BRANCH  33  34
ATOM     34  C   UNL     1       0.432  -0.920  -1.930  0.00  0.00    +0.122 A 
ATOM     35  C   UNL     1       1.124  -1.496  -2.986  0.00  0.00    +0.045 A 
ATOM     36  C   UNL     1       0.449  -1.862  -4.134  0.00  0.00    +0.004 A 
ATOM     37  C   UNL     1      -0.914  -1.656  -4.232  0.00  0.00    +0.000 A 
ATOM     38  C   UNL     1      -1.606  -1.082  -3.181  0.00  0.00    +0.004 A 
ATOM     39  C   UNL     1      -0.937  -0.720  -2.028  0.00  0.00    +0.045 A 
ENDBRANCH  33  34
ENDBRANCH  32  33
ENDBRANCH   1  32
TORSDOF 8
