REMARK  Name = ZINC13424876
REMARK  7 active torsions:
REMARK  status: ('A' for Active; 'I' for Inactive)
REMARK    1  A    between atoms: C_1  and  C_2
REMARK    2  A    between atoms: C_2  and  C_4
REMARK    3  A    between atoms: C_14  and  C_37
REMARK    4  A    between atoms: C_25  and  C_35
REMARK    5  A    between atoms: C_28  and  O_31
REMARK    6  A    between atoms: O_31  and  C_32
REMARK    7  A    between atoms: C_32  and  C_34
REMARK                            x       y       z     vdW  Elec       q    Type
REMARK                         _______ _______ _______ _____ _____    ______ ____
ROOT
ATOM      1  C   UNL     1      -4.186  -3.218  -0.457  0.00  0.00    +0.037 C 
ATOM      2  C   UNL     1      -5.569  -3.205  -1.008  0.00  0.00    +0.015 C 
ATOM      3  C   UNL     1      -6.033  -4.431  -1.760  0.00  0.00    +0.001 C 
ATOM      4  C   UNL     1      -5.505  -5.698  -1.088  0.00  0.00    +0.000 C 
ATOM      5  C   UNL     1      -3.981  -5.677  -1.192  0.00  0.00    +0.004 C 
ATOM      6  C   UNL     1      -3.398  -4.520  -0.420  0.00  0.00    +0.003 C 
ATOM      7  C   UNL     1      -1.970  -4.196  -0.954  0.00  0.00    +0.009 C 
ATOM      8  C   UNL     1      -1.861  -2.688  -0.650  0.00  0.00    -0.000 C 
ATOM      9  C   UNL     1      -3.255  -2.203  -1.125  0.00  0.00    -0.016 C 
ATOM     10  C   UNL     1      -3.426  -0.751  -0.769  0.00  0.00    +0.008 C 
ATOM     11  C   UNL     1      -2.317   0.098  -1.388  0.00  0.00    +0.005 C 
ATOM     12  C   UNL     1      -0.903  -0.432  -1.221  0.00  0.00    +0.001 C 
ATOM     13  C   UNL     1      -0.779  -1.925  -1.340  0.00  0.00    -0.001 C 
ATOM     14  C   UNL     1       0.601  -2.503  -1.161  0.00  0.00    +0.038 C 
ATOM     15  C   UNL     1       1.459  -1.831  -0.125  0.00  0.00    +0.152 C 
ATOM     16  C   UNL     1       1.133  -0.403   0.324  0.00  0.00    +0.105 C 
ATOM     17  C   UNL     1      -0.175   0.224  -0.080  0.00  0.00    +0.003 C 
ATOM     18  C   UNL     1      -0.278   1.725  -0.079  0.00  0.00    +0.013 C 
ATOM     19  C   UNL     1       1.058   2.453  -0.113  0.00  0.00    +0.045 C 
ATOM     20  C   UNL     1       1.949   1.883   0.995  0.00  0.00    +0.179 C 
ATOM     21  C   UNL     1       2.361   0.478   0.571  0.00  0.00    +0.082 C 
ATOM     22  C   UNL     1      -1.034  -0.117   1.143  0.00  0.00    +0.014 C 
ATOM     23  O   UNL     1       1.009  -1.558   1.187  0.00  0.00    -0.364 OA
ATOM     24  C   UNL     1      -3.385  -2.363  -2.648  0.00  0.00    +0.012 C 
ENDROOT
BRANCH   1  26
ATOM     25  C   UNL     1      -5.333  -3.505   1.872  0.00  0.00    +0.086 C 
ATOM     26  C   UNL     1      -4.329  -2.810   0.990  0.00  0.00    +0.137 C 
ATOM     27  O   UNL     1      -3.640  -1.927   1.439  0.00  0.00    -0.297 OA
ENDBRANCH   1  26
BRANCH  20  28
ATOM     28  O   UNL     1       3.126   2.713   1.159  0.00  0.00    -0.461 OA
BRANCH  28  29
ATOM     29  C   UNL     1       3.054   3.700   2.066  0.00  0.00    +0.304 C 
ATOM     30  O   UNL     1       2.040   3.864   2.702  0.00  0.00    -0.251 OA
ATOM     31  C   UNL     1       4.239   4.604   2.291  0.00  0.00    +0.136 C 
ENDBRANCH  28  29
ENDBRANCH  20  28
TORSDOF 3
