REMARK  Name = ZINC39888170
REMARK  7 active torsions:
REMARK  status: ('A' for Active; 'I' for Inactive)
REMARK    1  A    between atoms: C_3  and  C_10
REMARK    2  A    between atoms: C_5  and  N_7
REMARK    3  A    between atoms: C_10  and  C_11
REMARK    4  A    between atoms: N_17  and  N_18
REMARK    5  A    between atoms: C_19  and  C_20
REMARK    6  A    between atoms: C_23  and  C_25
REMARK    7  A    between atoms: C_29  and  C_31
REMARK                            x       y       z     vdW  Elec       q    Type
REMARK                         _______ _______ _______ _____ _____    ______ ____
ROOT
ATOM      1  C   UNL     1       4.124   2.436   1.417  0.00  0.00    +0.144 C 
ATOM      2  C   UNL     1       5.445   3.188   1.455  0.00  0.00    +0.232 C 
ATOM      3  O   UNL     1       6.465   2.724   0.991  0.00  0.00    -0.274 OA
ATOM      4  N   UNL     1       5.412   4.381   2.025  0.00  0.00    -0.263 N 
ATOM      5  C   UNL     1       4.257   4.916   2.555  0.00  0.00    +0.183 C 
ATOM      6  N   UNL     1       4.098   6.083   3.144  0.00  0.00    -0.127 NA
ATOM      7  S   UNL     1       3.027   3.653   2.256  0.00  0.00    -0.075 S 
ATOM      8  H   UNL     1       6.231   4.898   2.073  0.00  0.00    +0.157 HD
ENDROOT
BRANCH   6   9
ATOM      9  N   UNL     1       5.103   6.880   3.279  0.00  0.00    -0.152 NA
ATOM     10  C   UNL     1       4.944   8.041   3.865  0.00  0.00    +0.181 C 
BRANCH  10  11
ATOM     11  C   UNL     1       6.048   8.917   4.013  0.00  0.00    +0.148 A 
ATOM     12  C   UNL     1       6.022  10.160   4.612  0.00  0.00    +0.051 A 
ATOM     13  C   UNL     1       7.324  10.671   4.539  0.00  0.00    +0.050 A 
ATOM     14  C   UNL     1       8.087   9.735   3.906  0.00  0.00    +0.136 A 
ATOM     15  O   UNL     1       7.309   8.679   3.599  0.00  0.00    -0.454 OA
BRANCH  14  16
ATOM     16  C   UNL     1       9.528   9.856   3.613  0.00  0.00    +0.018 A 
ATOM     17  C   UNL     1      10.229  11.003   3.996  0.00  0.00    +0.011 A 
ATOM     18  C   UNL     1      11.575  11.109   3.718  0.00  0.00    +0.001 A 
ATOM     19  C   UNL     1      12.233  10.083   3.062  0.00  0.00    +0.012 A 
ATOM     20  C   UNL     1      11.546   8.945   2.680  0.00  0.00    +0.055 A 
ATOM     21  C   UNL     1      10.200   8.822   2.957  0.00  0.00    +0.024 A 
BRANCH  20  22
ATOM     22  C   UNL     1      12.271   7.833   1.966  0.00  0.00    +0.417 C 
ATOM     23  F   UNL     1      13.617   8.182   1.805  0.00  0.00    -0.166 F 
ATOM     24  F   UNL     1      12.181   6.658   2.719  0.00  0.00    -0.166 F 
ATOM     25  F   UNL     1      11.690   7.628   0.710  0.00  0.00    -0.166 F 
ENDBRANCH  20  22
ENDBRANCH  14  16
ENDBRANCH  10  11
ENDBRANCH   6   9
BRANCH   1  26
ATOM     26  C   UNL     1       3.672   2.182  -0.022  0.00  0.00    +0.059 C 
BRANCH  26  29
ATOM     27  C   UNL     1      -0.017   1.378   0.010  0.00  0.00    +0.002 A 
ATOM     28  C   UNL     1       1.171   2.085   0.002  0.00  0.00    +0.004 A 
ATOM     29  C   UNL     1       2.377   1.411  -0.013  0.00  0.00    -0.044 A 
ATOM     30  C   UNL     1       2.396   0.028  -0.020  0.00  0.00    +0.036 A 
ATOM     31  C   UNL     1       1.209  -0.679  -0.012  0.00  0.00    +0.126 A 
ATOM     32  C   UNL     1       0.002  -0.004   0.002  0.00  0.00    +0.033 A 
BRANCH  31  33
ATOM     33  N   UNL     1       1.229  -2.159  -0.020  0.00  0.00    +0.056 N 
ATOM     34  O   UNL     1       2.284  -2.749  -0.035  0.00  0.00    -0.126 OA
ATOM     35  O   UNL     1       0.190  -2.778  -0.013  0.00  0.00    -0.126 OA
ENDBRANCH  31  33
ENDBRANCH  26  29
ENDBRANCH   1  26
TORSDOF 7
