REMARK  Name = ZINC38635989
REMARK  10 active torsions:
REMARK  status: ('A' for Active; 'I' for Inactive)
REMARK    1  A    between atoms: C_1  and  N_2
REMARK    2  A    between atoms: N_2  and  C_3
REMARK    3  A    between atoms: N_2  and  C_4
REMARK    4  A    between atoms: C_7  and  C_10
REMARK    5  A    between atoms: C_10  and  C_12
REMARK    6  A    between atoms: C_10  and  N_30
REMARK    7  A    between atoms: C_12  and  N_13
REMARK    8  A    between atoms: C_14  and  C_16
REMARK    9  A    between atoms: C_19  and  S_22
REMARK   10  A    between atoms: S_22  and  N_25
REMARK                            x       y       z     vdW  Elec       q    Type
REMARK                         _______ _______ _______ _____ _____    ______ ____
ROOT
ATOM      1  N   UNL     1       2.265  -3.663  -4.550  0.00  0.00    -0.313 N 
ATOM      2  C   UNL     1       3.576  -3.835  -4.812  0.00  0.00    +0.244 C 
ATOM      3  O   UNL     1       4.046  -3.427  -5.856  0.00  0.00    -0.270 OA
ATOM      4  H   UNL     1       1.891  -3.989  -3.716  0.00  0.00    +0.149 HD
ENDROOT
BRANCH   2   5
ATOM      5  C   UNL     1       4.443  -4.520  -3.829  0.00  0.00    +0.037 A 
ATOM      6  C   UNL     1       3.906  -4.995  -2.632  0.00  0.00    +0.015 A 
ATOM      7  C   UNL     1       4.720  -5.634  -1.720  0.00  0.00    +0.029 A 
ATOM      8  C   UNL     1       6.066  -5.804  -1.990  0.00  0.00    +0.106 A 
ATOM      9  C   UNL     1       6.605  -5.335  -3.175  0.00  0.00    +0.029 A 
ATOM     10  C   UNL     1       5.801  -4.700  -4.098  0.00  0.00    +0.015 A 
BRANCH   8  11
ATOM     11  S   UNL     1       7.099  -6.620  -0.819  0.00  0.00    +0.061 S 
ATOM     12  O   UNL     1       8.425  -6.171  -1.063  0.00  0.00    -0.153 OA
ATOM     13  O   UNL     1       6.468  -6.480   0.447  0.00  0.00    -0.153 OA
BRANCH  11  14
ATOM     14  N   UNL     1       7.072  -8.235  -1.184  0.00  0.00    -0.177 NA
ATOM     15  C   UNL     1       6.116  -9.218  -0.654  0.00  0.00    +0.109 C 
ATOM     16  C   UNL     1       6.492 -10.591  -1.250  0.00  0.00    +0.018 C 
ATOM     17  C   UNL     1       7.983 -10.405  -1.638  0.00  0.00    +0.018 C 
ATOM     18  C   UNL     1       8.000  -8.924  -2.100  0.00  0.00    +0.109 C 
ENDBRANCH  11  14
ENDBRANCH   8  11
ENDBRANCH   2   5
BRANCH   1  19
ATOM     19  C   UNL     1       1.407  -2.984  -5.523  0.00  0.00    +0.094 C 
BRANCH  19  20
ATOM     20  C   UNL     1       0.008  -2.801  -4.930  0.00  0.00    -0.020 C 
BRANCH  20  24
ATOM     21  C   UNL     1       0.216  -0.140  -1.592  0.00  0.00    +0.029 A 
ATOM     22  C   UNL     1       0.162  -1.512  -1.385  0.00  0.00    +0.023 A 
ATOM     23  C   UNL     1       0.095  -2.369  -2.466  0.00  0.00    +0.004 A 
ATOM     24  C   UNL     1       0.081  -1.863  -3.753  0.00  0.00    -0.059 A 
ATOM     25  C   UNL     1       0.134  -0.497  -3.962  0.00  0.00    +0.004 A 
ATOM     26  C   UNL     1       0.196   0.366  -2.886  0.00  0.00    +0.023 A 
BRANCH  21  28
ATOM     27  C   UNL     1       0.334   2.178  -0.721  0.00  0.00    +0.129 C 
ATOM     28  N   UNL     1       0.284   0.730  -0.501  0.00  0.00    -0.336 N 
ATOM     29  C   UNL     1       0.304   0.195   0.862  0.00  0.00    +0.129 C 
ENDBRANCH  21  28
ENDBRANCH  20  24
BRANCH  20  30
ATOM     30  N   UNL     1      -0.887  -2.239  -5.950  0.00  0.00    +0.385 N 
ATOM     31  C   UNL     1      -1.031  -3.188  -7.083  0.00  0.00    -0.078 C 
ATOM     32  C   UNL     1      -2.363  -2.751  -7.744  0.00  0.00    -0.020 C 
ATOM     33  C   UNL     1      -3.241  -2.367  -6.531  0.00  0.00    -0.020 C 
ATOM     34  C   UNL     1      -2.247  -2.065  -5.394  0.00  0.00    -0.078 C 
ATOM     35  H   UNL     1      -0.529  -1.355  -6.278  0.00  0.00    -0.081 HD
ENDBRANCH  20  30
ENDBRANCH  19  20
ENDBRANCH   1  19
TORSDOF 8
