REMARK  Name = ZINC64131586
REMARK  9 active torsions:
REMARK  status: ('A' for Active; 'I' for Inactive)
REMARK    1  A    between atoms: C_1  and  C_2
REMARK    2  A    between atoms: C_7  and  C_8
REMARK    3  A    between atoms: C_8  and  N_9
REMARK    4  A    between atoms: C_11  and  N_20
REMARK    5  A    between atoms: C_14  and  C_16
REMARK    6  A    between atoms: C_16  and  O_18
REMARK    7  A    between atoms: O_18  and  C_19
REMARK    8  A    between atoms: C_21  and  C_23
REMARK    9  A    between atoms: C_25  and  C_34
REMARK                            x       y       z     vdW  Elec       q    Type
REMARK                         _______ _______ _______ _____ _____    ______ ____
ROOT
ATOM      1  N   UNL     1      -3.532   3.273   1.780  0.00  0.00    -0.309 N 
ATOM      2  C   UNL     1      -4.522   3.321   0.867  0.00  0.00    +0.240 C 
ATOM      3  O   UNL     1      -5.120   2.309   0.568  0.00  0.00    -0.273 OA
ATOM      4  H   UNL     1      -3.007   4.067   1.969  0.00  0.00    +0.149 HD
ENDROOT
BRANCH   2   5
ATOM      5  C   UNL     1      -4.885   4.631   0.217  0.00  0.00    +0.198 C 
ATOM      6  C   UNL     1      -5.746   5.454   1.149  0.00  0.00    -0.000 C 
ATOM      7  C   UNL     1      -6.946   5.640   0.483  0.00  0.00    +0.006 A 
ATOM      8  C   UNL     1      -8.139   6.319   0.833  0.00  0.00    +0.030 A 
ATOM      9  C   UNL     1      -9.180   6.339  -0.035  0.00  0.00    +0.042 A 
ATOM     10  C   UNL     1      -9.110   5.701  -1.280  0.00  0.00    +0.022 A 
ATOM     11  C   UNL     1      -8.003   5.034  -1.682  0.00  0.00    +0.027 A 
ATOM     12  C   UNL     1      -6.869   4.967  -0.827  0.00  0.00    +0.044 A 
ATOM     13  N   UNL     1      -5.695   4.393  -0.981  0.00  0.00    -0.370 N 
ATOM     14 CL   UNL     1     -10.635   7.175   0.408  0.00  0.00    -0.084 Cl
ATOM     15  H   UNL     1      -5.412   3.891  -1.762  0.00  0.00    +0.161 HD
BRANCH   6  16
ATOM     16  C   UNL     1      -5.387   5.949   2.479  0.00  0.00    -0.019 A 
ATOM     17  C   UNL     1      -6.353   6.011   3.494  0.00  0.00    +0.008 A 
ATOM     18  C   UNL     1      -6.005   6.478   4.742  0.00  0.00    +0.001 A 
ATOM     19  C   UNL     1      -4.706   6.886   4.997  0.00  0.00    +0.000 A 
ATOM     20  C   UNL     1      -3.745   6.829   4.001  0.00  0.00    +0.001 A 
ATOM     21  C   UNL     1      -4.073   6.359   2.748  0.00  0.00    +0.008 A 
ENDBRANCH   6  16
ENDBRANCH   2   5
BRANCH   1  24
ATOM     22  N   UNL     1      -1.614   0.278   2.689  0.00  0.00    -0.284 NA
ATOM     23  C   UNL     1      -2.272   1.135   1.679  0.00  0.00    +0.107 C 
ATOM     24  C   UNL     1      -3.249   2.022   2.489  0.00  0.00    +0.089 C 
ATOM     25  C   UNL     1      -2.433   2.288   3.782  0.00  0.00    +0.054 C 
ATOM     26  C   UNL     1      -1.678   0.959   3.995  0.00  0.00    +0.168 C 
BRANCH  26  27
ATOM     27  C   UNL     1      -2.422   0.100   4.985  0.00  0.00    +0.324 C 
ATOM     28  O   UNL     1      -2.859  -0.974   4.645  0.00  0.00    -0.249 OA
BRANCH  27  29
ATOM     29  O   UNL     1      -2.599   0.528   6.245  0.00  0.00    -0.467 OA
ATOM     30  C   UNL     1      -3.314  -0.338   7.130  0.00  0.00    +0.280 C 
ENDBRANCH  27  29
ENDBRANCH  26  27
BRANCH  22  31
ATOM     31  C   UNL     1      -0.223  -0.008   2.312  0.00  0.00    +0.120 C 
BRANCH  31  38
ATOM     32  C   UNL     1      -0.771  -2.841   2.453  0.00  0.00    +0.044 C 
ATOM     33  C   UNL     1      -0.466  -2.198   1.125  0.00  0.00    -0.046 A 
ATOM     34  C   UNL     1      -0.455  -2.962  -0.027  0.00  0.00    +0.003 A 
ATOM     35  C   UNL     1      -0.175  -2.372  -1.246  0.00  0.00    +0.000 A 
ATOM     36  C   UNL     1       0.092  -1.017  -1.312  0.00  0.00    +0.000 A 
ATOM     37  C   UNL     1       0.079  -0.253  -0.161  0.00  0.00    +0.005 A 
ATOM     38  C   UNL     1      -0.204  -0.842   1.057  0.00  0.00    -0.030 A 
ENDBRANCH  31  38
ENDBRANCH  22  31
ENDBRANCH   1  24
TORSDOF 7
