REMARK  Name = ZINC01456675
REMARK  11 active torsions:
REMARK  status: ('A' for Active; 'I' for Inactive)
REMARK    1  A    between atoms: C_1  and  C_2
REMARK    2  A    between atoms: C_2  and  O_3
REMARK    3  A    between atoms: O_3  and  C_4
REMARK    4  A    between atoms: C_4  and  C_6
REMARK    5  A    between atoms: C_7  and  C_35
REMARK    6  A    between atoms: C_11  and  C_13
REMARK    7  A    between atoms: C_15  and  C_21
REMARK    8  A    between atoms: C_16  and  C_20
REMARK    9  A    between atoms: C_18  and  C_19
REMARK   10  A    between atoms: C_21  and  O_22
REMARK   11  A    between atoms: O_22  and  C_23
REMARK                            x       y       z     vdW  Elec       q    Type
REMARK                         _______ _______ _______ _____ _____    ______ ____
ROOT
ATOM      1  C   UNL     1      -3.995   0.834   0.120  0.00  0.00    +0.065 C 
ATOM      2  C   UNL     1      -5.241   1.318   0.256  0.00  0.00    +0.016 C 
ATOM      3  N   UNL     1      -5.472   2.664   0.192  0.00  0.00    -0.321 N 
ATOM      4  C   UNL     1      -4.559   3.501  -0.392  0.00  0.00    +0.015 C 
ATOM      5  C   UNL     1      -3.276   3.110  -0.553  0.00  0.00    +0.024 C 
ATOM      6  C   UNL     1      -2.823   1.747  -0.094  0.00  0.00    +0.092 C 
ATOM      7  C   UNL     1      -2.329   3.959  -1.151  0.00  0.00    +0.162 C 
ATOM      8  O   UNL     1      -1.186   3.571  -1.294  0.00  0.00    -0.292 OA
ATOM      9  C   UNL     1      -2.704   5.340  -1.614  0.00  0.00    +0.080 C 
ATOM     10  C   UNL     1      -3.862   5.857  -0.754  0.00  0.00    +0.014 C 
ATOM     11  C   UNL     1      -5.020   4.862  -0.851  0.00  0.00    +0.051 C 
ATOM     12  C   UNL     1      -6.392   0.371   0.479  0.00  0.00    +0.061 C 
ATOM     13  H   UNL     1      -6.397   3.084   0.612  0.00  0.00    +0.152 HD
ENDROOT
BRANCH   6  14
ATOM     14  C   UNL     1      -2.063   1.888   1.199  0.00  0.00    -0.032 A 
ATOM     15  C   UNL     1      -2.690   2.406   2.317  0.00  0.00    +0.012 A 
ATOM     16  C   UNL     1      -1.991   2.541   3.502  0.00  0.00    -0.007 A 
ATOM     17  C   UNL     1      -0.665   2.152   3.570  0.00  0.00    -0.044 A 
ATOM     18  C   UNL     1      -0.040   1.630   2.454  0.00  0.00    +0.007 A 
ATOM     19  C   UNL     1      -0.739   1.496   1.269  0.00  0.00    -0.046 A 
ATOM     20  C   UNL     1      -0.057   0.926   0.051  0.00  0.00    +0.044 C 
ATOM     21  C   UNL     1       0.097   2.299   4.862  0.00  0.00    +0.044 C 
BRANCH  16  22
ATOM     22  C   UNL     1      -2.673   3.110   4.719  0.00  0.00    +0.264 C 
BRANCH  22  23
ATOM     23  O   UNL     1      -4.028   3.433   4.398  0.00  0.00    -0.487 OA
BRANCH  23  24
ATOM     24  C   UNL     1      -4.788   3.960   5.394  0.00  0.00    +0.121 A 
ATOM     25  C   UNL     1      -4.243   4.158   6.654  0.00  0.00    +0.048 A 
ATOM     26  C   UNL     1      -5.016   4.699   7.663  0.00  0.00    +0.042 A 
ATOM     27  C   UNL     1      -6.337   5.035   7.420  0.00  0.00    +0.124 A 
ATOM     28  C   UNL     1      -6.884   4.833   6.164  0.00  0.00    +0.042 A 
ATOM     29  C   UNL     1      -6.112   4.297   5.151  0.00  0.00    +0.048 A 
ATOM     30  F   UNL     1      -7.093   5.559   8.409  0.00  0.00    -0.205 F 
ENDBRANCH  23  24
ENDBRANCH  22  23
ENDBRANCH  16  22
ENDBRANCH   6  14
BRANCH   1  31
ATOM     31  C   UNL     1      -3.783  -0.564   0.181  0.00  0.00    +0.338 C 
ATOM     32  O   UNL     1      -4.724  -1.315   0.355  0.00  0.00    -0.245 OA
BRANCH  31  33
ATOM     33  O   UNL     1      -2.537  -1.064   0.046  0.00  0.00    -0.462 OA
BRANCH  33  35
ATOM     34  C   UNL     1      -0.924  -2.861  -0.055  0.00  0.00    +0.048 C 
ATOM     35  C   UNL     1      -2.397  -2.484   0.118  0.00  0.00    +0.229 C 
ENDBRANCH  33  35
ENDBRANCH  31  33
ENDBRANCH   1  31
TORSDOF 7
