REMARK  Name = ZINC39879235
REMARK  6 active torsions:
REMARK  status: ('A' for Active; 'I' for Inactive)
REMARK    1  A    between atoms: C_1  and  C_2
REMARK    2  A    between atoms: N_15  and  C_27
REMARK    3  A    between atoms: C_16  and  C_18
REMARK    4  A    between atoms: C_21  and  O_26
REMARK    5  A    between atoms: C_22  and  O_24
REMARK    6  A    between atoms: O_24  and  C_25
REMARK                            x       y       z     vdW  Elec       q    Type
REMARK                         _______ _______ _______ _____ _____    ______ ____
ROOT
ATOM      1  C   UNL     1      -0.018   1.503   0.010  0.00  0.00    +0.044 C 
ATOM      2  C   UNL     1       0.002  -0.004   0.002  0.00  0.00    -0.050 A 
ATOM      3  C   UNL     1       0.006  -0.689  -1.205  0.00  0.00    +0.007 A 
ATOM      4  C   UNL     1       0.021  -2.065  -1.235  0.00  0.00    +0.047 A 
ATOM      5  C   UNL     1       0.034  -2.790  -0.043  0.00  0.00    +0.139 A 
ATOM      6  C   UNL     1       0.037  -2.086   1.172  0.00  0.00    +0.065 A 
ATOM      7  C   UNL     1       0.023  -0.692   1.183  0.00  0.00    +0.018 A 
ATOM      8  C   UNL     1       0.067  -2.849   2.446  0.00  0.00    +0.199 A 
ATOM      9  O   UNL     1      -0.097  -2.332   3.537  0.00  0.00    -0.287 OA
ATOM     10  C   UNL     1       0.313  -4.283   2.265  0.00  0.00    +0.072 A 
ATOM     11  C   UNL     1       0.293  -4.850   1.023  0.00  0.00    +0.199 A 
ATOM     12  O   UNL     1       0.042  -4.142  -0.096  0.00  0.00    -0.450 OA
ATOM     13  C   UNL     1       0.581  -6.287   1.166  0.00  0.00    +0.287 C 
ATOM     14  O   UNL     1       0.641  -7.080   0.247  0.00  0.00    -0.266 OA
ATOM     15  N   UNL     1       0.768  -6.596   2.465  0.00  0.00    -0.253 N 
ATOM     16  C   UNL     1       0.612  -5.362   3.253  0.00  0.00    +0.150 C 
ENDROOT
BRANCH  15  17
ATOM     17  C   UNL     1       1.059  -7.864   2.975  0.00  0.00    +0.039 A 
ATOM     18  C   UNL     1       1.223  -8.044   4.343  0.00  0.00    +0.023 A 
ATOM     19  C   UNL     1       1.511  -9.299   4.843  0.00  0.00    +0.003 A 
ATOM     20  C   UNL     1       1.636 -10.376   3.985  0.00  0.00    +0.015 A 
ATOM     21  C   UNL     1       1.475 -10.200   2.622  0.00  0.00    +0.020 A 
ATOM     22  C   UNL     1       1.180  -8.948   2.115  0.00  0.00    +0.038 A 
ATOM     23 BR   UNL     1       1.648 -11.676   1.452  0.00  0.00    -0.050 Br
ENDBRANCH  15  17
BRANCH  16  24
ATOM     24  C   UNL     1      -0.529  -5.508   4.227  0.00  0.00    -0.018 A 
ATOM     25  C   UNL     1      -1.670  -6.193   3.854  0.00  0.00    +0.009 A 
ATOM     26  C   UNL     1      -2.720  -6.330   4.743  0.00  0.00    +0.049 A 
ATOM     27  C   UNL     1      -2.630  -5.778   6.011  0.00  0.00    +0.158 A 
ATOM     28  C   UNL     1      -1.481  -5.088   6.386  0.00  0.00    +0.162 A 
ATOM     29  C   UNL     1      -0.431  -4.960   5.492  0.00  0.00    +0.055 A 
BRANCH  28  30
ATOM     30  O   UNL     1      -1.388  -4.546   7.630  0.00  0.00    -0.491 OA
ATOM     31  C   UNL     1      -0.180  -3.852   7.946  0.00  0.00    +0.277 C 
ENDBRANCH  28  30
BRANCH  27  32
ATOM     32  O   UNL     1      -3.662  -5.911   6.886  0.00  0.00    -0.503 OA
ATOM     33  H   UNL     1      -3.608  -6.701   7.441  0.00  0.00    +0.292 HD
ENDBRANCH  27  32
ENDBRANCH  16  24
TORSDOF 4
