REMARK  Name = ZINC04289892
REMARK  7 active torsions:
REMARK  status: ('A' for Active; 'I' for Inactive)
REMARK    1  A    between atoms: C_1  and  C_2
REMARK    2  A    between atoms: C_2  and  C_3
REMARK    3  A    between atoms: C_9  and  C_10
REMARK    4  A    between atoms: C_9  and  N_55
REMARK    5  A    between atoms: C_11  and  O_33
REMARK    6  A    between atoms: C_17  and  C_29
REMARK    7  A    between atoms: C_18  and  C_21
REMARK                            x       y       z     vdW  Elec       q    Type
REMARK                         _______ _______ _______ _____ _____    ______ ____
ROOT
ATOM      1  C   UNL     1       1.370   2.726  -1.577  0.00  0.00    +0.020 A 
ATOM      2  C   UNL     1       2.606   2.405  -1.042  0.00  0.00    +0.122 A 
ATOM      3  C   UNL     1       3.762   2.511  -1.812  0.00  0.00    +0.046 A 
ATOM      4  C   UNL     1       3.690   2.934  -3.109  0.00  0.00    +0.019 A 
ATOM      5  C   UNL     1       2.452   3.262  -3.662  0.00  0.00    +0.065 A 
ATOM      6  C   UNL     1       1.278   3.153  -2.895  0.00  0.00    +0.144 A 
ATOM      7  O   UNL     1       0.084   3.476  -3.429  0.00  0.00    -0.450 OA
ATOM      8  C   UNL     1      -0.066   3.896  -4.688  0.00  0.00    +0.219 A 
ATOM      9  C   UNL     1       0.981   4.042  -5.540  0.00  0.00    +0.078 A 
ATOM     10  C   UNL     1       2.336   3.723  -5.058  0.00  0.00    +0.201 A 
ATOM     11  O   UNL     1       3.313   3.834  -5.777  0.00  0.00    -0.286 OA
ENDROOT
BRANCH   9  12
ATOM     12  C   UNL     1       0.765   4.513  -6.930  0.00  0.00    +0.008 A 
ATOM     13  C   UNL     1       0.525   3.595  -7.950  0.00  0.00    +0.011 A 
ATOM     14  C   UNL     1       0.325   4.038  -9.242  0.00  0.00    +0.021 A 
ATOM     15  C   UNL     1       0.361   5.393  -9.525  0.00  0.00    +0.042 A 
ATOM     16  C   UNL     1       0.600   6.310  -8.516  0.00  0.00    +0.040 A 
ATOM     17  C   UNL     1       0.796   5.877  -7.219  0.00  0.00    +0.050 A 
ATOM     18 CL   UNL     1       1.089   7.028  -5.952  0.00  0.00    -0.083 Cl
ATOM     19 CL   UNL     1       0.108   5.944 -11.152  0.00  0.00    -0.083 Cl
ENDBRANCH   9  12
BRANCH   8  20
ATOM     20  C   UNL     1      -1.452   4.223  -5.182  0.00  0.00    +0.451 C 
ATOM     21  F   UNL     1      -1.730   3.465  -6.325  0.00  0.00    -0.163 F 
ATOM     22  F   UNL     1      -2.385   3.922  -4.184  0.00  0.00    -0.163 F 
ATOM     23  F   UNL     1      -1.527   5.584  -5.495  0.00  0.00    -0.163 F 
ENDBRANCH   8  20
BRANCH   2  24
ATOM     24  O   UNL     1       2.693   1.983   0.246  0.00  0.00    -0.506 OA
ATOM     25  H   UNL     1       2.616   1.025   0.351  0.00  0.00    +0.292 HD
ENDBRANCH   2  24
BRANCH   1  26
ATOM     26  C   UNL     1       0.128   2.607  -0.733  0.00  0.00    -0.035 C 
BRANCH  26  32
ATOM     27  C   UNL     1      -1.139   3.670   1.035  0.00  0.00    -0.068 C 
ATOM     28  C   UNL     1      -1.168   4.871   1.983  0.00  0.00    -0.015 C 
ATOM     29  C   UNL     1      -1.314   6.157   1.165  0.00  0.00    -0.003 C 
ATOM     30  C   UNL     1      -0.157   6.253   0.167  0.00  0.00    -0.019 C 
ATOM     31  C   UNL     1      -0.158   5.011  -0.728  0.00  0.00    -0.078 C 
ATOM     32  N   UNL     1       0.011   3.810   0.117  0.00  0.00    +0.384 N 
ATOM     33  H   UNL     1       0.869   3.911   0.672  0.00  0.00    -0.081 HD
BRANCH  27  35
ATOM     34  C   UNL     1      -2.165   2.218   2.791  0.00  0.00    +0.002 C 
ATOM     35  C   UNL     1      -0.972   2.384   1.848  0.00  0.00    -0.019 C 
ENDBRANCH  27  35
ENDBRANCH  26  32
ENDBRANCH   1  26
TORSDOF 6
