REMARK  Name = ZINC13729580
REMARK  11 active torsions:
REMARK  status: ('A' for Active; 'I' for Inactive)
REMARK    1  A    between atoms: C_1  and  C_2
REMARK    2  A    between atoms: C_2  and  O_3
REMARK    3  A    between atoms: O_3  and  C_4
REMARK    4  A    between atoms: C_6  and  C_22
REMARK    5  A    between atoms: C_9  and  O_10
REMARK    6  A    between atoms: O_10  and  C_11
REMARK    7  A    between atoms: N_15  and  C_16
REMARK    8  A    between atoms: C_22  and  N_69
REMARK    9  A    between atoms: C_23  and  C_25
REMARK   10  A    between atoms: C_23  and  C_26
REMARK   11  A    between atoms: C_23  and  N_69
REMARK                            x       y       z     vdW  Elec       q    Type
REMARK                         _______ _______ _______ _____ _____    ______ ____
ROOT
ATOM      1  C   UNL     1       0.010   1.379  -0.225  0.00  0.00    +0.163 A 
ATOM      2  C   UNL     1       0.026  -0.006  -0.199  0.00  0.00    +0.051 A 
ATOM      3  C   UNL     1       1.201  -0.678   0.082  0.00  0.00    -0.061 A 
ATOM      4  C   UNL     1       2.361   0.028   0.339  0.00  0.00    +0.005 A 
ATOM      5  C   UNL     1       2.352   1.410   0.315  0.00  0.00    +0.050 A 
ATOM      6  C   UNL     1       1.178   2.091   0.034  0.00  0.00    +0.173 A 
ENDROOT
BRANCH   1   7
ATOM      7  O   UNL     1      -1.143   2.042  -0.508  0.00  0.00    -0.489 OA
BRANCH   7   9
ATOM      8  C   UNL     1      -3.492   2.162  -1.065  0.00  0.00    +0.048 C 
ATOM      9  C   UNL     1      -2.301   1.247  -0.769  0.00  0.00    +0.226 C 
ENDBRANCH   7   9
ENDBRANCH   1   7
BRANCH   6  10
ATOM     10  O   UNL     1       1.168   3.450   0.009  0.00  0.00    -0.419 OA
BRANCH  10  11
ATOM     11  C   UNL     1       2.354   4.097   0.104  0.00  0.00    +0.347 A 
ATOM     12  N   UNL     1       3.546   3.545   0.107  0.00  0.00    -0.070 NA
ATOM     13  N   UNL     1       4.458   4.443   0.209  0.00  0.00    -0.019 NA
ATOM     14  N   UNL     1       3.927   5.615   0.287  0.00  0.00    -0.036 NA
ATOM     15  N   UNL     1       2.534   5.435   0.222  0.00  0.00    -0.162 N 
BRANCH  15  16
ATOM     16  C   UNL     1       1.544   6.427   0.267  0.00  0.00    +0.072 A 
ATOM     17  C   UNL     1       0.384   6.287  -0.483  0.00  0.00    +0.028 A 
ATOM     18  C   UNL     1      -0.592   7.264  -0.432  0.00  0.00    +0.002 A 
ATOM     19  C   UNL     1      -0.409   8.384   0.357  0.00  0.00    +0.000 A 
ATOM     20  C   UNL     1       0.747   8.528   1.102  0.00  0.00    +0.002 A 
ATOM     21  C   UNL     1       1.724   7.553   1.059  0.00  0.00    +0.028 A 
ENDBRANCH  15  16
ENDBRANCH  10  11
ENDBRANCH   6  10
BRANCH   3  22
ATOM     22  C   UNL     1       1.216  -2.185   0.109  0.00  0.00    -0.046 C 
BRANCH  22  23
ATOM     23  N   UNL     1       1.535  -2.689  -1.240  0.00  0.00    +0.384 N 
ATOM     24  H   UNL     1       2.456  -2.336  -1.525  0.00  0.00    -0.085 HD
ATOM     25  H   UNL     1       0.823  -2.359  -1.902  0.00  0.00    -0.085 HD
BRANCH  23  26
ATOM     26  C   UNL     1       1.558  -4.164  -1.244  0.00  0.00    -0.068 C 
ATOM     27  C   UNL     1       2.938  -4.655  -0.802  0.00  0.00    -0.013 C 
BRANCH  26  28
ATOM     28  C   UNL     1       1.266  -4.667  -2.659  0.00  0.00    -0.041 C 
ATOM     29  C   UNL     1       2.329  -4.131  -3.620  0.00  0.00    +0.009 C 
ATOM     30  C   UNL     1       2.038  -4.635  -5.035  0.00  0.00    -0.010 C 
ATOM     31  C   UNL     1       2.063  -6.164  -5.048  0.00  0.00    +0.007 C 
ATOM     32  C   UNL     1       0.999  -6.700  -4.087  0.00  0.00    -0.010 C 
ATOM     33  C   UNL     1       1.291  -6.197  -2.672  0.00  0.00    +0.009 C 
ATOM     34  C   UNL     1      -0.381  -6.209  -4.528  0.00  0.00    +0.007 C 
ATOM     35  C   UNL     1      -0.406  -4.679  -4.516  0.00  0.00    -0.010 C 
ATOM     36  C   UNL     1       0.657  -4.144  -5.477  0.00  0.00    +0.007 C 
ATOM     37  C   UNL     1      -0.114  -4.176  -3.100  0.00  0.00    +0.009 C 
ENDBRANCH  26  28
ENDBRANCH  23  26
ENDBRANCH  22  23
ENDBRANCH   3  22
TORSDOF 9
