REMARK  Name = ZINC34714086
REMARK  6 active torsions:
REMARK  status: ('A' for Active; 'I' for Inactive)
REMARK    1  A    between atoms: C_1  and  C_2
REMARK    2  A    between atoms: C_5  and  S_8
REMARK    3  A    between atoms: S_8  and  O_11
REMARK    4  A    between atoms: O_11  and  C_12
REMARK    5  A    between atoms: C_15  and  C_36
REMARK    6  A    between atoms: C_25  and  C_35
REMARK                            x       y       z     vdW  Elec       q    Type
REMARK                         _______ _______ _______ _____ _____    ______ ____
ROOT
ATOM      1  C   UNL     1       2.418  -4.811   1.084  0.00  0.00    +0.154 C 
ATOM      2  C   UNL     1       3.284  -3.552   1.054  0.00  0.00    +0.041 C 
ATOM      3  C   UNL     1       4.344  -3.639  -0.019  0.00  0.00    -0.027 C 
ATOM      4  C   UNL     1       3.748  -3.693  -1.438  0.00  0.00    +0.007 C 
ATOM      5  C   UNL     1       4.915  -4.230  -2.298  0.00  0.00    +0.001 C 
ATOM      6  C   UNL     1       5.855  -4.986  -1.340  0.00  0.00    +0.004 C 
ATOM      7  C   UNL     1       5.193  -4.919   0.062  0.00  0.00    -0.001 C 
ATOM      8  C   UNL     1       4.301  -6.158   0.183  0.00  0.00    -0.001 C 
ATOM      9  C   UNL     1       3.326  -6.018   1.350  0.00  0.00    +0.030 C 
ATOM     10  C   UNL     1       2.462  -7.276   1.454  0.00  0.00    -0.023 C 
ATOM     11  C   UNL     1       1.468  -7.128   2.606  0.00  0.00    +0.015 C 
ATOM     12  C   UNL     1       2.230  -6.867   3.910  0.00  0.00    +0.075 C 
ATOM     13  C   UNL     1       3.247  -7.971   4.099  0.00  0.00    +0.134 C 
ATOM     14  O   UNL     1       3.307  -8.587   5.136  0.00  0.00    -0.297 OA
ATOM     15  C   UNL     1       4.186  -8.283   2.957  0.00  0.00    +0.078 C 
ATOM     16  C   UNL     1       3.357  -8.494   1.684  0.00  0.00    +0.002 C 
ATOM     17  C   UNL     1       4.308  -8.643   0.491  0.00  0.00    +0.005 C 
ATOM     18  C   UNL     1       5.184  -7.391   0.389  0.00  0.00    +0.004 C 
ATOM     19  C   UNL     1       1.681  -7.461   0.152  0.00  0.00    +0.012 C 
ATOM     20  C   UNL     1       5.262  -2.418   0.080  0.00  0.00    +0.011 C 
ENDROOT
BRANCH   1  21
ATOM     21  O   UNL     1       1.760  -4.972  -0.174  0.00  0.00    -0.231 OA
BRANCH  21  22
ATOM     22  S   UNL     1       0.347  -4.407  -0.211  0.00  0.00    +0.112 S 
ATOM     23  O   UNL     1      -0.242  -4.703   1.048  0.00  0.00    -0.142 OA
ATOM     24  O   UNL     1      -0.228  -4.830  -1.440  0.00  0.00    -0.142 OA
BRANCH  22  29
ATOM     25  C   UNL     1       0.834   1.600  -0.515  0.00  0.00    +0.044 C 
ATOM     26  C   UNL     1       0.712   0.099  -0.439  0.00  0.00    -0.050 A 
ATOM     27  C   UNL     1       0.664  -0.650  -1.600  0.00  0.00    +0.005 A 
ATOM     28  C   UNL     1       0.553  -2.026  -1.530  0.00  0.00    +0.030 A 
ATOM     29  C   UNL     1       0.490  -2.653  -0.300  0.00  0.00    +0.117 A 
ATOM     30  C   UNL     1       0.539  -1.904   0.861  0.00  0.00    +0.030 A 
ATOM     31  C   UNL     1       0.655  -0.528   0.791  0.00  0.00    +0.005 A 
ENDBRANCH  22  29
ENDBRANCH  21  22
ENDBRANCH   1  21
TORSDOF 3
