REMARK  Name = ZINC45922645
REMARK  6 active torsions:
REMARK  status: ('A' for Active; 'I' for Inactive)
REMARK    1  A    between atoms: C_1  and  C_2
REMARK    2  A    between atoms: C_2  and  C_3
REMARK    3  A    between atoms: C_6  and  N_9
REMARK    4  A    between atoms: N_14  and  C_15
REMARK    5  A    between atoms: C_15  and  C_16
REMARK    6  A    between atoms: N_18  and  C_19
REMARK                            x       y       z     vdW  Elec       q    Type
REMARK                         _______ _______ _______ _____ _____    ______ ____
ROOT
ATOM      1  N   UNL     1       2.809  -1.947  -4.875  0.00  0.00    -0.214 N 
ATOM      2  C   UNL     1       2.311  -2.251  -6.093  0.00  0.00    +0.279 A 
ATOM      3  O   UNL     1       1.132  -2.299  -6.396  0.00  0.00    -0.265 OA
ATOM      4  C   UNL     1       3.390  -2.501  -6.944  0.00  0.00    +0.085 A 
ATOM      5  C   UNL     1       4.546  -2.344  -6.227  0.00  0.00    +0.226 A 
ATOM      6  N   UNL     1       4.209  -1.998  -4.953  0.00  0.00    -0.236 N 
ATOM      7  O   UNL     1       5.768  -2.513  -6.769  0.00  0.00    -0.438 OA
ATOM      8  C   UNL     1       5.871  -2.543  -8.126  0.00  0.00    +0.134 A 
ATOM      9  C   UNL     1       7.138  -2.395  -8.685  0.00  0.00    +0.048 A 
ATOM     10  C   UNL     1       7.302  -2.417 -10.054  0.00  0.00    +0.023 A 
ATOM     11  C   UNL     1       6.204  -2.587 -10.879  0.00  0.00    +0.041 A 
ATOM     12  C   UNL     1       4.945  -2.735 -10.328  0.00  0.00    +0.027 A 
ATOM     13  C   UNL     1       4.775  -2.714  -8.953  0.00  0.00    +0.001 A 
ATOM     14  C   UNL     1       3.379  -2.880  -8.401  0.00  0.00    +0.085 C 
ATOM     15 CL   UNL     1       6.407  -2.614 -12.603  0.00  0.00    -0.084 Cl
ENDROOT
BRANCH   1  19
ATOM     16  C   UNL     1       0.579  -1.005  -1.484  0.00  0.00    -0.047 A 
ATOM     17  C   UNL     1       1.597  -1.938  -1.404  0.00  0.00    +0.006 A 
ATOM     18  C   UNL     1       2.338  -2.253  -2.526  0.00  0.00    +0.028 A 
ATOM     19  C   UNL     1       2.060  -1.631  -3.736  0.00  0.00    +0.067 A 
ATOM     20  C   UNL     1       1.037  -0.694  -3.814  0.00  0.00    +0.028 A 
ATOM     21  C   UNL     1       0.296  -0.388  -2.689  0.00  0.00    +0.006 A 
BRANCH  16  23
ATOM     22  C   UNL     1      -1.433  -1.603  -0.164  0.00  0.00    +0.009 C 
ATOM     23  C   UNL     1      -0.228  -0.665  -0.258  0.00  0.00    +0.032 C 
ENDBRANCH  16  23
ENDBRANCH   1  19
BRANCH   6  24
ATOM     24  C   UNL     1       5.144  -1.729  -3.857  0.00  0.00    +0.241 C 
BRANCH  24  25
ATOM     25  C   UNL     1       5.543  -3.029  -3.208  0.00  0.00    +0.239 C 
ATOM     26  O   UNL     1       5.092  -4.076  -3.620  0.00  0.00    -0.273 OA
ATOM     27  N   UNL     1       6.402  -3.027  -2.170  0.00  0.00    -0.282 N 
ATOM     28  H   UNL     1       6.701  -2.186  -1.788  0.00  0.00    +0.155 HD
BRANCH  27  29
ATOM     29  C   UNL     1       6.865  -4.239  -1.641  0.00  0.00    +0.069 A 
ATOM     30  C   UNL     1       6.802  -5.398  -2.401  0.00  0.00    +0.027 A 
ATOM     31  C   UNL     1       7.258  -6.592  -1.878  0.00  0.00    +0.022 A 
ATOM     32  C   UNL     1       7.778  -6.635  -0.596  0.00  0.00    +0.044 A 
ATOM     33  C   UNL     1       7.843  -5.481   0.166  0.00  0.00    +0.060 A 
ATOM     34  C   UNL     1       7.392  -4.282  -0.355  0.00  0.00    +0.146 A 
ATOM     35  F   UNL     1       7.460  -3.155   0.386  0.00  0.00    -0.203 F 
ATOM     36 CL   UNL     1       8.350  -8.138   0.058  0.00  0.00    -0.083 Cl
ENDBRANCH  27  29
ENDBRANCH  24  25
ENDBRANCH   6  24
TORSDOF 5
