REMARK  Name = ZINC20569062
REMARK  6 active torsions:
REMARK  status: ('A' for Active; 'I' for Inactive)
REMARK    1  A    between atoms: C_1  and  C_2
REMARK    2  A    between atoms: C_3  and  C_23
REMARK    3  A    between atoms: N_19  and  C_20
REMARK    4  A    between atoms: C_20  and  C_21
REMARK    5  A    between atoms: C_23  and  O_25
REMARK    6  A    between atoms: O_25  and  C_26
REMARK                            x       y       z     vdW  Elec       q    Type
REMARK                         _______ _______ _______ _____ _____    ______ ____
ROOT
ATOM      1  C   UNL     1       5.619   0.896   1.488  0.00  0.00    +0.061 C 
ATOM      2  C   UNL     1       4.363   0.858   0.655  0.00  0.00    +0.022 C 
ATOM      3  C   UNL     1       3.118   0.812   1.171  0.00  0.00    +0.079 C 
ATOM      4  C   UNL     1       2.186   0.787  -0.013  0.00  0.00    +0.151 C 
ATOM      5  C   UNL     1       1.329  -0.446  -0.013  0.00  0.00    -0.011 A 
ATOM      6  C   UNL     1       1.611  -1.793  -0.025  0.00  0.00    +0.006 A 
ATOM      7  C   UNL     1       0.580  -2.718  -0.020  0.00  0.00    +0.000 A 
ATOM      8  C   UNL     1      -0.736  -2.292  -0.004  0.00  0.00    +0.001 A 
ATOM      9  C   UNL     1      -1.032  -0.946   0.007  0.00  0.00    +0.012 A 
ATOM     10  C   UNL     1       0.002  -0.004   0.002  0.00  0.00    +0.024 A 
ATOM     11  C   UNL     1      -0.018   1.472   0.010  0.00  0.00    +0.162 A 
ATOM     12  C   UNL     1       1.247   1.960   0.001  0.00  0.00    +0.113 A 
ATOM     13  N   UNL     1       1.170   3.300   0.008  0.00  0.00    -0.198 NA
ATOM     14  C   UNL     1      -0.094   3.651   0.022  0.00  0.00    +0.286 A 
ATOM     15  O   UNL     1      -0.851   2.543   0.029  0.00  0.00    -0.424 OA
ATOM     16  N   UNL     1      -0.567   4.946   0.033  0.00  0.00    -0.313 N 
ATOM     17  C   UNL     1       3.102   0.825  -1.210  0.00  0.00    +0.241 C 
ATOM     18  O   UNL     1       2.780   0.821  -2.379  0.00  0.00    -0.273 OA
ATOM     19  N   UNL     1       4.354   0.866  -0.710  0.00  0.00    -0.270 N 
ATOM     20  H   UNL     1      -1.651   5.136   0.044  0.00  0.00    +0.147 HD
ATOM     21  H   UNL     1       0.139   5.790   0.030  0.00  0.00    +0.147 HD
ENDROOT
BRANCH   3  22
ATOM     22  C   UNL     1       2.761   0.791   2.540  0.00  0.00    +0.338 C 
ATOM     23  O   UNL     1       3.627   0.816   3.395  0.00  0.00    -0.245 OA
BRANCH  22  24
ATOM     24  O   UNL     1       1.461   0.744   2.898  0.00  0.00    -0.465 OA
ATOM     25  C   UNL     1       1.174   0.725   4.298  0.00  0.00    +0.280 C 
ENDBRANCH  22  24
ENDBRANCH   3  22
BRANCH  19  26
ATOM     26  C   UNL     1       5.564   0.911  -1.535  0.00  0.00    +0.140 C 
BRANCH  26  27
ATOM     27  C   UNL     1       6.026  -0.493  -1.826  0.00  0.00    -0.015 C 
ATOM     28  C   UNL     1       6.203  -0.881  -3.065  0.00  0.00    +0.005 C 
ENDBRANCH  26  27
ENDBRANCH  19  26
TORSDOF 4
