REMARK  Name = ZINC20518670
REMARK  6 active torsions:
REMARK  status: ('A' for Active; 'I' for Inactive)
REMARK    1  A    between atoms: C_1  and  O_2
REMARK    2  A    between atoms: O_2  and  C_3
REMARK    3  A    between atoms: C_8  and  O_9
REMARK    4  A    between atoms: O_9  and  C_10
REMARK    5  A    between atoms: C_11  and  C_16
REMARK    6  A    between atoms: N_22  and  C_25
REMARK                            x       y       z     vdW  Elec       q    Type
REMARK                         _______ _______ _______ _____ _____    ______ ____
ROOT
ATOM      1  C   UNL     1       1.452   1.233   7.084  0.00  0.00    +0.072 A 
ATOM      2  C   UNL     1       2.246   2.365   6.826  0.00  0.00    +0.258 A 
ATOM      3  O   UNL     1       2.981   2.390   5.854  0.00  0.00    -0.267 OA
ATOM      4  N   UNL     1       2.189   3.421   7.661  0.00  0.00    -0.302 N 
ATOM      5  C   UNL     1       1.380   3.399   8.736  0.00  0.00    +0.168 A 
ATOM      6  S   UNL     1       1.328   4.755   9.780  0.00  0.00    -0.012 S 
ATOM      7  N   UNL     1       0.612   2.327   9.003  0.00  0.00    -0.255 N 
ATOM      8  C   UNL     1       0.635   1.232   8.175  0.00  0.00    +0.265 A 
ATOM      9  O   UNL     1      -0.142   0.160   8.443  0.00  0.00    -0.267 OA
ATOM     10  H   UNL     1       2.811   4.306   7.459  0.00  0.00    +0.171 HD
ENDROOT
BRANCH   1  17
ATOM     11  C   UNL     1      -0.148   1.182   2.380  0.00  0.00    +0.162 A 
ATOM     12  C   UNL     1       0.992   0.399   2.424  0.00  0.00    +0.053 A 
ATOM     13  C   UNL     1       1.538   0.023   3.642  0.00  0.00    -0.044 A 
ATOM     14  C   UNL     1       0.945   0.429   4.818  0.00  0.00    -0.050 A 
ATOM     15  C   UNL     1      -0.197   1.216   4.779  0.00  0.00    +0.052 A 
ATOM     16  C   UNL     1      -0.743   1.599   3.567  0.00  0.00    +0.162 A 
ATOM     17  C   UNL     1       1.500   0.040   6.164  0.00  0.00    +0.001 C 
ATOM     18  N   UNL     1       2.887  -0.416   6.035  0.00  0.00    +0.387 N 
ATOM     19  C   UNL     1       2.983  -1.468   5.010  0.00  0.00    -0.077 C 
ATOM     20  C   UNL     1       2.783  -0.827   3.637  0.00  0.00    +0.016 C 
ATOM     21  H   UNL     1       3.526   0.430   5.743  0.00  0.00    -0.085 HD
ATOM     22  H   UNL     1       3.231  -0.820   6.998  0.00  0.00    -0.085 HD
BRANCH  11  24
ATOM     23  C   UNL     1      -0.013   1.086   0.008  0.00  0.00    +0.277 C 
ATOM     24  O   UNL     1      -0.682   1.547   1.184  0.00  0.00    -0.491 OA
ENDBRANCH  11  24
BRANCH  16  25
ATOM     25  O   UNL     1      -1.860   2.375   3.536  0.00  0.00    -0.491 OA
ATOM     26  C   UNL     1      -2.415   2.764   4.793  0.00  0.00    +0.277 C 
ENDBRANCH  16  25
ENDBRANCH   1  17
BRANCH   7  27
ATOM     27  C   UNL     1      -0.222   2.331  10.129  0.00  0.00    +0.070 A 
ATOM     28  C   UNL     1      -1.523   2.805  10.030  0.00  0.00    +0.028 A 
ATOM     29  C   UNL     1      -2.342   2.808  11.142  0.00  0.00    +0.002 A 
ATOM     30  C   UNL     1      -1.869   2.340  12.354  0.00  0.00    +0.002 A 
ATOM     31  C   UNL     1      -0.574   1.866  12.457  0.00  0.00    +0.022 A 
ATOM     32  C   UNL     1       0.250   1.856  11.347  0.00  0.00    +0.065 A 
ATOM     33 CL   UNL     1       1.874   1.255  11.475  0.00  0.00    -0.081 Cl
ENDBRANCH   7  27
TORSDOF 4
