REMARK  Name = ZINC36576653
REMARK  7 active torsions:
REMARK  status: ('A' for Active; 'I' for Inactive)
REMARK    1  A    between atoms: C_1  and  O_2
REMARK    2  A    between atoms: O_2  and  C_3
REMARK    3  A    between atoms: C_3  and  C_5
REMARK    4  A    between atoms: C_5  and  C_7
REMARK    5  A    between atoms: C_5  and  N_14
REMARK    6  A    between atoms: C_7  and  C_8
REMARK    7  A    between atoms: C_26  and  C_28
REMARK                            x       y       z     vdW  Elec       q    Type
REMARK                         _______ _______ _______ _____ _____    ______ ____
ROOT
ATOM      1  N   UNL     1      -2.725  -2.375  -2.236  0.00  0.00    -0.286 N 
ATOM      2  C   UNL     1      -3.361  -2.673  -1.086  0.00  0.00    +0.304 C 
ATOM      3  O   UNL     1      -2.749  -2.676  -0.036  0.00  0.00    -0.253 OA
ATOM      4  N   UNL     1      -4.677  -2.967  -1.100  0.00  0.00    -0.273 N 
ATOM      5  C   UNL     1      -5.415  -3.176   0.154  0.00  0.00    +0.116 C 
ATOM      6  C   UNL     1      -6.479  -2.080   0.299  0.00  0.00    +0.074 C 
ATOM      7  C   UNL     1      -7.188  -1.914  -1.019  0.00  0.00    +0.040 A 
ATOM      8  C   UNL     1      -6.719  -2.352  -2.208  0.00  0.00    +0.062 A 
ATOM      9  N   UNL     1      -7.607  -2.026  -3.149  0.00  0.00    -0.348 N 
ATOM     10  C   UNL     1      -8.613  -1.403  -2.592  0.00  0.00    +0.171 A 
ATOM     11  N   UNL     1      -8.387  -1.315  -1.261  0.00  0.00    -0.349 N 
ATOM     12  H   UNL     1      -8.969  -0.903  -0.603  0.00  0.00    +0.166 HD
ATOM     13  C   UNL     1      -5.411  -3.080  -2.373  0.00  0.00    +0.157 C 
ATOM     14  H   UNL     1      -3.193  -2.448  -3.082  0.00  0.00    +0.151 HD
ATOM     15  H   UNL     1      -7.520  -2.220  -4.096  0.00  0.00    +0.167 HD
ENDROOT
BRANCH  13  16
ATOM     16  C   UNL     1      -5.673  -4.530  -2.687  0.00  0.00    -0.003 A 
ATOM     17  C   UNL     1      -6.468  -5.287  -1.847  0.00  0.00    +0.009 A 
ATOM     18  C   UNL     1      -6.709  -6.617  -2.135  0.00  0.00    +0.020 A 
ATOM     19  C   UNL     1      -6.153  -7.192  -3.264  0.00  0.00    +0.042 A 
ATOM     20  C   UNL     1      -5.357  -6.436  -4.105  0.00  0.00    +0.040 A 
ATOM     21  C   UNL     1      -5.121  -5.103  -3.819  0.00  0.00    +0.048 A 
ATOM     22 CL   UNL     1      -4.127  -4.151  -4.878  0.00  0.00    -0.083 Cl
ATOM     23 CL   UNL     1      -6.454  -8.864  -3.624  0.00  0.00    -0.083 Cl
ENDBRANCH  13  16
BRANCH   1  24
ATOM     24  C   UNL     1      -1.326  -1.941  -2.208  0.00  0.00    +0.187 C 
BRANCH  24  25
ATOM     25  C   UNL     1      -0.426  -3.149  -2.191  0.00  0.00    +0.328 C 
ATOM     26  O   UNL     1      -0.903  -4.259  -2.202  0.00  0.00    -0.249 OA
BRANCH  25  28
ATOM     27  C   UNL     1       1.700  -4.182  -2.150  0.00  0.00    +0.280 C 
ATOM     28  O   UNL     1       0.907  -2.993  -2.165  0.00  0.00    -0.467 OA
ENDBRANCH  25  28
ENDBRANCH  24  25
BRANCH  24  29
ATOM     29  C   UNL     1      -1.028  -1.100  -3.450  0.00  0.00    +0.069 C 
BRANCH  29  30
ATOM     30  C   UNL     1      -1.839   0.169  -3.405  0.00  0.00    -0.045 A 
ATOM     31  C   UNL     1      -3.104   0.201  -3.963  0.00  0.00    +0.004 A 
ATOM     32  C   UNL     1      -3.848   1.365  -3.922  0.00  0.00    +0.000 A 
ATOM     33  C   UNL     1      -3.329   2.497  -3.321  0.00  0.00    +0.000 A 
ATOM     34  C   UNL     1      -2.065   2.464  -2.761  0.00  0.00    +0.000 A 
ATOM     35  C   UNL     1      -1.322   1.299  -2.800  0.00  0.00    +0.004 A 
ENDBRANCH  29  30
ENDBRANCH  24  29
ENDBRANCH   1  24
TORSDOF 6
