REMARK  Name = ZINC01267833
REMARK  9 active torsions:
REMARK  status: ('A' for Active; 'I' for Inactive)
REMARK    1  A    between atoms: C_1  and  C_2
REMARK    2  A    between atoms: C_5  and  C_8
REMARK    3  A    between atoms: N_17  and  C_19
REMARK    4  A    between atoms: C_19  and  C_20
REMARK    5  A    between atoms: N_22  and  C_23
REMARK    6  A    between atoms: C_23  and  C_24
REMARK    7  A    between atoms: C_26  and  C_31
REMARK    8  A    between atoms: C_29  and  C_30
REMARK    9  A    between atoms: N_40  and  C_42
REMARK                            x       y       z     vdW  Elec       q    Type
REMARK                         _______ _______ _______ _____ _____    ______ ____
ROOT
ATOM      1  C   UNL     1       3.888   2.895  -1.775  0.00  0.00    +0.235 C 
ATOM      2  O   UNL     1       3.388   2.232  -0.892  0.00  0.00    -0.274 OA
ATOM      3  N   UNL     1       5.140   3.373  -1.633  0.00  0.00    -0.310 N 
ATOM      4  H   UNL     1       5.540   3.903  -2.340  0.00  0.00    +0.149 HD
ENDROOT
BRANCH   1   5
ATOM      5  C   UNL     1       3.109   3.186  -3.032  0.00  0.00    +0.243 C 
BRANCH   5  15
ATOM      6  C   UNL     1       0.469   0.636  -3.364  0.00  0.00    +0.099 A 
ATOM      7  C   UNL     1      -0.707   1.315  -2.801  0.00  0.00    +0.015 A 
ATOM      8  C   UNL     1      -1.952   0.691  -2.730  0.00  0.00    +0.011 A 
ATOM      9  C   UNL     1      -3.023   1.369  -2.193  0.00  0.00    +0.001 A 
ATOM     10  C   UNL     1      -2.877   2.667  -1.721  0.00  0.00    +0.001 A 
ATOM     11  C   UNL     1      -1.656   3.301  -1.776  0.00  0.00    +0.014 A 
ATOM     12  C   UNL     1      -0.559   2.635  -2.321  0.00  0.00    +0.050 A 
ATOM     13  C   UNL     1       0.765   3.263  -2.409  0.00  0.00    +0.275 A 
ATOM     14  O   UNL     1       0.939   4.400  -2.008  0.00  0.00    -0.266 OA
ATOM     15  N   UNL     1       1.786   2.562  -2.942  0.00  0.00    -0.219 N 
ATOM     16  N   UNL     1       1.619   1.258  -3.411  0.00  0.00    -0.167 NA
BRANCH   6  21
ATOM     17  C   UNL     1       0.016  -4.745  -5.360  0.00  0.00    +0.044 C 
ATOM     18  C   UNL     1       0.134  -3.337  -4.838  0.00  0.00    -0.050 A 
ATOM     19  C   UNL     1       0.894  -2.408  -5.526  0.00  0.00    +0.004 A 
ATOM     20  C   UNL     1       1.006  -1.117  -5.053  0.00  0.00    +0.010 A 
ATOM     21  C   UNL     1       0.352  -0.749  -3.878  0.00  0.00    +0.003 A 
ATOM     22  C   UNL     1      -0.408  -1.690  -3.185  0.00  0.00    +0.010 A 
ATOM     23  C   UNL     1      -0.517  -2.977  -3.671  0.00  0.00    +0.004 A 
ENDBRANCH   6  21
ENDBRANCH   5  15
ENDBRANCH   1   5
BRANCH   3  24
ATOM     24  C   UNL     1       5.897   3.090  -0.411  0.00  0.00    +0.139 C 
BRANCH  24  25
ATOM     25  C   UNL     1       7.258   3.732  -0.504  0.00  0.00    -0.027 A 
ATOM     26  C   UNL     1       8.356   2.972  -0.850  0.00  0.00    +0.015 A 
ATOM     27  C   UNL     1       9.614   3.568  -0.936  0.00  0.00    +0.003 A 
ATOM     28  C   UNL     1       9.754   4.929  -0.670  0.00  0.00    +0.010 A 
ATOM     29  C   UNL     1       8.648   5.679  -0.324  0.00  0.00    +0.004 A 
ATOM     30  C   UNL     1       7.402   5.083  -0.246  0.00  0.00    -0.046 A 
ATOM     31  C   UNL     1       6.197   5.909   0.126  0.00  0.00    +0.044 C 
BRANCH  27  32
ATOM     32  C   UNL     1      10.797   2.757  -1.308  0.00  0.00    +0.099 A 
ATOM     33  C   UNL     1      12.079   2.965  -0.619  0.00  0.00    +0.015 A 
ATOM     34  C   UNL     1      12.224   3.915   0.391  0.00  0.00    +0.011 A 
ATOM     35  C   UNL     1      13.447   4.071   1.007  0.00  0.00    +0.001 A 
ATOM     36  C   UNL     1      14.534   3.293   0.632  0.00  0.00    +0.001 A 
ATOM     37  C   UNL     1      14.414   2.349  -0.363  0.00  0.00    +0.014 A 
ATOM     38  C   UNL     1      13.185   2.174  -0.999  0.00  0.00    +0.050 A 
ATOM     39  C   UNL     1      12.998   1.182  -2.066  0.00  0.00    +0.275 A 
ATOM     40  O   UNL     1      13.925   0.479  -2.426  0.00  0.00    -0.266 OA
ATOM     41  N   UNL     1      11.784   1.063  -2.641  0.00  0.00    -0.232 N 
ATOM     42  N   UNL     1      10.702   1.851  -2.247  0.00  0.00    -0.168 NA
ATOM     43  C   UNL     1      11.594   0.074  -3.705  0.00  0.00    +0.176 C 
ENDBRANCH  27  32
ENDBRANCH  24  25
ENDBRANCH   3  24
TORSDOF 6
