REMARK  Name = ZINC39984522
REMARK  8 active torsions:
REMARK  status: ('A' for Active; 'I' for Inactive)
REMARK    1  A    between atoms: C_1  and  C_2
REMARK    2  A    between atoms: C_6  and  N_9
REMARK    3  A    between atoms: C_7  and  C_8
REMARK    4  A    between atoms: N_9  and  C_10
REMARK    5  A    between atoms: N_13  and  S_14
REMARK    6  A    between atoms: S_14  and  C_17
REMARK    7  A    between atoms: C_20  and  N_23
REMARK    8  A    between atoms: C_24  and  C_26
REMARK                            x       y       z     vdW  Elec       q    Type
REMARK                         _______ _______ _______ _____ _____    ______ ____
ROOT
ATOM      1  C   UNL     1      -0.013  -4.433   2.325  0.00  0.00    +0.237 C 
ATOM      2  C   UNL     1       1.004  -4.907   3.339  0.00  0.00    +0.192 C 
ATOM      3  N   UNL     1       2.260  -4.600   3.206  0.00  0.00    -0.110 NA
ATOM      4  N   UNL     1       0.591  -5.650   4.378  0.00  0.00    -0.226 NA
ATOM      5  C   UNL     1      -0.676  -5.974   4.534  0.00  0.00    +0.089 A 
ATOM      6  C   UNL     1      -1.077  -6.761   5.644  0.00  0.00    +0.030 A 
ATOM      7  C   UNL     1      -2.375  -7.097   5.809  0.00  0.00    +0.002 A 
ATOM      8  C   UNL     1      -3.383  -6.699   4.915  0.00  0.00    +0.002 A 
ATOM      9  C   UNL     1      -3.110  -5.948   3.825  0.00  0.00    +0.027 A 
ATOM     10  C   UNL     1      -1.720  -5.540   3.574  0.00  0.00    +0.063 A 
ATOM     11  N   UNL     1      -1.419  -4.815   2.533  0.00  0.00    -0.359 N 
ATOM     12  H   UNL     1      -2.107  -4.533   1.910  0.00  0.00    +0.162 HD
ENDROOT
BRANCH   3  13
ATOM     13  S   UNL     1       3.364  -5.125   4.323  0.00  0.00    +0.100 S 
ATOM     14  O   UNL     1       3.049  -4.470   5.544  0.00  0.00    -0.146 OA
ATOM     15  O   UNL     1       3.415  -6.541   4.209  0.00  0.00    -0.146 OA
BRANCH  13  16
ATOM     16  C   UNL     1       4.941  -4.522   3.821  0.00  0.00    +0.113 A 
ATOM     17  C   UNL     1       5.733  -5.280   2.977  0.00  0.00    +0.031 A 
ATOM     18  C   UNL     1       6.970  -4.810   2.581  0.00  0.00    +0.025 A 
ATOM     19  C   UNL     1       7.419  -3.575   3.031  0.00  0.00    +0.033 A 
ATOM     20  C   UNL     1       6.621  -2.817   3.879  0.00  0.00    +0.025 A 
ATOM     21  C   UNL     1       5.383  -3.290   4.267  0.00  0.00    +0.031 A 
BRANCH  19  22
ATOM     22  N   UNL     1       8.671  -3.097   2.633  0.00  0.00    -0.286 N 
ATOM     23  C   UNL     1       9.112  -3.324   1.380  0.00  0.00    +0.214 C 
ATOM     24  O   UNL     1       8.461  -4.013   0.624  0.00  0.00    -0.276 OA
ATOM     25  C   UNL     1      10.415  -2.723   0.918  0.00  0.00    +0.109 C 
ATOM     26  H   UNL     1       9.223  -2.601   3.259  0.00  0.00    +0.155 HD
ENDBRANCH  19  22
ENDBRANCH  13  16
ENDBRANCH   3  13
BRANCH   1  27
ATOM     27  N   UNL     1       0.051  -2.970   2.278  0.00  0.00    -0.318 N 
ATOM     28  H   UNL     1      -0.010  -2.456   3.098  0.00  0.00    +0.148 HD
BRANCH  27  34
ATOM     29  C   UNL     1       0.758   1.192  -0.237  0.00  0.00    +0.044 C 
ATOM     30  C   UNL     1       0.544  -0.299  -0.197  0.00  0.00    -0.046 A 
ATOM     31  C   UNL     1       0.496  -1.022  -1.375  0.00  0.00    +0.004 A 
ATOM     32  C   UNL     1       0.299  -2.390  -1.342  0.00  0.00    +0.002 A 
ATOM     33  C   UNL     1       0.151  -3.040  -0.132  0.00  0.00    +0.023 A 
ATOM     34  C   UNL     1       0.200  -2.317   1.053  0.00  0.00    +0.032 A 
ATOM     35  C   UNL     1       0.403  -0.943   1.017  0.00  0.00    -0.027 A 
ATOM     36  C   UNL     1       0.462  -0.155   2.300  0.00  0.00    +0.046 C 
ENDBRANCH  27  34
ENDBRANCH   1  27
TORSDOF 5
