REMARK  Name = ZINC13470622
REMARK  6 active torsions:
REMARK  status: ('A' for Active; 'I' for Inactive)
REMARK    1  A    between atoms: C_4  and  N_21
REMARK    2  A    between atoms: C_5  and  C_7
REMARK    3  A    between atoms: N_10  and  C_12
REMARK    4  A    between atoms: C_12  and  C_13
REMARK    5  A    between atoms: N_15  and  C_16
REMARK    6  A    between atoms: C_22  and  C_24
REMARK                            x       y       z     vdW  Elec       q    Type
REMARK                         _______ _______ _______ _____ _____    ______ ____
ROOT
ATOM      1  C   UNL     1      -5.908   3.279   2.855  0.00  0.00    +0.001 A 
ATOM      2  C   UNL     1      -6.002   3.692   4.173  0.00  0.00    +0.002 A 
ATOM      3  C   UNL     1      -4.872   3.756   4.965  0.00  0.00    +0.024 A 
ATOM      4  C   UNL     1      -3.635   3.408   4.442  0.00  0.00    +0.044 A 
ATOM      5  C   UNL     1      -3.538   2.991   3.110  0.00  0.00    +0.044 A 
ATOM      6  C   UNL     1      -4.683   2.935   2.319  0.00  0.00    +0.013 A 
ENDROOT
BRANCH   5   7
ATOM      7  C   UNL     1      -2.220   2.617   2.540  0.00  0.00    +0.206 A 
ATOM      8  N   UNL     1      -1.040   2.628   3.177  0.00  0.00    -0.108 NA
ATOM      9  N   UNL     1      -0.147   2.236   2.333  0.00  0.00    -0.045 NA
ATOM     10  N   UNL     1      -0.717   1.984   1.207  0.00  0.00    -0.154 N 
ATOM     11  N   UNL     1      -1.981   2.214   1.308  0.00  0.00    -0.130 NA
BRANCH  10  12
ATOM     12  C   UNL     1      -0.035   1.515  -0.002  0.00  0.00    +0.263 C 
BRANCH  12  13
ATOM     13  C   UNL     1      -0.008   0.008  -0.011  0.00  0.00    +0.237 C 
ATOM     14  O   UNL     1      -0.509  -0.613   0.903  0.00  0.00    -0.274 OA
ATOM     15  N   UNL     1       0.573  -0.650  -1.033  0.00  0.00    -0.311 N 
ATOM     16  H   UNL     1       0.974  -0.153  -1.764  0.00  0.00    +0.149 HD
BRANCH  15  17
ATOM     17  C   UNL     1       0.599  -2.115  -1.042  0.00  0.00    +0.073 C 
ATOM     18  C   UNL     1       1.846  -2.625  -0.291  0.00  0.00    +0.022 C 
ATOM     19  C   UNL     1       2.294  -3.868  -1.100  0.00  0.00    +0.002 C 
ATOM     20  C   UNL     1       2.027  -3.438  -2.563  0.00  0.00    +0.002 C 
ATOM     21  C   UNL     1       0.714  -2.631  -2.487  0.00  0.00    +0.022 C 
ENDBRANCH  15  17
ENDBRANCH  12  13
ENDBRANCH  10  12
ENDBRANCH   5   7
BRANCH   4  22
ATOM     22  N   UNL     1      -2.491   3.472   5.242  0.00  0.00    -0.284 N 
ATOM     23  C   UNL     1      -2.373   4.440   6.172  0.00  0.00    +0.223 C 
ATOM     24  O   UNL     1      -3.294   5.204   6.372  0.00  0.00    -0.275 OA
ATOM     25  H   UNL     1      -1.782   2.820   5.128  0.00  0.00    +0.155 HD
BRANCH  23  26
ATOM     26  C   UNL     1      -1.097   4.574   6.963  0.00  0.00    +0.048 C 
ATOM     27  C   UNL     1       0.070   4.834   6.008  0.00  0.00    +0.019 C 
ATOM     28  C   UNL     1       1.365   4.970   6.811  0.00  0.00    -0.009 C 
ATOM     29  C   UNL     1       1.238   6.138   7.791  0.00  0.00    +0.007 C 
ATOM     30  C   UNL     1       0.071   5.877   8.745  0.00  0.00    -0.009 C 
ATOM     31  C   UNL     1      -1.224   5.742   7.943  0.00  0.00    +0.019 C 
ATOM     32  C   UNL     1       0.327   4.585   9.523  0.00  0.00    +0.007 C 
ATOM     33  C   UNL     1       0.454   3.417   8.543  0.00  0.00    -0.009 C 
ATOM     34  C   UNL     1       1.621   3.677   7.588  0.00  0.00    +0.007 C 
ATOM     35  C   UNL     1      -0.842   3.281   7.740  0.00  0.00    +0.019 C 
ENDBRANCH  23  26
ENDBRANCH   4  22
TORSDOF 6
