REMARK  Name = ZINC20150686
REMARK  10 active torsions:
REMARK  status: ('A' for Active; 'I' for Inactive)
REMARK    1  A    between atoms: C_1  and  C_2
REMARK    2  A    between atoms: C_2  and  O_3
REMARK    3  A    between atoms: O_3  and  C_4
REMARK    4  A    between atoms: C_4  and  C_6
REMARK    5  A    between atoms: C_6  and  C_31
REMARK    6  A    between atoms: C_11  and  C_14
REMARK    7  A    between atoms: N_21  and  C_24
REMARK    8  A    between atoms: C_31  and  C_32
REMARK    9  A    between atoms: C_32  and  S_33
REMARK   10  A    between atoms: S_33  and  C_34
REMARK                            x       y       z     vdW  Elec       q    Type
REMARK                         _______ _______ _______ _____ _____    ______ ____
ROOT
ATOM      1  C   UNL     1       4.649   2.549  -0.069  0.00  0.00    +0.130 C 
ATOM      2  C   UNL     1       4.633   1.464   1.006  0.00  0.00    +0.121 C 
ATOM      3  C   UNL     1       3.086   1.524   1.338  0.00  0.00    +0.114 C 
ATOM      4  C   UNL     1       2.499   1.455  -0.015  0.00  0.00    +0.134 C 
ATOM      5  N   UNL     1       3.349   2.437  -0.774  0.00  0.00    -0.291 NA
ATOM      6  C   UNL     1       3.043   0.802   2.589  0.00  0.00    +0.232 C 
ATOM      7  O   UNL     1       2.173   0.056   2.984  0.00  0.00    -0.274 OA
ATOM      8  N   UNL     1       4.206   1.150   3.231  0.00  0.00    -0.207 N 
ATOM      9  C   UNL     1       5.101   1.767   2.403  0.00  0.00    +0.232 C 
ATOM     10  O   UNL     1       6.069   2.421   2.727  0.00  0.00    -0.274 OA
ATOM     11  H   UNL     1       2.861   3.422  -0.802  0.00  0.00    +0.124 HD
ENDROOT
BRANCH   8  12
ATOM     12  C   UNL     1       4.449   0.897   4.590  0.00  0.00    +0.079 A 
ATOM     13  C   UNL     1       4.095   1.839   5.546  0.00  0.00    +0.027 A 
ATOM     14  C   UNL     1       4.335   1.588   6.883  0.00  0.00    +0.002 A 
ATOM     15  C   UNL     1       4.927   0.400   7.271  0.00  0.00    +0.003 A 
ATOM     16  C   UNL     1       5.281  -0.541   6.322  0.00  0.00    +0.040 A 
ATOM     17  C   UNL     1       5.039  -0.299   4.982  0.00  0.00    +0.145 A 
ATOM     18  F   UNL     1       5.380  -1.220   4.055  0.00  0.00    -0.204 F 
ENDBRANCH   8  12
BRANCH   4  19
ATOM     19  C   UNL     1       1.057   1.892   0.002  0.00  0.00    +0.122 A 
ATOM     20  C   UNL     1      -0.013   1.076   0.008  0.00  0.00    +0.046 A 
ATOM     21  C   UNL     1      -1.159   1.903   0.017  0.00  0.00    +0.041 A 
ATOM     22  C   UNL     1      -0.722   3.175   0.026  0.00  0.00    +0.195 A 
ATOM     23  O   UNL     1       0.621   3.162   0.013  0.00  0.00    -0.466 OA
ENDBRANCH   4  19
BRANCH   1  24
ATOM     24  C   UNL     1       5.795   2.322  -1.022  0.00  0.00    +0.328 C 
ATOM     25  O   UNL     1       6.771   1.710  -0.658  0.00  0.00    -0.249 OA
BRANCH  24  26
ATOM     26  O   UNL     1       5.731   2.801  -2.274  0.00  0.00    -0.464 OA
BRANCH  26  28
ATOM     27  C   UNL     1       6.617   3.162  -4.513  0.00  0.00    +0.048 C 
ATOM     28  C   UNL     1       6.871   2.545  -3.136  0.00  0.00    +0.229 C 
ENDBRANCH  26  28
ENDBRANCH  24  26
ENDBRANCH   1  24
BRANCH   1  29
ATOM     29  C   UNL     1       4.761   3.932   0.575  0.00  0.00    +0.045 C 
BRANCH  29  30
ATOM     30  C   UNL     1       4.651   5.008  -0.507  0.00  0.00    +0.071 C 
BRANCH  30  31
ATOM     31  S   UNL     1       4.784   6.649   0.256  0.00  0.00    -0.164 S 
ATOM     32  C   UNL     1       4.636   7.796  -1.141  0.00  0.00    +0.084 C 
ENDBRANCH  30  31
ENDBRANCH  29  30
ENDBRANCH   1  29
TORSDOF 8
