REMARK  Name = ZINC06441992
REMARK  8 active torsions:
REMARK  status: ('A' for Active; 'I' for Inactive)
REMARK    1  A    between atoms: C_1  and  C_2
REMARK    2  A    between atoms: C_7  and  C_15
REMARK    3  A    between atoms: C_13  and  C_14
REMARK    4  A    between atoms: C_15  and  C_17
REMARK    5  A    between atoms: C_15  and  N_70
REMARK    6  A    between atoms: N_21  and  C_22
REMARK    7  A    between atoms: C_22  and  C_23
REMARK    8  A    between atoms: N_31  and  C_34
REMARK                            x       y       z     vdW  Elec       q    Type
REMARK                         _______ _______ _______ _____ _____    ______ ____
ROOT
ATOM      1  C   UNL     1       2.466   1.063  -0.015  0.00  0.00    +0.039 C 
ENDROOT
BRANCH   1   8
ATOM      2  C   UNL     1      -4.952   3.994   0.046  0.00  0.00    +0.044 C 
ATOM      3  C   UNL     1      -3.652   3.230   0.037  0.00  0.00    -0.046 A 
ATOM      4  C   UNL     1      -3.672   1.842   0.030  0.00  0.00    +0.004 A 
ATOM      5  C   UNL     1      -2.506   1.131   0.020  0.00  0.00    +0.010 A 
ATOM      6  C   UNL     1      -1.281   1.807   0.018  0.00  0.00    -0.001 A 
ATOM      7  C   UNL     1      -0.013   1.076   0.008  0.00  0.00    +0.017 A 
ATOM      8  C   UNL     1       1.143   1.785   0.001  0.00  0.00    +0.011 A 
ATOM      9  C   UNL     1       1.112   3.196   0.008  0.00  0.00    +0.251 A 
ATOM     10  O   UNL     1       2.163   3.813   0.001  0.00  0.00    -0.268 OA
ATOM     11  N   UNL     1      -0.048   3.876   0.022  0.00  0.00    -0.322 N 
ATOM     12  H   UNL     1      -0.033   4.845   0.026  0.00  0.00    +0.169 HD
ATOM     13  C   UNL     1      -1.257   3.214   0.029  0.00  0.00    +0.052 A 
ATOM     14  C   UNL     1      -2.458   3.917   0.043  0.00  0.00    -0.024 A 
ATOM     15  C   UNL     1      -2.452   5.424   0.050  0.00  0.00    +0.046 C 
ENDBRANCH   1   8
BRANCH   1  21
ATOM     16  C   UNL     1       2.536   1.356  -2.418  0.00  0.00    -0.058 C 
ATOM     17  C   UNL     1       3.368   1.927  -3.568  0.00  0.00    +0.086 C 
ATOM     18  N   UNL     1       4.668   1.244  -3.615  0.00  0.00    -0.331 N 
ATOM     19  C   UNL     1       5.398   1.419  -2.352  0.00  0.00    +0.086 C 
ATOM     20  C   UNL     1       4.566   0.848  -1.202  0.00  0.00    -0.058 C 
ATOM     21  N   UNL     1       3.271   1.559  -1.152  0.00  0.00    +0.391 N 
ATOM     22  H   UNL     1       3.446   2.562  -1.024  0.00  0.00    -0.080 HD
BRANCH  18  23
ATOM     23  C   UNL     1       5.430   1.690  -4.700  0.00  0.00    +0.065 A 
ATOM     24  C   UNL     1       6.662   1.111  -4.970  0.00  0.00    +0.026 A 
ATOM     25  C   UNL     1       7.412   1.553  -6.043  0.00  0.00    +0.002 A 
ATOM     26  C   UNL     1       6.938   2.572  -6.848  0.00  0.00    +0.003 A 
ATOM     27  C   UNL     1       5.710   3.152  -6.584  0.00  0.00    +0.040 A 
ATOM     28  C   UNL     1       4.952   2.710  -5.515  0.00  0.00    +0.144 A 
ATOM     29  F   UNL     1       3.750   3.273  -5.260  0.00  0.00    -0.204 F 
ENDBRANCH  18  23
ENDBRANCH   1  21
BRANCH   1  30
ATOM     30  C   UNL     1       3.207   1.344   1.268  0.00  0.00    +0.143 A 
ATOM     31  N   UNL     1       3.827   2.454   1.587  0.00  0.00    -0.115 NA
ATOM     32  N   UNL     1       4.332   2.303   2.762  0.00  0.00    -0.023 NA
ATOM     33  N   UNL     1       4.057   1.124   3.198  0.00  0.00    -0.044 NA
ATOM     34  N   UNL     1       3.365   0.501   2.305  0.00  0.00    -0.228 N 
BRANCH  34  35
ATOM     35  C   UNL     1       2.847  -0.866   2.403  0.00  0.00    +0.178 C 
BRANCH  35  36
ATOM     36  C   UNL     1       3.882  -1.844   1.844  0.00  0.00    +0.140 C 
ATOM     37  C   UNL     1       3.300  -3.274   1.836  0.00  0.00    +0.035 C 
ATOM     38  C   UNL     1       4.524  -4.130   2.262  0.00  0.00    +0.031 C 
ATOM     39  C   UNL     1       5.232  -3.163   3.244  0.00  0.00    +0.160 C 
ATOM     40  O   UNL     1       5.043  -1.854   2.682  0.00  0.00    -0.375 OA
ENDBRANCH  35  36
ENDBRANCH  34  35
ENDBRANCH   1  30
TORSDOF 6
