REMARK  Name = ZINC07535786
REMARK  5 active torsions:
REMARK  status: ('A' for Active; 'I' for Inactive)
REMARK    1  A    between atoms: C_1  and  C_2
REMARK    2  A    between atoms: C_2  and  C_4
REMARK    3  A    between atoms: C_2  and  S_17
REMARK    4  A    between atoms: N_6  and  C_7
REMARK    5  A    between atoms: S_17  and  C_18
REMARK                            x       y       z     vdW  Elec       q    Type
REMARK                         _______ _______ _______ _____ _____    ______ ____
ROOT
ATOM      1  C   UNL     1       0.731  -0.503   1.223  0.00  0.00    +0.227 C 
ATOM      2  O   UNL     1       0.105  -0.891   2.187  0.00  0.00    -0.275 OA
ATOM      3  N   UNL     1       2.079  -0.519   1.244  0.00  0.00    -0.309 N 
ATOM      4  H   UNL     1       2.579  -0.208   0.473  0.00  0.00    +0.149 HD
ENDROOT
BRANCH   3   5
ATOM      5  C   UNL     1       2.787  -1.004   2.431  0.00  0.00    +0.035 C 
ATOM      6  C   UNL     1       2.397  -2.459   2.699  0.00  0.00    +0.029 C 
ATOM      7  C   UNL     1       3.136  -2.966   3.938  0.00  0.00    -0.008 C 
ATOM      8  C   UNL     1       4.646  -2.878   3.703  0.00  0.00    +0.007 C 
ATOM      9  C   UNL     1       5.036  -1.423   3.435  0.00  0.00    -0.008 C 
ATOM     10  C   UNL     1       4.296  -0.916   2.195  0.00  0.00    +0.029 C 
ATOM     11  C   UNL     1       4.657  -0.563   4.642  0.00  0.00    +0.007 C 
ATOM     12  C   UNL     1       3.148  -0.651   4.878  0.00  0.00    -0.008 C 
ATOM     13  C   UNL     1       2.758  -2.106   5.145  0.00  0.00    +0.007 C 
ATOM     14  C   UNL     1       2.408  -0.144   3.638  0.00  0.00    +0.029 C 
ENDBRANCH   3   5
BRANCH   1  16
ATOM     15  C   UNL     1      -0.019   1.526   0.010  0.00  0.00    +0.029 C 
ATOM     16  C   UNL     1       0.002  -0.004   0.002  0.00  0.00    +0.136 C 
BRANCH  16  17
ATOM     17  S   UNL     1      -1.700  -0.632   0.015  0.00  0.00    -0.084 S 
BRANCH  17  18
ATOM     18  C   UNL     1      -2.365  -0.093  -1.525  0.00  0.00    +0.161 A 
ATOM     19  N   UNL     1      -1.787   0.599  -2.489  0.00  0.00    -0.133 NA
ATOM     20  N   UNL     1      -2.498   0.916  -3.623  0.00  0.00    -0.125 NA
ATOM     21  C   UNL     1      -3.752   0.527  -3.743  0.00  0.00    +0.180 A 
ATOM     22  S   UNL     1      -3.998  -0.345  -2.204  0.00  0.00    -0.025 S 
ATOM     23  N   UNL     1      -4.643   0.735  -4.789  0.00  0.00    -0.336 N 
ATOM     24  H   UNL     1      -4.362   1.231  -5.574  0.00  0.00    +0.144 HD
ATOM     25  H   UNL     1      -5.545   0.384  -4.735  0.00  0.00    +0.144 HD
ENDBRANCH  17  18
ENDBRANCH  16  17
ENDBRANCH   1  16
TORSDOF 4
