REMARK  Name = ZINC19596409
REMARK  4 active torsions:
REMARK  status: ('A' for Active; 'I' for Inactive)
REMARK    1  A    between atoms: C_3  and  N_18
REMARK    2  A    between atoms: C_5  and  S_7
REMARK    3  A    between atoms: S_7  and  N_10
REMARK    4  A    between atoms: C_19  and  C_21
REMARK                            x       y       z     vdW  Elec       q    Type
REMARK                         _______ _______ _______ _____ _____    ______ ____
ROOT
ATOM      1  C   UNL     1      -6.025   6.662  -0.179  0.00  0.00    +0.004 A 
ATOM      2  C   UNL     1      -4.847   5.945  -0.100  0.00  0.00    +0.023 A 
ATOM      3  C   UNL     1      -4.883   4.560  -0.016  0.00  0.00    +0.036 A 
ATOM      4  C   UNL     1      -6.106   3.900  -0.001  0.00  0.00    +0.052 A 
ATOM      5  C   UNL     1      -7.280   4.623  -0.075  0.00  0.00    +0.114 A 
ATOM      6  C   UNL     1      -7.240   6.003  -0.164  0.00  0.00    +0.029 A 
ENDROOT
BRANCH   3   7
ATOM      7  N   UNL     1      -3.693   3.830   0.058  0.00  0.00    -0.281 N 
ATOM      8  C   UNL     1      -3.604   2.623  -0.533  0.00  0.00    +0.248 C 
ATOM      9  O   UNL     1      -4.583   2.130  -1.060  0.00  0.00    -0.270 OA
ATOM     10  H   UNL     1      -2.828   4.242   0.600  0.00  0.00    +0.155 HD
BRANCH   8  11
ATOM     11  C   UNL     1      -2.318   1.898  -0.543  0.00  0.00    +0.042 A 
ATOM     12  C   UNL     1      -2.224   0.646  -1.156  0.00  0.00    +0.062 A 
ATOM     13  C   UNL     1      -1.018  -0.030  -1.163  0.00  0.00    +0.164 A 
ATOM     14  C   UNL     1       0.102   0.538  -0.562  0.00  0.00    +0.180 A 
ATOM     15  C   UNL     1       0.008   1.784   0.050  0.00  0.00    +0.087 A 
ATOM     16  C   UNL     1      -1.193   2.460   0.066  0.00  0.00    +0.037 A 
ATOM     17 CL   UNL     1       1.406   2.486   0.802  0.00  0.00    -0.080 Cl
ATOM     18  O   UNL     1       1.298  -0.110  -0.567  0.00  0.00    -0.483 OA
ATOM     19  C   UNL     1       1.269  -1.512  -0.858  0.00  0.00    +0.270 C 
ATOM     20  C   UNL     1       0.368  -1.732  -2.080  0.00  0.00    +0.270 C 
ATOM     21  O   UNL     1      -0.943  -1.251  -1.762  0.00  0.00    -0.485 OA
ENDBRANCH   8  11
ENDBRANCH   3   7
BRANCH   5  22
ATOM     22  S   UNL     1      -8.831   3.788  -0.055  0.00  0.00    +0.100 S 
ATOM     23  O   UNL     1      -9.766   4.652  -0.685  0.00  0.00    -0.146 OA
ATOM     24  O   UNL     1      -8.586   2.466  -0.515  0.00  0.00    -0.146 OA
BRANCH  22  25
ATOM     25  N   UNL     1      -9.297   3.659   1.529  0.00  0.00    -0.118 NA
ATOM     26  C   UNL     1     -10.414   3.079   1.829  0.00  0.00    +0.117 C 
ATOM     27  C   UNL     1     -11.307   2.519   0.725  0.00  0.00    +0.073 C 
ATOM     28  C   UNL     1     -11.260   1.005   0.841  0.00  0.00    +0.008 C 
ATOM     29  C   UNL     1     -12.317   0.436   1.790  0.00  0.00    +0.002 C 
ATOM     30  C   UNL     1     -12.458   1.241   3.082  0.00  0.00    +0.019 C 
ATOM     31  C   UNL     1     -11.129   1.658   3.674  0.00  0.00    +0.102 C 
ATOM     32  N   UNL     1     -10.787   2.976   3.089  0.00  0.00    -0.331 N 
ATOM     33  H   UNL     1     -10.844   3.884   3.708  0.00  0.00    +0.147 HD
ENDBRANCH  22  25
ENDBRANCH   5  22
TORSDOF 4
