REMARK  Name = ZINC39699320
REMARK  14 active torsions:
REMARK  status: ('A' for Active; 'I' for Inactive)
REMARK    1  A    between atoms: C_1  and  C_2
REMARK    2  A    between atoms: C_2  and  C_3
REMARK    3  A    between atoms: C_3  and  C_4
REMARK    4  A    between atoms: C_3  and  C_5
REMARK    5  A    between atoms: C_3  and  N_6
REMARK    6  A    between atoms: C_7  and  C_12
REMARK    7  A    between atoms: C_12  and  C_14
REMARK    8  A    between atoms: C_12  and  N_28
REMARK    9  A    between atoms: C_18  and  C_27
REMARK   10  A    between atoms: C_20  and  C_26
REMARK   11  A    between atoms: N_28  and  C_29
REMARK   12  A    between atoms: N_28  and  C_36
REMARK   13  A    between atoms: C_29  and  C_30
REMARK   14  A    between atoms: C_36  and  C_37
REMARK                            x       y       z     vdW  Elec       q    Type
REMARK                         _______ _______ _______ _____ _____    ______ ____
ROOT
ATOM      1  C   UNL     1      -3.058  -2.873  -2.187  0.00  0.00    -0.010 C 
ENDROOT
BRANCH   1   2
ATOM      2  C   UNL     1      -1.959  -3.329  -3.149  0.00  0.00    +0.088 C 
ATOM      3  C   UNL     1      -2.156  -2.597  -4.462  0.00  0.00    -0.006 C 
ATOM      4  C   UNL     1      -2.333  -3.356  -5.580  0.00  0.00    -0.004 A 
ATOM      5  C   UNL     1      -2.531  -2.730  -6.888  0.00  0.00    -0.042 A 
ATOM      6  C   UNL     1      -2.704  -3.526  -7.975  0.00  0.00    +0.007 A 
ATOM      7  C   UNL     1      -2.696  -4.917  -7.866  0.00  0.00    -0.048 A 
ATOM      8  C   UNL     1      -2.518  -5.558  -6.681  0.00  0.00    +0.027 A 
ATOM      9  C   UNL     1      -2.329  -4.827  -5.495  0.00  0.00    +0.041 A 
ATOM     10  N   UNL     1      -2.155  -5.466  -4.338  0.00  0.00    -0.285 N 
ATOM     11  C   UNL     1      -1.975  -4.841  -3.188  0.00  0.00    +0.223 C 
ATOM     12  O   UNL     1      -1.822  -5.479  -2.164  0.00  0.00    -0.275 OA
ATOM     13  C   UNL     1      -2.894  -5.741  -9.112  0.00  0.00    +0.044 C 
ATOM     14  C   UNL     1      -2.543  -1.230  -7.027  0.00  0.00    +0.044 C 
ATOM     15  H   UNL     1      -2.161  -6.436  -4.341  0.00  0.00    +0.155 HD
ENDBRANCH   1   2
BRANCH   1  17
ATOM     16  N   UNL     1      -1.281  -2.112  -0.645  0.00  0.00    -0.211 N 
ATOM     17  C   UNL     1      -2.524  -2.899  -0.753  0.00  0.00    +0.183 C 
ATOM     18  N   UNL     1      -2.087  -4.258  -0.380  0.00  0.00    -0.229 N 
ATOM     19  N   UNL     1      -0.719  -4.157  -0.103  0.00  0.00    -0.064 NA
ATOM     20  N   UNL     1      -0.288  -3.017  -0.249  0.00  0.00    -0.061 NA
ATOM     21  H   UNL     1      -2.636  -5.056  -0.335  0.00  0.00    +0.172 HD
BRANCH  16  22
ATOM     22  C   UNL     1      -1.117  -0.679  -0.904  0.00  0.00    +0.050 C 
ATOM     23  C   UNL     1      -1.989   0.117   0.069  0.00  0.00    +0.033 C 
ATOM     24  C   UNL     1      -1.542  -0.369  -2.340  0.00  0.00    +0.033 C 
BRANCH  22  26
ATOM     25  C   UNL     1       0.538   1.183  -1.075  0.00  0.00    +0.006 C 
ATOM     26  C   UNL     1       0.350  -0.290  -0.710  0.00  0.00    +0.023 C 
ENDBRANCH  22  26
ENDBRANCH  16  22
ENDBRANCH   1  17
BRANCH   1  27
ATOM     27  N   UNL     1      -4.211  -3.776  -2.297  0.00  0.00    +0.392 N 
ATOM     28  H   UNL     1      -3.907  -4.728  -2.160  0.00  0.00    -0.080 HD
BRANCH  27  29
ATOM     29  C   UNL     1      -4.814  -3.641  -3.630  0.00  0.00    -0.042 C 
BRANCH  29  30
ATOM     30  C   UNL     1      -5.862  -4.707  -3.817  0.00  0.00    -0.064 A 
ATOM     31  C   UNL     1      -5.491  -5.979  -4.210  0.00  0.00    +0.002 A 
ATOM     32  C   UNL     1      -6.453  -6.957  -4.383  0.00  0.00    +0.000 A 
ATOM     33  C   UNL     1      -7.785  -6.663  -4.161  0.00  0.00    +0.000 A 
ATOM     34  C   UNL     1      -8.156  -5.391  -3.768  0.00  0.00    +0.000 A 
ATOM     35  C   UNL     1      -7.194  -4.414  -3.591  0.00  0.00    +0.002 A 
ENDBRANCH  29  30
ENDBRANCH  27  29
BRANCH  27  36
ATOM     36  C   UNL     1      -5.205  -3.428  -1.272  0.00  0.00    -0.002 C 
BRANCH  36  37
ATOM     37  C   UNL     1      -5.538  -1.962  -1.374  0.00  0.00    +0.089 A 
ATOM     38  C   UNL     1      -6.592  -1.438  -2.025  0.00  0.00    +0.042 A 
ATOM     39  C   UNL     1      -6.518  -0.035  -1.863  0.00  0.00    +0.041 A 
ATOM     40  C   UNL     1      -5.423   0.214  -1.123  0.00  0.00    +0.195 A 
ATOM     41  O   UNL     1      -4.837  -0.957  -0.824  0.00  0.00    -0.470 OA
ENDBRANCH  36  37
ENDBRANCH  27  36
ENDBRANCH   1  27
TORSDOF 9
