REMARK  Name = ZINC12652399
REMARK  7 active torsions:
REMARK  status: ('A' for Active; 'I' for Inactive)
REMARK    1  A    between atoms: C_1  and  O_2
REMARK    2  A    between atoms: O_2  and  C_3
REMARK    3  A    between atoms: C_6  and  C_9
REMARK    4  A    between atoms: C_21  and  C_23
REMARK    5  A    between atoms: C_28  and  O_29
REMARK    6  A    between atoms: O_29  and  C_30
REMARK    7  A    between atoms: C_34  and  C_37
REMARK                            x       y       z     vdW  Elec       q    Type
REMARK                         _______ _______ _______ _____ _____    ______ ____
ROOT
ATOM      1  C   UNL     1       0.216   5.717  -0.902  0.00  0.00    +0.252 C 
ATOM      2  O   UNL     1       0.096   6.926  -0.948  0.00  0.00    -0.270 OA
ATOM      3  N   UNL     1       0.084   5.071   0.273  0.00  0.00    -0.254 N 
ATOM      4  C   UNL     1       0.283   3.690   0.323  0.00  0.00    +0.059 A 
ATOM      5  C   UNL     1       1.528   3.128   0.093  0.00  0.00    +0.025 A 
ATOM      6  C   UNL     1       1.694   1.762   0.238  0.00  0.00    +0.002 A 
ATOM      7  C   UNL     1       0.626   0.963   0.609  0.00  0.00    +0.002 A 
ATOM      8  C   UNL     1      -0.624   1.519   0.817  0.00  0.00    +0.025 A 
ATOM      9  C   UNL     1      -0.794   2.885   0.662  0.00  0.00    +0.053 A 
ATOM     10  N   UNL     1      -2.036   3.494   0.778  0.00  0.00    -0.316 N 
ATOM     11  C   UNL     1      -2.363   4.412   1.723  0.00  0.00    +0.017 C 
ATOM     12  C   UNL     1      -1.604   5.470   2.057  0.00  0.00    +0.037 C 
ATOM     13  C   UNL     1      -0.261   5.821   1.463  0.00  0.00    +0.150 C 
ATOM     14  C   UNL     1      -2.047   6.380   3.045  0.00  0.00    +0.163 C 
ATOM     15  O   UNL     1      -1.331   7.316   3.343  0.00  0.00    -0.292 OA
ATOM     16  C   UNL     1      -3.368   6.232   3.739  0.00  0.00    +0.091 C 
ATOM     17  C   UNL     1      -4.333   5.494   2.804  0.00  0.00    +0.068 C 
ATOM     18  C   UNL     1      -3.687   4.162   2.425  0.00  0.00    +0.063 C 
ATOM     19  H   UNL     1      -2.721   3.245   0.138  0.00  0.00    +0.152 HD
ENDROOT
BRANCH   1  23
ATOM     20  C   UNL     1       1.052   3.531  -4.445  0.00  0.00    +0.120 A 
ATOM     21  C   UNL     1       1.369   4.882  -4.374  0.00  0.00    +0.046 A 
ATOM     22  C   UNL     1       1.100   5.595  -3.227  0.00  0.00    +0.016 A 
ATOM     23  C   UNL     1       0.507   4.957  -2.133  0.00  0.00    +0.037 A 
ATOM     24  C   UNL     1       0.195   3.597  -2.207  0.00  0.00    +0.016 A 
ATOM     25  C   UNL     1       0.462   2.893  -3.360  0.00  0.00    +0.046 A 
BRANCH  20  27
ATOM     26  C   UNL     1       0.967   1.447  -5.584  0.00  0.00    +0.277 C 
ATOM     27  O   UNL     1       1.319   2.832  -5.578  0.00  0.00    -0.495 OA
ENDBRANCH  20  27
ENDBRANCH   1  23
BRANCH  13  28
ATOM     28  C   UNL     1       0.800   5.578   2.505  0.00  0.00    +0.020 A 
ATOM     29  C   UNL     1       0.526   4.781   3.599  0.00  0.00    +0.009 A 
ATOM     30  C   UNL     1       1.500   4.554   4.553  0.00  0.00    +0.001 A 
ATOM     31  C   UNL     1       2.749   5.133   4.420  0.00  0.00    +0.004 A 
ATOM     32  C   UNL     1       3.027   5.936   3.330  0.00  0.00    +0.046 A 
ATOM     33  C   UNL     1       2.052   6.160   2.369  0.00  0.00    +0.125 A 
BRANCH  33  34
ATOM     34  O   UNL     1       2.323   6.950   1.296  0.00  0.00    -0.495 OA
ATOM     35  C   UNL     1       3.633   7.516   1.222  0.00  0.00    +0.277 C 
ENDBRANCH  33  34
ENDBRANCH  13  28
BRANCH  17  36
ATOM     36  C   UNL     1      -5.641   5.245   3.510  0.00  0.00    +0.109 A 
ATOM     37  C   UNL     1      -6.850   5.669   3.101  0.00  0.00    +0.045 A 
ATOM     38  C   UNL     1      -7.788   5.214   4.055  0.00  0.00    +0.041 A 
ATOM     39  C   UNL     1      -7.097   4.539   4.991  0.00  0.00    +0.195 A 
ATOM     40  O   UNL     1      -5.797   4.556   4.653  0.00  0.00    -0.468 OA
ENDBRANCH  17  36
TORSDOF 5
