REMARK  Name = ZINC24642339
REMARK  6 active torsions:
REMARK  status: ('A' for Active; 'I' for Inactive)
REMARK    1  A    between atoms: C_1  and  C_2
REMARK    2  A    between atoms: C_2  and  C_3
REMARK    3  A    between atoms: C_3  and  C_23
REMARK    4  A    between atoms: N_6  and  N_10
REMARK    5  A    between atoms: C_11  and  C_13
REMARK    6  A    between atoms: C_14  and  C_22
REMARK                            x       y       z     vdW  Elec       q    Type
REMARK                         _______ _______ _______ _____ _____    ______ ____
ROOT
ATOM      1  C   UNL     1       3.433  -6.109  -0.673  0.00  0.00    +0.139 C 
ATOM      2  C   UNL     1       3.316  -4.668  -1.130  0.00  0.00    +0.268 C 
ATOM      3  O   UNL     1       3.535  -4.231  -2.240  0.00  0.00    -0.271 OA
ATOM      4  N   UNL     1       2.919  -3.974  -0.046  0.00  0.00    -0.137 N 
ATOM      5  C   UNL     1       2.775  -4.766   1.022  0.00  0.00    +0.327 C 
ATOM      6  O   UNL     1       2.428  -4.368   2.117  0.00  0.00    -0.251 OA
ATOM      7  N   UNL     1       3.052  -6.053   0.749  0.00  0.00    -0.280 N 
ATOM      8  H   UNL     1       3.042  -6.973   1.351  0.00  0.00    +0.152 HD
ENDROOT
BRANCH   1   9
ATOM      9  C   UNL     1       4.850  -6.599  -0.824  0.00  0.00    -0.015 A 
ATOM     10  C   UNL     1       5.248  -7.214  -1.996  0.00  0.00    +0.006 A 
ATOM     11  C   UNL     1       6.549  -7.660  -2.136  0.00  0.00    +0.000 A 
ATOM     12  C   UNL     1       7.450  -7.500  -1.100  0.00  0.00    +0.000 A 
ATOM     13  C   UNL     1       7.051  -6.889   0.074  0.00  0.00    +0.000 A 
ATOM     14  C   UNL     1       5.751  -6.439   0.212  0.00  0.00    +0.006 A 
ENDBRANCH   1   9
BRANCH   4  15
ATOM     15  N   UNL     1       2.690  -2.591  -0.037  0.00  0.00    -0.219 N 
ATOM     16  C   UNL     1       1.429  -2.117  -0.022  0.00  0.00    +0.268 C 
ATOM     17  O   UNL     1       0.489  -2.889  -0.017  0.00  0.00    -0.268 OA
ATOM     18  H   UNL     1       3.540  -1.893  -0.042  0.00  0.00    +0.174 HD
BRANCH  16  19
ATOM     19  C   UNL     1       1.189  -0.666  -0.013  0.00  0.00    +0.079 A 
ATOM     20  C   UNL     1       0.002  -0.004   0.002  0.00  0.00    -0.023 A 
ATOM     21  C   UNL     1      -0.017   1.402   0.010  0.00  0.00    -0.007 A 
ATOM     22  C   UNL     1      -1.143   2.265   0.031  0.00  0.00    +0.009 A 
ATOM     23  C   UNL     1      -0.985   3.614   0.030  0.00  0.00    +0.001 A 
ATOM     24  C   UNL     1       0.276   4.200   0.021  0.00  0.00    +0.001 A 
ATOM     25  C   UNL     1       1.398   3.397   0.006  0.00  0.00    +0.015 A 
ATOM     26  C   UNL     1       1.253   2.026   0.001  0.00  0.00    +0.020 A 
ATOM     27  S   UNL     1       2.385   0.658  -0.017  0.00  0.00    -0.083 S 
ATOM     28  C   UNL     1      -1.292  -0.776   0.011  0.00  0.00    +0.046 C 
ENDBRANCH  16  19
ENDBRANCH   4  15
BRANCH   1  30
ATOM     29  C   UNL     1       1.035  -6.515  -1.246  0.00  0.00    +0.007 C 
ATOM     30  C   UNL     1       2.470  -7.002  -1.458  0.00  0.00    +0.037 C 
ENDBRANCH   1  30
TORSDOF 4
