REMARK  Name = ZINC59402671
REMARK  7 active torsions:
REMARK  status: ('A' for Active; 'I' for Inactive)
REMARK    1  A    between atoms: C_1  and  C_2
REMARK    2  A    between atoms: C_7  and  N_8
REMARK    3  A    between atoms: C_9  and  C_19
REMARK    4  A    between atoms: C_19  and  S_20
REMARK    5  A    between atoms: S_20  and  C_21
REMARK    6  A    between atoms: C_24  and  C_27
REMARK    7  A    between atoms: N_25  and  N_26
REMARK                            x       y       z     vdW  Elec       q    Type
REMARK                         _______ _______ _______ _____ _____    ______ ____
ROOT
ATOM      1  N   UNL     1       0.025  -0.014   2.418  0.00  0.00    -0.263 N 
ATOM      2  C   UNL     1      -1.155   0.298   3.018  0.00  0.00    +0.128 A 
ATOM      3  N   UNL     1      -1.235   0.937   4.146  0.00  0.00    -0.232 NA
ATOM      4  C   UNL     1      -0.126   1.343   4.814  0.00  0.00    +0.078 A 
ATOM      5  C   UNL     1      -0.212   2.029   6.027  0.00  0.00    +0.028 A 
ATOM      6  C   UNL     1       0.939   2.422   6.671  0.00  0.00    +0.002 A 
ATOM      7  C   UNL     1       2.188   2.145   6.129  0.00  0.00    +0.001 A 
ATOM      8  C   UNL     1       2.298   1.470   4.933  0.00  0.00    +0.015 A 
ATOM      9  C   UNL     1       1.145   1.062   4.266  0.00  0.00    +0.065 A 
ATOM     10  C   UNL     1       1.202   0.333   2.990  0.00  0.00    +0.266 A 
ATOM     11  O   UNL     1       2.265   0.056   2.467  0.00  0.00    -0.267 OA
ENDROOT
BRANCH   1  18
ATOM     12  C   UNL     1      -0.018   1.503   0.010  0.00  0.00    +0.046 C 
ATOM     13  C   UNL     1       0.002  -0.004   0.002  0.00  0.00    -0.026 A 
ATOM     14  C   UNL     1       0.006  -0.689  -1.198  0.00  0.00    +0.005 A 
ATOM     15  C   UNL     1       0.024  -2.071  -1.206  0.00  0.00    +0.000 A 
ATOM     16  C   UNL     1       0.039  -2.773  -0.014  0.00  0.00    +0.002 A 
ATOM     17  C   UNL     1       0.036  -2.094   1.188  0.00  0.00    +0.026 A 
ATOM     18  C   UNL     1       0.023  -0.705   1.200  0.00  0.00    +0.054 A 
ENDBRANCH   1  18
BRANCH   2  19
ATOM     19  C   UNL     1      -2.435  -0.118   2.340  0.00  0.00    +0.152 C 
BRANCH  19  20
ATOM     20  S   UNL     1      -3.851   0.415   3.340  0.00  0.00    -0.077 S 
BRANCH  20  21
ATOM     21  C   UNL     1      -5.252  -0.138   2.426  0.00  0.00    +0.209 A 
ATOM     22  N   UNL     1      -5.232  -0.791   1.287  0.00  0.00    -0.121 NA
ATOM     23  N   UNL     1      -6.434  -1.036   0.903  0.00  0.00    -0.132 NA
ATOM     24  C   UNL     1      -7.285  -0.558   1.766  0.00  0.00    +0.148 A 
ATOM     25  N   UNL     1      -6.563   0.025   2.770  0.00  0.00    -0.228 N 
ATOM     26  C   UNL     1      -8.787  -0.640   1.678  0.00  0.00    +0.090 C 
BRANCH  25  27
ATOM     27  N   UNL     1      -7.051   0.646   3.885  0.00  0.00    -0.295 N 
ATOM     28  H   UNL     1      -7.201   1.629   3.715  0.00  0.00    +0.163 HD
ATOM     29  H   UNL     1      -7.899   0.201   4.204  0.00  0.00    +0.163 HD
ENDBRANCH  25  27
ENDBRANCH  20  21
ENDBRANCH  19  20
ENDBRANCH   2  19
TORSDOF 5
