REMARK  Name = ZINC09227607
REMARK  11 active torsions:
REMARK  status: ('A' for Active; 'I' for Inactive)
REMARK    1  A    between atoms: C_1  and  C_2
REMARK    2  A    between atoms: C_2  and  C_3
REMARK    3  A    between atoms: C_9  and  C_10
REMARK    4  A    between atoms: C_9  and  N_70
REMARK    5  A    between atoms: C_13  and  C_15
REMARK    6  A    between atoms: C_15  and  N_16
REMARK    7  A    between atoms: N_19  and  C_20
REMARK    8  A    between atoms: N_22  and  C_31
REMARK    9  A    between atoms: C_31  and  C_32
REMARK   10  A    between atoms: C_32  and  C_33
REMARK   11  A    between atoms: C_32  and  C_34
REMARK                            x       y       z     vdW  Elec       q    Type
REMARK                         _______ _______ _______ _____ _____    ______ ____
ROOT
ATOM      1  N   UNL     1       3.431  -5.036   0.485  0.00  0.00    -0.292 N 
ATOM      2  C   UNL     1       2.251  -4.386   0.449  0.00  0.00    +0.304 C 
ATOM      3  O   UNL     1       1.210  -5.015   0.453  0.00  0.00    -0.252 OA
ATOM      4  N   UNL     1       2.224  -3.039   0.409  0.00  0.00    -0.268 N 
ATOM      5  H   UNL     1       4.261  -4.535   0.482  0.00  0.00    +0.151 HD
ATOM      6  H   UNL     1       3.052  -2.540   0.333  0.00  0.00    +0.156 HD
ENDROOT
BRANCH   4   7
ATOM      7  C   UNL     1       0.998  -2.359   0.478  0.00  0.00    +0.059 A 
ATOM      8  C   UNL     1       0.618  -1.539  -0.522  0.00  0.00    +0.113 A 
ATOM      9  N   UNL     1      -0.569  -0.857  -0.497  0.00  0.00    -0.313 N 
ATOM     10  C   UNL     1      -1.436  -0.960   0.529  0.00  0.00    +0.259 A 
ATOM     11  O   UNL     1      -2.483  -0.337   0.515  0.00  0.00    -0.267 OA
ATOM     12  C   UNL     1      -1.108  -1.830   1.663  0.00  0.00    +0.048 A 
ATOM     13  C   UNL     1       0.117  -2.535   1.638  0.00  0.00    +0.010 A 
ATOM     14  C   UNL     1       0.456  -3.370   2.702  0.00  0.00    +0.010 A 
ATOM     15  C   UNL     1      -0.400  -3.500   3.760  0.00  0.00    +0.001 A 
ATOM     16  C   UNL     1      -1.605  -2.810   3.790  0.00  0.00    +0.001 A 
ATOM     17  C   UNL     1      -1.966  -1.978   2.753  0.00  0.00    +0.014 A 
BRANCH   9  18
ATOM     18  C   UNL     1      -0.907   0.015  -1.625  0.00  0.00    +0.128 C 
BRANCH  18  19
ATOM     19  C   UNL     1      -1.675  -0.787  -2.677  0.00  0.00    +0.003 C 
ATOM     20  C   UNL     1      -2.136   0.149  -3.796  0.00  0.00    +0.009 C 
ATOM     21  C   UNL     1      -0.761  -1.867  -3.261  0.00  0.00    +0.009 C 
ENDBRANCH  18  19
ENDBRANCH   9  18
ENDBRANCH   4   7
BRANCH   1  22
ATOM     22  C   UNL     1       3.459  -6.500   0.528  0.00  0.00    +0.180 C 
BRANCH  22  26
ATOM     23  C   UNL     1       6.869  -7.646  -0.103  0.00  0.00    +0.089 A 
ATOM     24  C   UNL     1       6.897  -7.622   1.242  0.00  0.00    +0.043 A 
ATOM     25  C   UNL     1       5.623  -7.184   1.670  0.00  0.00    +0.046 A 
ATOM     26  C   UNL     1       4.890  -6.974   0.562  0.00  0.00    +0.122 A 
ATOM     27  O   UNL     1       5.651  -7.252  -0.509  0.00  0.00    -0.465 OA
BRANCH  23  28
ATOM     28  C   UNL     1       8.011  -8.045  -1.001  0.00  0.00    -0.003 C 
BRANCH  28  34
ATOM     29  C   UNL     1       7.868 -10.318  -0.179  0.00  0.00    -0.068 C 
ATOM     30  C   UNL     1       7.867 -11.787  -0.606  0.00  0.00    -0.015 C 
ATOM     31  C   UNL     1       6.628 -12.065  -1.461  0.00  0.00    -0.003 C 
ATOM     32  C   UNL     1       6.631 -11.126  -2.670  0.00  0.00    -0.019 C 
ATOM     33  C   UNL     1       6.667  -9.675  -2.183  0.00  0.00    -0.078 C 
ATOM     34  N   UNL     1       7.895  -9.467  -1.387  0.00  0.00    +0.386 N 
ATOM     35  H   UNL     1       8.709  -9.725  -1.957  0.00  0.00    -0.081 HD
BRANCH  29  37
ATOM     36  C   UNL     1       9.068 -10.860   1.944  0.00  0.00    +0.002 C 
ATOM     37  C   UNL     1       9.115 -10.030   0.659  0.00  0.00    -0.019 C 
ENDBRANCH  29  37
ENDBRANCH  28  34
ENDBRANCH  23  28
ENDBRANCH  22  26
ENDBRANCH   1  22
TORSDOF 8
