REMARK  Name = ZINC02520152
REMARK  9 active torsions:
REMARK  status: ('A' for Active; 'I' for Inactive)
REMARK    1  A    between atoms: C_1  and  C_2
REMARK    2  A    between atoms: C_2  and  O_3
REMARK    3  A    between atoms: O_3  and  C_4
REMARK    4  A    between atoms: C_4  and  C_6
REMARK    5  A    between atoms: C_10  and  N_11
REMARK    6  A    between atoms: C_12  and  C_14
REMARK    7  A    between atoms: N_16  and  N_17
REMARK    8  A    between atoms: C_18  and  C_19
REMARK    9  A    between atoms: C_32  and  C_36
REMARK                            x       y       z     vdW  Elec       q    Type
REMARK                         _______ _______ _______ _____ _____    ______ ____
ROOT
ATOM      1  N   UNL     1       1.217   3.793  -2.475  0.00  0.00    -0.271 N 
ATOM      2  C   UNL     1       1.240   4.659  -3.508  0.00  0.00    +0.305 C 
ATOM      3  O   UNL     1       1.288   5.854  -3.298  0.00  0.00    -0.265 OA
ATOM      4  H   UNL     1       1.178   2.839  -2.642  0.00  0.00    +0.156 HD
ENDROOT
BRANCH   1   9
ATOM      5  C   UNL     1       1.232   3.540   0.009  0.00  0.00    +0.091 A 
ATOM      6  C   UNL     1       1.268   4.287   1.255  0.00  0.00    -0.021 A 
ATOM      7  C   UNL     1       1.324   5.630   1.119  0.00  0.00    -0.004 A 
ATOM      8  S   UNL     1       1.317   5.910  -0.629  0.00  0.00    -0.077 S 
ATOM      9  C   UNL     1       1.249   4.267  -1.175  0.00  0.00    +0.087 A 
ATOM     10  C   UNL     1       1.376   6.647   2.218  0.00  0.00    +0.046 C 
ATOM     11  C   UNL     1       1.725   5.929   3.527  0.00  0.00    -0.009 C 
ATOM     12  C   UNL     1       0.840   4.687   3.667  0.00  0.00    +0.008 C 
ATOM     13  C   UNL     1       1.250   3.637   2.633  0.00  0.00    +0.037 C 
ATOM     14  C   UNL     1       1.482   6.869   4.710  0.00  0.00    +0.008 C 
BRANCH   5  15
ATOM     15  C   UNL     1       1.176   2.076   0.002  0.00  0.00    +0.342 C 
ATOM     16  O   UNL     1       2.205   1.428  -0.011  0.00  0.00    -0.245 OA
BRANCH  15  17
ATOM     17  O   UNL     1      -0.018   1.448   0.010  0.00  0.00    -0.461 OA
BRANCH  17  19
ATOM     18  C   UNL     1      -1.433  -0.534   0.013  0.00  0.00    +0.048 C 
ATOM     19  C   UNL     1       0.002  -0.004   0.002  0.00  0.00    +0.229 C 
ENDBRANCH  17  19
ENDBRANCH  15  17
ENDBRANCH   5  15
ENDBRANCH   1   9
BRANCH   2  20
ATOM     20  C   UNL     1       1.206   4.149  -4.907  0.00  0.00    +0.318 C 
ATOM     21  O   UNL     1       1.158   2.954  -5.117  0.00  0.00    -0.263 OA
ATOM     22  N   UNL     1       1.229   5.014  -5.940  0.00  0.00    -0.199 N 
ATOM     23  H   UNL     1       1.268   5.969  -5.773  0.00  0.00    +0.178 HD
BRANCH  22  24
ATOM     24  N   UNL     1       1.197   4.535  -7.256  0.00  0.00    -0.187 NA
ATOM     25  C   UNL     1       1.219   5.370  -8.253  0.00  0.00    +0.145 C 
BRANCH  25  26
ATOM     26  C   UNL     1       1.186   4.866  -9.636  0.00  0.00    +0.077 A 
ATOM     27  C   UNL     1       1.203   5.729 -10.692  0.00  0.00    +0.209 A 
ATOM     28  O   UNL     1       1.180   5.312 -11.959  0.00  0.00    -0.462 OA
ATOM     29  C   UNL     1       1.126   4.012 -12.311  0.00  0.00    +0.138 A 
ATOM     30  C   UNL     1       1.098   3.645 -13.652  0.00  0.00    +0.048 A 
ATOM     31  C   UNL     1       1.043   2.313 -14.002  0.00  0.00    +0.023 A 
ATOM     32  C   UNL     1       1.014   1.325 -13.027  0.00  0.00    +0.042 A 
ATOM     33  C   UNL     1       1.042   1.666 -11.692  0.00  0.00    +0.035 A 
ATOM     34  C   UNL     1       1.097   3.011 -11.327  0.00  0.00    +0.066 A 
ATOM     35  C   UNL     1       1.127   3.418  -9.909  0.00  0.00    +0.201 A 
ATOM     36  O   UNL     1       1.105   2.598  -9.008  0.00  0.00    -0.286 OA
ATOM     37 CL   UNL     1       0.945  -0.347 -13.492  0.00  0.00    -0.084 Cl
ENDBRANCH  25  26
ENDBRANCH  22  24
ENDBRANCH   2  20
TORSDOF 7
