REMARK  Name = ZINC45961085
REMARK  6 active torsions:
REMARK  status: ('A' for Active; 'I' for Inactive)
REMARK    1  A    between atoms: C_7  and  N_23
REMARK    2  A    between atoms: C_8  and  N_12
REMARK    3  A    between atoms: N_12  and  S_13
REMARK    4  A    between atoms: S_13  and  C_16
REMARK    5  A    between atoms: N_23  and  C_24
REMARK    6  A    between atoms: C_24  and  C_25
REMARK                            x       y       z     vdW  Elec       q    Type
REMARK                         _______ _______ _______ _____ _____    ______ ____
ROOT
ATOM      1  C   UNL     1      -0.767  -1.343   6.424  0.00  0.00    +0.001 A 
ATOM      2  C   UNL     1      -0.797  -0.068   5.878  0.00  0.00    +0.004 A 
ATOM      3  C   UNL     1      -0.031   0.242   4.774  0.00  0.00    +0.047 A 
ATOM      4  C   UNL     1       0.781  -0.727   4.197  0.00  0.00    +0.141 A 
ATOM      5  C   UNL     1       0.811  -2.018   4.750  0.00  0.00    +0.040 A 
ATOM      6  C   UNL     1       0.031  -2.319   5.868  0.00  0.00    +0.013 A 
ATOM      7  C   UNL     1       1.675  -3.037   4.132  0.00  0.00    +0.068 A 
ATOM      8  C   UNL     1       2.420  -2.669   3.026  0.00  0.00    +0.154 A 
ATOM      9  C   UNL     1       2.329  -1.353   2.538  0.00  0.00    +0.362 A 
ATOM     10  O   UNL     1       2.989  -1.035   1.563  0.00  0.00    -0.243 OA
ATOM     11  O   UNL     1       1.535  -0.437   3.116  0.00  0.00    -0.421 OA
ENDROOT
BRANCH   8  12
ATOM     12  N   UNL     1       3.262  -3.602   2.396  0.00  0.00    -0.208 N 
ATOM     13  H   UNL     1       2.924  -4.146   1.668  0.00  0.00    +0.174 HD
BRANCH  12  14
ATOM     14  S   UNL     1       4.831  -3.773   2.898  0.00  0.00    +0.074 S 
ATOM     15  O   UNL     1       5.027  -5.156   3.157  0.00  0.00    -0.150 OA
ATOM     16  O   UNL     1       5.634  -3.050   1.974  0.00  0.00    -0.150 OA
BRANCH  14  17
ATOM     17  C   UNL     1       4.976  -2.945   4.446  0.00  0.00    +0.127 A 
ATOM     18  C   UNL     1       5.032  -3.676   5.618  0.00  0.00    +0.030 A 
ATOM     19  C   UNL     1       5.145  -3.027   6.833  0.00  0.00    +0.002 A 
ATOM     20  C   UNL     1       5.203  -1.646   6.877  0.00  0.00    +0.002 A 
ATOM     21  C   UNL     1       5.147  -0.914   5.706  0.00  0.00    +0.022 A 
ATOM     22  C   UNL     1       5.040  -1.564   4.489  0.00  0.00    +0.068 A 
ATOM     23 CL   UNL     1       4.976  -0.645   3.018  0.00  0.00    -0.082 Cl
ENDBRANCH  14  17
ENDBRANCH  12  14
ENDBRANCH   8  12
BRANCH   7  24
ATOM     24  N   UNL     1       1.739  -4.322   4.640  0.00  0.00    -0.341 N 
ATOM     25  H   UNL     1       1.458  -4.497   5.552  0.00  0.00    +0.146 HD
BRANCH  24  26
ATOM     26  C   UNL     1       2.231  -5.418   3.802  0.00  0.00    +0.105 C 
BRANCH  26  27
ATOM     27  C   UNL     1       2.132  -6.735   4.574  0.00  0.00    +0.006 C 
ATOM     28  C   UNL     1       3.082  -6.696   5.772  0.00  0.00    +0.005 C 
ATOM     29  C   UNL     1       2.983  -8.014   6.545  0.00  0.00    +0.000 C 
ATOM     30  C   UNL     1       3.368  -9.174   5.625  0.00  0.00    +0.000 C 
ATOM     31  C   UNL     1       2.418  -9.213   4.427  0.00  0.00    +0.000 C 
ATOM     32  C   UNL     1       2.517  -7.896   3.655  0.00  0.00    +0.005 C 
ENDBRANCH  26  27
ENDBRANCH  24  26
ENDBRANCH   7  24
TORSDOF 6
