REMARK  Name = ZINC12305403
REMARK  7 active torsions:
REMARK  status: ('A' for Active; 'I' for Inactive)
REMARK    1  A    between atoms: N_9  and  C_10
REMARK    2  A    between atoms: C_10  and  C_11
REMARK    3  A    between atoms: C_11  and  N_12
REMARK    4  A    between atoms: C_13  and  C_15
REMARK    5  A    between atoms: C_15  and  C_16
REMARK    6  A    between atoms: C_23  and  C_24
REMARK    7  A    between atoms: C_23  and  N_55
REMARK                            x       y       z     vdW  Elec       q    Type
REMARK                         _______ _______ _______ _____ _____    ______ ____
ROOT
ATOM      1  C   UNL     1       4.064  -4.480  -4.062  0.00  0.00    +0.028 C 
ATOM      2  C   UNL     1       2.688  -4.238  -4.616  0.00  0.00    +0.200 C 
ATOM      3  O   UNL     1       1.731  -4.415  -3.892  0.00  0.00    -0.278 OA
ATOM      4  N   UNL     1       2.475  -3.836  -5.873  0.00  0.00    -0.318 N 
ATOM      5  C   UNL     1       3.558  -3.560  -6.812  0.00  0.00    +0.085 C 
ATOM      6  C   UNL     1       4.854  -4.210  -6.324  0.00  0.00    -0.058 C 
ATOM      7  H   UNL     1       1.560  -3.722  -6.174  0.00  0.00    +0.149 HD
ATOM      8  N   UNL     1       5.063  -3.813  -4.918  0.00  0.00    +0.391 N 
ATOM      9  H   UNL     1       4.950  -2.796  -4.836  0.00  0.00    -0.080 HD
ENDROOT
BRANCH   1  10
ATOM     10  C   UNL     1       4.152  -3.899  -2.649  0.00  0.00    +0.089 C 
BRANCH  10  12
ATOM     11  N   UNL     1       3.858  -1.696  -1.563  0.00  0.00    -0.314 N 
ATOM     12  C   UNL     1       3.937  -2.409  -2.704  0.00  0.00    +0.212 C 
ATOM     13  O   UNL     1       3.835  -1.850  -3.776  0.00  0.00    -0.276 OA
ATOM     14  H   UNL     1       3.939  -2.143  -0.706  0.00  0.00    +0.149 HD
BRANCH  11  15
ATOM     15  C   UNL     1       3.648  -0.247  -1.617  0.00  0.00    +0.125 C 
BRANCH  15  16
ATOM     16  C   UNL     1       3.596   0.314  -0.194  0.00  0.00    +0.140 C 
BRANCH  16  25
ATOM     17  C   UNL     1       0.049   4.172  -0.550  0.00  0.00    +0.001 A 
ATOM     18  C   UNL     1      -0.189   2.804  -0.536  0.00  0.00    +0.002 A 
ATOM     19  C   UNL     1       0.855   1.911  -0.433  0.00  0.00    +0.026 A 
ATOM     20  C   UNL     1       2.162   2.381  -0.352  0.00  0.00    +0.049 A 
ATOM     21  C   UNL     1       2.397   3.768  -0.372  0.00  0.00    -0.000 A 
ATOM     22  C   UNL     1       1.324   4.655  -0.472  0.00  0.00    +0.010 A 
ATOM     23  C   UNL     1       3.849   3.933  -0.272  0.00  0.00    +0.027 A 
ATOM     24  C   UNL     1       4.380   2.702  -0.201  0.00  0.00    +0.087 A 
ATOM     25  N   UNL     1       3.387   1.762  -0.248  0.00  0.00    -0.345 N 
ENDBRANCH  16  25
ENDBRANCH  15  16
ENDBRANCH  11  15
ENDBRANCH  10  12
ENDBRANCH   1  10
BRANCH   8  26
ATOM     26  C   UNL     1       6.430  -4.182  -4.483  0.00  0.00    -0.042 C 
BRANCH  26  27
ATOM     27  C   UNL     1       7.430  -3.584  -5.439  0.00  0.00    -0.061 A 
ATOM     28  C   UNL     1       7.852  -4.308  -6.539  0.00  0.00    +0.003 A 
ATOM     29  C   UNL     1       8.765  -3.759  -7.420  0.00  0.00    +0.023 A 
ATOM     30  C   UNL     1       9.266  -2.490  -7.195  0.00  0.00    +0.076 A 
ATOM     31  C   UNL     1       8.848  -1.766  -6.090  0.00  0.00    +0.142 A 
ATOM     32  C   UNL     1       7.929  -2.316  -5.212  0.00  0.00    +0.041 A 
ATOM     33  F   UNL     1       9.337  -0.527  -5.869  0.00  0.00    -0.204 F 
ATOM     34 CL   UNL     1      10.418  -1.803  -8.297  0.00  0.00    -0.081 Cl
ENDBRANCH  26  27
ENDBRANCH   8  26
TORSDOF 7
