REMARK  Name = ZINC59420131
REMARK  12 active torsions:
REMARK  status: ('A' for Active; 'I' for Inactive)
REMARK    1  A    between atoms: C_1  and  C_2
REMARK    2  A    between atoms: C_4  and  C_33
REMARK    3  A    between atoms: C_5  and  C_9
REMARK    4  A    between atoms: C_6  and  C_8
REMARK    5  A    between atoms: C_9  and  C_11
REMARK    6  A    between atoms: C_11  and  C_12
REMARK    7  A    between atoms: C_12  and  C_13
REMARK    8  A    between atoms: C_13  and  C_14
REMARK    9  A    between atoms: C_19  and  C_22
REMARK   10  A    between atoms: C_22  and  N_23
REMARK   11  A    between atoms: C_25  and  C_32
REMARK   12  A    between atoms: C_28  and  C_31
REMARK                            x       y       z     vdW  Elec       q    Type
REMARK                         _______ _______ _______ _____ _____    ______ ____
ROOT
ATOM      1  C   UNL     1       1.404  -7.494   4.381  0.00  0.00    +0.219 C 
ATOM      2  O   UNL     1       1.602  -8.225   3.434  0.00  0.00    -0.275 OA
ATOM      3  N   UNL     1       1.461  -7.984   5.635  0.00  0.00    -0.265 N 
ATOM      4  C   UNL     1       1.747  -9.328   5.844  0.00  0.00    +0.165 A 
ATOM      5  N   UNL     1       1.837  -9.978   6.984  0.00  0.00    -0.228 NA
ATOM      6  C   UNL     1       2.120 -11.267   7.014  0.00  0.00    +0.064 A 
ATOM      7  C   UNL     1       2.310 -11.884   5.823  0.00  0.00    +0.073 A 
ATOM      8  S   UNL     1       2.054 -10.522   4.697  0.00  0.00    -0.060 S 
ATOM      9  H   UNL     1       1.302  -7.399   6.393  0.00  0.00    +0.157 HD
ENDROOT
BRANCH   1  10
ATOM     10  C   UNL     1       1.094  -6.036   4.156  0.00  0.00    +0.096 C 
BRANCH  10  11
ATOM     11  C   UNL     1       1.090  -5.742   2.654  0.00  0.00    +0.017 C 
BRANCH  11  12
ATOM     12  C   UNL     1       0.775  -4.263   2.425  0.00  0.00    +0.080 C 
BRANCH  12  13
ATOM     13  C   UNL     1       0.771  -3.973   0.946  0.00  0.00    +0.164 C 
ATOM     14  O   UNL     1       1.090  -4.838   0.158  0.00  0.00    -0.292 OA
BRANCH  13  19
ATOM     15  C   UNL     1      -0.750   1.232  -0.962  0.00  0.00    +0.044 C 
ATOM     16  C   UNL     1      -0.352  -0.132  -0.461  0.00  0.00    -0.050 A 
ATOM     17  C   UNL     1       0.953  -0.364  -0.061  0.00  0.00    +0.007 A 
ATOM     18  C   UNL     1       1.326  -1.610   0.398  0.00  0.00    -0.039 A 
ATOM     19  C   UNL     1       0.382  -2.640   0.458  0.00  0.00    +0.023 A 
ATOM     20  C   UNL     1      -0.934  -2.398   0.052  0.00  0.00    -0.039 A 
ATOM     21  C   UNL     1      -1.293  -1.145  -0.400  0.00  0.00    +0.007 A 
ATOM     22  C   UNL     1      -1.959  -3.501   0.112  0.00  0.00    +0.044 C 
ATOM     23  C   UNL     1       2.747  -1.861   0.833  0.00  0.00    +0.044 C 
ENDBRANCH  13  19
ENDBRANCH  12  13
ENDBRANCH  11  12
ENDBRANCH  10  11
ENDBRANCH   1  10
BRANCH   6  24
ATOM     24  C   UNL     1       2.226 -12.019   8.316  0.00  0.00    +0.140 C 
BRANCH  24  25
ATOM     25  N   UNL     1       3.582 -11.865   8.861  0.00  0.00    -0.292 NA
ATOM     26  C   UNL     1       3.839 -10.471   9.248  0.00  0.00    +0.116 C 
ATOM     27  C   UNL     1       5.279 -10.344   9.754  0.00  0.00    +0.130 C 
ATOM     28  O   UNL     1       5.479 -11.253  10.839  0.00  0.00    -0.371 OA
ATOM     29  C   UNL     1       5.238 -12.621  10.497  0.00  0.00    +0.130 C 
ATOM     30  C   UNL     1       3.797 -12.770   9.999  0.00  0.00    +0.116 C 
ATOM     31  C   UNL     1       5.446 -13.501  11.731  0.00  0.00    +0.039 C 
ATOM     32  C   UNL     1       5.528  -8.913  10.232  0.00  0.00    +0.039 C 
ENDBRANCH  24  25
ENDBRANCH   6  24
TORSDOF 7
