REMARK  Name = ZINC13064387
REMARK  9 active torsions:
REMARK  status: ('A' for Active; 'I' for Inactive)
REMARK    1  A    between atoms: C_1  and  C_2
REMARK    2  A    between atoms: C_2  and  C_3
REMARK    3  A    between atoms: C_3  and  C_5
REMARK    4  A    between atoms: C_3  and  N_69
REMARK    5  A    between atoms: N_9  and  C_10
REMARK    6  A    between atoms: C_15  and  C_16
REMARK    7  A    between atoms: C_15  and  N_69
REMARK    8  A    between atoms: C_23  and  C_24
REMARK    9  A    between atoms: C_23  and  N_69
REMARK                            x       y       z     vdW  Elec       q    Type
REMARK                         _______ _______ _______ _____ _____    ______ ____
ROOT
ATOM      1  N   UNL     1       0.137  -1.087   1.741  0.00  0.00    +0.392 N 
ATOM      2  H   UNL     1      -0.517  -0.995   2.528  0.00  0.00    -0.080 HD
ENDROOT
BRANCH   1   3
ATOM      3  C   UNL     1       0.034  -2.454   1.189  0.00  0.00    +0.003 C 
BRANCH   3   4
ATOM      4  C   UNL     1      -1.404  -2.897   1.265  0.00  0.00    +0.138 A 
ATOM      5  N   UNL     1      -2.456  -2.210   0.891  0.00  0.00    -0.115 NA
ATOM      6  N   UNL     1      -3.501  -2.929   1.113  0.00  0.00    -0.023 NA
ATOM      7  N   UNL     1      -3.144  -4.054   1.627  0.00  0.00    -0.044 NA
ATOM      8  N   UNL     1      -1.859  -4.073   1.737  0.00  0.00    -0.228 N 
BRANCH   8   9
ATOM      9  C   UNL     1      -1.047  -5.168   2.273  0.00  0.00    +0.111 C 
ATOM     10  C   UNL     1      -1.304  -6.459   1.469  0.00  0.00    +0.027 C 
ATOM     11  C   UNL     1      -1.260  -7.584   2.534  0.00  0.00    +0.002 C 
ATOM     12  C   UNL     1      -1.949  -6.926   3.756  0.00  0.00    +0.002 C 
ATOM     13  C   UNL     1      -1.456  -5.464   3.727  0.00  0.00    +0.027 C 
ENDBRANCH   8   9
ENDBRANCH   3   4
BRANCH   3  15
ATOM     14  C   UNL     1       1.997  -2.176  -0.332  0.00  0.00    +0.002 C 
ATOM     15  C   UNL     1       0.498  -2.477  -0.269  0.00  0.00    -0.011 C 
ENDBRANCH   3  15
ENDBRANCH   1   3
BRANCH   1  16
ATOM     16  C   UNL     1       1.511  -0.841   2.228  0.00  0.00    -0.042 C 
BRANCH  16  17
ATOM     17  C   UNL     1       1.707  -1.588   3.521  0.00  0.00    -0.064 A 
ATOM     18  C   UNL     1       1.288  -1.028   4.713  0.00  0.00    +0.004 A 
ATOM     19  C   UNL     1       1.463  -1.714   5.900  0.00  0.00    +0.038 A 
ATOM     20  C   UNL     1       2.068  -2.960   5.896  0.00  0.00    +0.123 A 
ATOM     21  C   UNL     1       2.493  -3.518   4.702  0.00  0.00    +0.038 A 
ATOM     22  C   UNL     1       2.312  -2.831   3.516  0.00  0.00    +0.004 A 
ATOM     23  F   UNL     1       2.244  -3.630   7.055  0.00  0.00    -0.205 F 
ENDBRANCH  16  17
ENDBRANCH   1  16
BRANCH   1  24
ATOM     24  C   UNL     1      -0.217  -0.095   0.704  0.00  0.00    -0.036 C 
BRANCH  24  25
ATOM     25  C   UNL     1      -0.466   1.234   1.370  0.00  0.00    +0.001 A 
ATOM     26  C   UNL     1       0.531   2.153   1.439  0.00  0.00    +0.017 A 
ATOM     27  C   UNL     1       0.258   3.433   2.092  0.00  0.00    +0.002 A 
ATOM     28  C   UNL     1       1.248   4.418   2.193  0.00  0.00    +0.059 A 
ATOM     29  C   UNL     1       0.963   5.614   2.817  0.00  0.00    +0.163 A 
ATOM     30  C   UNL     1      -0.311   5.846   3.345  0.00  0.00    +0.164 A 
ATOM     31  C   UNL     1      -1.296   4.878   3.248  0.00  0.00    +0.075 A 
ATOM     32  C   UNL     1      -1.024   3.668   2.625  0.00  0.00    +0.053 A 
ATOM     33  N   UNL     1      -1.994   2.691   2.521  0.00  0.00    -0.322 N 
ATOM     34  H   UNL     1      -2.877   2.854   2.888  0.00  0.00    +0.169 HD
ATOM     35  C   UNL     1      -1.734   1.520   1.914  0.00  0.00    +0.251 A 
ATOM     36  O   UNL     1      -2.617   0.682   1.837  0.00  0.00    -0.268 OA
ATOM     37  O   UNL     1      -0.602   7.025   3.958  0.00  0.00    -0.485 OA
ATOM     38  C   UNL     1       0.509   7.827   4.372  0.00  0.00    +0.270 C 
ATOM     39  C   UNL     1       1.513   7.894   3.214  0.00  0.00    +0.270 C 
ATOM     40  O   UNL     1       1.938   6.560   2.912  0.00  0.00    -0.485 OA
ENDBRANCH  24  25
ENDBRANCH   1  24
TORSDOF 8
