REMARK  Name = ZINC31284167
REMARK  12 active torsions:
REMARK  status: ('A' for Active; 'I' for Inactive)
REMARK    1  A    between atoms: C_1  and  C_2
REMARK    2  A    between atoms: C_3  and  C_36
REMARK    3  A    between atoms: C_4  and  C_27
REMARK    4  A    between atoms: C_6  and  C_10
REMARK    5  A    between atoms: C_7  and  C_9
REMARK    6  A    between atoms: C_10  and  O_12
REMARK    7  A    between atoms: O_12  and  C_13
REMARK    8  A    between atoms: N_18  and  C_20
REMARK    9  A    between atoms: C_20  and  C_21
REMARK   10  A    between atoms: C_31  and  N_33
REMARK   11  A    between atoms: C_36  and  O_38
REMARK   12  A    between atoms: O_38  and  C_39
REMARK                            x       y       z     vdW  Elec       q    Type
REMARK                         _______ _______ _______ _____ _____    ______ ____
ROOT
ATOM      1  C   UNL     1       2.106   7.200  -2.504  0.00  0.00    +0.061 C 
ATOM      2  C   UNL     1       2.175   6.454  -1.197  0.00  0.00    +0.016 C 
ATOM      3  C   UNL     1       2.352   5.122  -1.201  0.00  0.00    +0.065 C 
ATOM      4  C   UNL     1       2.419   4.336   0.078  0.00  0.00    +0.096 C 
ATOM      5  C   UNL     1       2.657   5.246   1.250  0.00  0.00    +0.065 C 
ATOM      6  C   UNL     1       2.467   6.574   1.156  0.00  0.00    +0.016 C 
ATOM      7  N   UNL     1       2.057   7.142  -0.019  0.00  0.00    -0.321 N 
ATOM      8  C   UNL     1       2.710   7.447   2.360  0.00  0.00    +0.061 C 
ATOM      9  H   UNL     1       1.631   8.156  -0.015  0.00  0.00    +0.152 HD
ENDROOT
BRANCH   4  10
ATOM     10  C   UNL     1       1.119   3.601   0.277  0.00  0.00    -0.033 A 
ATOM     11  C   UNL     1      -0.066   4.306   0.376  0.00  0.00    +0.005 A 
ATOM     12  C   UNL     1      -1.259   3.631   0.557  0.00  0.00    +0.003 A 
ATOM     13  C   UNL     1      -1.267   2.251   0.638  0.00  0.00    +0.033 A 
ATOM     14  C   UNL     1      -0.082   1.546   0.544  0.00  0.00    +0.126 A 
ATOM     15  C   UNL     1       1.111   2.221   0.361  0.00  0.00    +0.037 A 
BRANCH  14  16
ATOM     16  N   UNL     1      -0.090   0.069   0.635  0.00  0.00    +0.056 N 
ATOM     17  O   UNL     1       0.954  -0.552   0.547  0.00  0.00    -0.126 OA
ATOM     18  O   UNL     1      -1.141  -0.525   0.796  0.00  0.00    -0.126 OA
ENDBRANCH  14  16
ENDBRANCH   4  10
BRANCH   5  19
ATOM     19  C   UNL     1       3.089   4.694   2.478  0.00  0.00    +0.338 C 
ATOM     20  O   UNL     1       3.285   5.420   3.435  0.00  0.00    -0.245 OA
BRANCH  19  21
ATOM     21  O   UNL     1       3.284   3.364   2.588  0.00  0.00    -0.460 OA
BRANCH  21  22
ATOM     22  C   UNL     1       3.721   2.875   3.858  0.00  0.00    +0.160 C 
ATOM     23  C   UNL     1       5.251   2.867   3.903  0.00  0.00    +0.041 C 
ATOM     24  C   UNL     1       5.711   2.287   5.243  0.00  0.00    -0.015 C 
ATOM     25  C   UNL     1       5.135   0.878   5.408  0.00  0.00    -0.078 C 
ATOM     26  N   UNL     1       3.668   0.940   5.359  0.00  0.00    +0.385 N 
ATOM     27  C   UNL     1       3.202   1.450   4.063  0.00  0.00    -0.033 C 
ATOM     28  H   UNL     1       3.336   1.643   6.136  0.00  0.00    -0.081 HD
BRANCH  26  29
ATOM     29  C   UNL     1       3.076  -0.372   5.652  0.00  0.00    -0.043 C 
BRANCH  29  30
ATOM     30  C   UNL     1       3.371  -0.749   7.081  0.00  0.00    -0.064 A 
ATOM     31  C   UNL     1       4.516  -1.461   7.386  0.00  0.00    +0.002 A 
ATOM     32  C   UNL     1       4.788  -1.803   8.697  0.00  0.00    +0.000 A 
ATOM     33  C   UNL     1       3.911  -1.440   9.703  0.00  0.00    +0.000 A 
ATOM     34  C   UNL     1       2.764  -0.732   9.397  0.00  0.00    +0.000 A 
ATOM     35  C   UNL     1       2.494  -0.387   8.086  0.00  0.00    +0.002 A 
ENDBRANCH  29  30
ENDBRANCH  26  29
ENDBRANCH  21  22
ENDBRANCH  19  21
ENDBRANCH   5  19
BRANCH   3  36
ATOM     36  C   UNL     1       2.479   4.445  -2.436  0.00  0.00    +0.337 C 
ATOM     37  O   UNL     1       3.567   4.038  -2.798  0.00  0.00    -0.245 OA
BRANCH  36  38
ATOM     38  O   UNL     1       1.393   4.250  -3.213  0.00  0.00    -0.465 OA
ATOM     39  C   UNL     1       1.594   3.558  -4.447  0.00  0.00    +0.280 C 
ENDBRANCH  36  38
ENDBRANCH   3  36
TORSDOF 9
