REMARK  Name = ZINC39237430
REMARK  5 active torsions:
REMARK  status: ('A' for Active; 'I' for Inactive)
REMARK    1  A    between atoms: C_6  and  C_7
REMARK    2  A    between atoms: C_10  and  C_35
REMARK    3  A    between atoms: C_17  and  C_20
REMARK    4  A    between atoms: N_22  and  C_23
REMARK    5  A    between atoms: C_23  and  C_24
REMARK                            x       y       z     vdW  Elec       q    Type
REMARK                         _______ _______ _______ _____ _____    ______ ____
ROOT
ATOM      1  C   UNL     1      -1.293  -0.775   0.011  0.00  0.00    -0.037 C 
ATOM      2  C   UNL     1      -1.683  -1.117  -1.427  0.00  0.00    +0.018 C 
ATOM      3  C   UNL     1      -0.684  -2.116  -2.033  0.00  0.00    +0.173 C 
ATOM      4  N   UNL     1      -0.616  -3.261  -1.134  0.00  0.00    -0.245 NA
ATOM      5  C   UNL     1      -0.088  -2.808   0.183  0.00  0.00    +0.019 C 
ATOM      6  N   UNL     1      -1.123  -1.999   0.816  0.00  0.00    +0.395 N 
ATOM      7  C   UNL     1       0.205  -4.133   0.898  0.00  0.00    +0.030 C 
ATOM      8  C   UNL     1       0.473  -5.125  -0.262  0.00  0.00    +0.155 C 
ATOM      9  N   UNL     1       0.282  -4.339  -1.513  0.00  0.00    -0.243 NA
ATOM     10  H   UNL     1      -0.839  -1.755   1.753  0.00  0.00    -0.083 HD
ATOM     11  H   UNL     1      -0.124  -4.910  -2.240  0.00  0.00    +0.142 HD
ATOM     12  H   UNL     1      -1.990  -2.513   0.844  0.00  0.00    -0.083 HD
ENDROOT
BRANCH   1  18
ATOM     13  C   UNL     1       0.372   0.712  -1.121  0.00  0.00    +0.003 A 
ATOM     14  C   UNL     1       1.560   1.419  -1.129  0.00  0.00    +0.020 A 
ATOM     15  C   UNL     1       2.378   1.411  -0.014  0.00  0.00    +0.041 A 
ATOM     16  C   UNL     1       2.006   0.694   1.110  0.00  0.00    +0.020 A 
ATOM     17  C   UNL     1       0.819  -0.013   1.117  0.00  0.00    +0.003 A 
ATOM     18  C   UNL     1       0.002  -0.004   0.002  0.00  0.00    -0.061 A 
ATOM     19 CL   UNL     1       3.869   2.299  -0.024  0.00  0.00    -0.084 Cl
ENDBRANCH   1  18
BRANCH   8  20
ATOM     20  C   UNL     1       1.884  -5.649  -0.183  0.00  0.00    +0.232 C 
ATOM     21  O   UNL     1       2.745  -5.178  -0.895  0.00  0.00    -0.274 OA
ATOM     22  N   UNL     1       2.188  -6.640   0.677  0.00  0.00    -0.308 N 
ATOM     23  H   UNL     1       1.498  -7.017   1.246  0.00  0.00    +0.149 HD
BRANCH  22  24
ATOM     24  C   UNL     1       3.559  -7.149   0.753  0.00  0.00    +0.157 C 
BRANCH  24  25
ATOM     25  C   UNL     1       3.632  -8.246   1.784  0.00  0.00    +0.034 A 
ATOM     26  H   UNL     1       3.921  -7.187   3.555  0.00  0.00    +0.166 HD
ATOM     27  C   UNL     1       3.530  -9.558   1.522  0.00  0.00    +0.032 A 
ATOM     28  C   UNL     1       3.654 -10.262   2.801  0.00  0.00    +0.001 A 
ATOM     29  C   UNL     1       3.630 -11.607   3.174  0.00  0.00    +0.030 A 
ATOM     30  C   UNL     1       3.779 -11.949   4.500  0.00  0.00    +0.042 A 
ATOM     31  C   UNL     1       3.953 -10.963   5.464  0.00  0.00    +0.022 A 
ATOM     32  C   UNL     1       3.977  -9.632   5.111  0.00  0.00    +0.027 A 
ATOM     33  C   UNL     1       3.829  -9.265   3.778  0.00  0.00    +0.047 A 
ATOM     34  N   UNL     1       3.817  -8.051   3.126  0.00  0.00    -0.357 N 
ATOM     35 CL   UNL     1       3.750 -13.620   4.970  0.00  0.00    -0.084 Cl
ENDBRANCH  24  25
ENDBRANCH  22  24
ENDBRANCH   8  20
BRANCH   3  36
ATOM     36  C   UNL     1      -1.170  -2.564  -3.413  0.00  0.00    +0.406 C 
ATOM     37  F   UNL     1      -1.277  -1.451  -4.254  0.00  0.00    -0.169 F 
ATOM     38  F   UNL     1      -0.255  -3.472  -3.957  0.00  0.00    -0.169 F 
ATOM     39  F   UNL     1      -2.420  -3.179  -3.291  0.00  0.00    -0.169 F 
ENDBRANCH   3  36
TORSDOF 5
