REMARK  Name = ZINC08448849
REMARK  11 active torsions:
REMARK  status: ('A' for Active; 'I' for Inactive)
REMARK    1  A    between atoms: C_1  and  N_63
REMARK    2  A    between atoms: C_12  and  C_15
REMARK    3  A    between atoms: C_19  and  O_21
REMARK    4  A    between atoms: O_21  and  C_22
REMARK    5  A    between atoms: C_22  and  C_24
REMARK    6  A    between atoms: C_26  and  O_34
REMARK    7  A    between atoms: C_27  and  O_32
REMARK    8  A    between atoms: C_28  and  O_30
REMARK    9  A    between atoms: O_30  and  C_31
REMARK   10  A    between atoms: O_32  and  C_33
REMARK   11  A    between atoms: O_34  and  C_35
REMARK                            x       y       z     vdW  Elec       q    Type
REMARK                         _______ _______ _______ _____ _____    ______ ____
ROOT
ATOM      1  C   UNL     1      -1.570   4.476   5.511  0.00  0.00    -0.006 A 
ATOM      2  C   UNL     1      -0.412   4.010   6.107  0.00  0.00    +0.007 A 
ATOM      3  C   UNL     1       0.580   4.896   6.483  0.00  0.00    +0.004 A 
ATOM      4  C   UNL     1       0.417   6.250   6.265  0.00  0.00    +0.046 A 
ATOM      5  C   UNL     1      -0.744   6.721   5.668  0.00  0.00    +0.132 A 
ATOM      6  C   UNL     1      -1.736   5.828   5.286  0.00  0.00    +0.053 A 
ENDROOT
BRANCH   1  18
ATOM      7  C   UNL     1       0.629   1.428  -2.439  0.00  0.00    -0.096 C 
ATOM      8  C   UNL     1      -0.488   3.139  -1.139  0.00  0.00    -0.074 C 
ATOM      9  C   UNL     1      -1.640   3.367  -0.156  0.00  0.00    +0.018 C 
ATOM     10  C   UNL     1      -1.316   2.625   1.137  0.00  0.00    -0.027 A 
ATOM     11  C   UNL     1      -0.374   1.653   1.141  0.00  0.00    -0.021 A 
ATOM     12  S   UNL     1      -0.323   1.074   2.814  0.00  0.00    -0.080 S 
ATOM     13  C   UNL     1      -1.521   2.095   3.488  0.00  0.00    +0.080 A 
ATOM     14  C   UNL     1      -1.957   2.887   2.413  0.00  0.00    +0.068 A 
ATOM     15  C   UNL     1      -3.017   3.885   2.685  0.00  0.00    +0.248 C 
ATOM     16  O   UNL     1      -3.534   4.521   1.785  0.00  0.00    -0.270 OA
ATOM     17  N   UNL     1      -3.385   4.061   3.971  0.00  0.00    -0.289 N 
ATOM     18  C   UNL     1      -2.649   3.506   5.102  0.00  0.00    +0.190 C 
ATOM     19  N   UNL     1      -2.031   2.214   4.755  0.00  0.00    -0.316 N 
ATOM     20  C   UNL     1       0.430   1.189  -0.033  0.00  0.00    -0.036 C 
ATOM     21  H   UNL     1      -4.181   4.585   4.153  0.00  0.00    +0.151 HD
ATOM     22  H   UNL     1      -1.986   1.483   5.392  0.00  0.00    +0.149 HD
ATOM     23  N   UNL     1      -0.229   1.690  -1.263  0.00  0.00    +0.381 N 
ATOM     24  H   UNL     1      -1.123   1.200  -1.387  0.00  0.00    -0.082 HD
ENDBRANCH   1  18
BRANCH   5  25
ATOM     25  O   UNL     1      -0.907   8.053   5.452  0.00  0.00    -0.422 OA
BRANCH  25  26
ATOM     26  C   UNL     1      -1.842   8.682   6.191  0.00  0.00    +0.345 C 
ATOM     27  O   UNL     1      -2.421   8.084   7.077  0.00  0.00    -0.245 OA
BRANCH  26  28
ATOM     28  C   UNL     1      -2.164  10.096   5.924  0.00  0.00    +0.067 A 
ATOM     29  C   UNL     1      -1.496  10.787   4.909  0.00  0.00    +0.064 A 
ATOM     30  C   UNL     1      -1.802  12.111   4.658  0.00  0.00    +0.166 A 
ATOM     31  C   UNL     1      -2.769  12.760   5.422  0.00  0.00    +0.204 A 
ATOM     32  C   UNL     1      -3.433  12.076   6.437  0.00  0.00    +0.166 A 
ATOM     33  C   UNL     1      -3.134  10.750   6.689  0.00  0.00    +0.064 A 
BRANCH  32  34
ATOM     34  O   UNL     1      -4.375  12.713   7.182  0.00  0.00    -0.491 OA
ATOM     35  C   UNL     1      -5.016  11.951   8.207  0.00  0.00    +0.277 C 
ENDBRANCH  32  34
BRANCH  31  36
ATOM     36  O   UNL     1      -3.065  14.063   5.177  0.00  0.00    -0.488 OA
ATOM     37  C   UNL     1      -2.309  15.045   5.888  0.00  0.00    +0.277 C 
ENDBRANCH  31  36
BRANCH  30  38
ATOM     38  O   UNL     1      -1.156  12.782   3.668  0.00  0.00    -0.491 OA
ATOM     39  C   UNL     1      -0.176  12.055   2.924  0.00  0.00    +0.277 C 
ENDBRANCH  30  38
ENDBRANCH  26  28
ENDBRANCH  25  26
ENDBRANCH   5  25
TORSDOF 7
