REMARK  Name = ZINC13080825
REMARK  6 active torsions:
REMARK  status: ('A' for Active; 'I' for Inactive)
REMARK    1  A    between atoms: C_1  and  C_2
REMARK    2  A    between atoms: C_9  and  C_17
REMARK    3  A    between atoms: C_9  and  C_18
REMARK    4  A    between atoms: N_12  and  N_13
REMARK    5  A    between atoms: N_13  and  C_14
REMARK    6  A    between atoms: C_14  and  N_16
REMARK                            x       y       z     vdW  Elec       q    Type
REMARK                         _______ _______ _______ _____ _____    ______ ____
ROOT
ATOM      1  C   UNL     1      -0.018   1.503   0.010  0.00  0.00    +0.068 C 
ATOM      2  C   UNL     1       0.002  -0.004   0.002  0.00  0.00    +0.069 A 
ATOM      3  C   UNL     1       0.008  -0.821  -1.130  0.00  0.00    +0.041 A 
ATOM      4  C   UNL     1       0.026  -2.140  -0.704  0.00  0.00    +0.046 A 
ATOM      5  N   UNL     1       0.034  -2.121   0.635  0.00  0.00    -0.281 N 
ATOM      6  H   UNL     1       0.049  -2.899   1.214  0.00  0.00    +0.189 HD
ATOM      7  N   UNL     1       0.023  -0.783   1.057  0.00  0.00    -0.178 NA
ATOM      8  C   UNL     1       0.032  -3.312  -1.649  0.00  0.00    +0.062 C 
ATOM      9  C   UNL     1      -0.489  -2.862  -3.017  0.00  0.00    -0.024 C 
ATOM     10  C   UNL     1       0.284  -1.636  -3.514  0.00  0.00    +0.064 C 
ATOM     11  C   UNL     1       0.001  -0.475  -2.571  0.00  0.00    +0.070 C 
ATOM     12  N   UNL     1      -0.230   0.728  -2.997  0.00  0.00    -0.185 NA
ATOM     13  C   UNL     1      -0.321  -4.004  -4.021  0.00  0.00    +0.011 C 
ATOM     14  C   UNL     1      -1.973  -2.509  -2.901  0.00  0.00    +0.011 C 
ENDROOT
BRANCH  12  15
ATOM     15  N   UNL     1      -0.224   0.997  -4.372  0.00  0.00    -0.218 N 
ATOM     16  H   UNL     1      -0.048   0.284  -5.005  0.00  0.00    +0.176 HD
BRANCH  15  17
ATOM     17  C   UNL     1      -0.464   2.247  -4.815  0.00  0.00    +0.147 C 
ATOM     18  S   UNL     1      -0.457   2.576  -6.495  0.00  0.00    -0.017 S 
BRANCH  17  19
ATOM     19  N   UNL     1      -0.709   3.238  -3.935  0.00  0.00    -0.339 N 
ATOM     20  H   UNL     1      -0.713   3.052  -2.983  0.00  0.00    +0.144 HD
ATOM     21  H   UNL     1      -0.882   4.138  -4.254  0.00  0.00    +0.144 HD
ENDBRANCH  17  19
ENDBRANCH  15  17
ENDBRANCH  12  15
TORSDOF 3
