REMARK  Name = ZINC13416044
REMARK  7 active torsions:
REMARK  status: ('A' for Active; 'I' for Inactive)
REMARK    1  A    between atoms: C_1  and  C_2
REMARK    2  A    between atoms: C_4  and  C_16
REMARK    3  A    between atoms: C_12  and  C_13
REMARK    4  A    between atoms: C_16  and  S_17
REMARK    5  A    between atoms: S_17  and  C_18
REMARK    6  A    between atoms: N_31  and  C_32
REMARK    7  A    between atoms: C_32  and  C_33
REMARK                            x       y       z     vdW  Elec       q    Type
REMARK                         _______ _______ _______ _____ _____    ______ ____
ROOT
ATOM      1  S   UNL     1      -1.835   1.939  -2.123  0.00  0.00    -0.083 S 
ENDROOT
BRANCH   1   2
ATOM      2  C   UNL     1      -1.732   3.666  -2.460  0.00  0.00    +0.173 A 
ATOM      3  N   UNL     1      -0.660   4.148  -3.056  0.00  0.00    -0.216 NA
ATOM      4  C   UNL     1      -0.557   5.445  -3.322  0.00  0.00    +0.117 A 
ATOM      5  C   UNL     1      -1.569   6.360  -2.989  0.00  0.00    +0.076 A 
ATOM      6  C   UNL     1      -1.312   7.756  -3.345  0.00  0.00    -0.023 A 
ATOM      7  C   UNL     1      -0.139   8.027  -3.953  0.00  0.00    -0.004 A 
ATOM      8  S   UNL     1       0.682   6.461  -4.086  0.00  0.00    -0.073 S 
ATOM      9  C   UNL     1       0.358   9.363  -4.414  0.00  0.00    +0.043 C 
ATOM     10  C   UNL     1      -0.826  10.341  -4.428  0.00  0.00    +0.005 C 
ATOM     11  C   UNL     1      -1.584  10.214  -3.104  0.00  0.00    +0.005 C 
ATOM     12  C   UNL     1      -2.312   8.871  -3.049  0.00  0.00    +0.037 C 
ATOM     13  C   UNL     1      -2.721   5.808  -2.344  0.00  0.00    +0.263 A 
ATOM     14  O   UNL     1      -3.651   6.526  -2.018  0.00  0.00    -0.267 OA
ATOM     15  N   UNL     1      -2.766   4.484  -2.107  0.00  0.00    -0.283 N 
BRANCH  15  16
ATOM     16  C   UNL     1      -3.945   3.910  -1.452  0.00  0.00    +0.154 C 
BRANCH  16  17
ATOM     17  C   UNL     1      -3.747   3.926   0.042  0.00  0.00    -0.013 C 
ATOM     18  C   UNL     1      -4.633   4.504   0.814  0.00  0.00    +0.005 C 
ENDBRANCH  16  17
ENDBRANCH  15  16
ENDBRANCH   1   2
BRANCH   1  19
ATOM     19  C   UNL     1      -0.270   1.274  -2.754  0.00  0.00    +0.113 C 
BRANCH  19  23
ATOM     20  C   UNL     1       0.677   1.499  -0.145  0.00  0.00    +0.046 C 
ATOM     21  C   UNL     1       0.638  -0.008  -0.140  0.00  0.00    -0.020 A 
ATOM     22  C   UNL     1       0.212  -0.733  -1.264  0.00  0.00    +0.014 A 
ATOM     23  C   UNL     1      -0.228  -0.215  -2.524  0.00  0.00    -0.022 A 
ATOM     24  C   UNL     1      -0.607  -1.061  -3.509  0.00  0.00    +0.075 A 
ATOM     25  C   UNL     1      -0.575  -2.454  -3.312  0.00  0.00    +0.250 A 
ATOM     26  O   UNL     1      -0.919  -3.206  -4.209  0.00  0.00    -0.268 OA
ATOM     27  N   UNL     1      -0.162  -2.957  -2.132  0.00  0.00    -0.317 N 
ATOM     28  H   UNL     1      -0.141  -3.917  -1.999  0.00  0.00    +0.169 HD
ATOM     29  C   UNL     1       0.224  -2.130  -1.126  0.00  0.00    +0.089 A 
ATOM     30  S   UNL     1       0.777  -2.410   0.428  0.00  0.00    -0.064 S 
ATOM     31  C   UNL     1       1.020  -0.727   0.957  0.00  0.00    +0.106 A 
BRANCH  31  32
ATOM     32  C   UNL     1       1.492  -0.251   2.207  0.00  0.00    +0.393 C 
ATOM     33  O   UNL     1       1.597   0.954   2.403  0.00  0.00    -0.240 OA
ATOM     34  O   UNL     1       1.794  -1.044   3.090  0.00  0.00    -0.240 OA
ENDBRANCH  31  32
ENDBRANCH  19  23
ENDBRANCH   1  19
TORSDOF 6
