REMARK  Name = ZINC39968059
REMARK  9 active torsions:
REMARK  status: ('A' for Active; 'I' for Inactive)
REMARK    1  A    between atoms: C_1  and  O_2
REMARK    2  A    between atoms: O_2  and  C_3
REMARK    3  A    between atoms: C_8  and  C_13
REMARK    4  A    between atoms: C_13  and  C_34
REMARK    5  A    between atoms: C_14  and  C_15
REMARK    6  A    between atoms: C_18  and  O_22
REMARK    7  A    between atoms: O_22  and  C_23
REMARK    8  A    between atoms: C_23  and  C_24
REMARK    9  A    between atoms: C_27  and  C_30
REMARK                            x       y       z     vdW  Elec       q    Type
REMARK                         _______ _______ _______ _____ _____    ______ ____
ROOT
ATOM      1  C   UNL     1       3.008  -6.309   5.255  0.00  0.00    -0.021 A 
ATOM      2  C   UNL     1       1.702  -5.808   5.306  0.00  0.00    +0.031 A 
ATOM      3  C   UNL     1       0.805  -6.321   6.218  0.00  0.00    +0.085 A 
ATOM      4  C   UNL     1       1.196  -7.335   7.086  0.00  0.00    +0.157 A 
ATOM      5  C   UNL     1       2.492  -7.835   7.039  0.00  0.00    +0.085 A 
ATOM      6  C   UNL     1       3.395  -7.332   6.127  0.00  0.00    +0.031 A 
ATOM      7 CL   UNL     1       2.972  -9.100   8.127  0.00  0.00    -0.080 Cl
ATOM      8 CL   UNL     1      -0.815  -5.701   6.282  0.00  0.00    -0.080 Cl
ENDROOT
BRANCH   1  10
ATOM      9  C   UNL     1       3.973  -4.445   4.005  0.00  0.00    +0.072 C 
ATOM     10  C   UNL     1       3.969  -5.765   4.283  0.00  0.00    +0.026 C 
BRANCH   9  16
ATOM     11  C   UNL     1       1.952   0.751   3.485  0.00  0.00    +0.122 A 
ATOM     12  C   UNL     1       3.106   1.077   4.313  0.00  0.00    +0.048 A 
ATOM     13  C   UNL     1       3.818   0.126   4.947  0.00  0.00    +0.031 A 
ATOM     14  C   UNL     1       3.433  -1.287   4.812  0.00  0.00    +0.061 A 
ATOM     15  N   UNL     1       3.936  -2.382   5.304  0.00  0.00    -0.359 N 
ATOM     16  C   UNL     1       3.122  -3.501   4.815  0.00  0.00    +0.216 C 
ATOM     17  N   UNL     1       2.075  -2.914   3.970  0.00  0.00    -0.359 N 
ATOM     18  C   UNL     1       2.255  -1.621   3.967  0.00  0.00    +0.064 A 
ATOM     19  C   UNL     1       1.532  -0.527   3.316  0.00  0.00    +0.073 A 
ATOM     20  H   UNL     1       4.708  -2.447   5.887  0.00  0.00    +0.162 HD
ATOM     21  H   UNL     1       1.377  -3.398   3.501  0.00  0.00    +0.162 HD
BRANCH  11  23
ATOM     22  C   UNL     1       1.757   3.083   3.082  0.00  0.00    +0.277 C 
ATOM     23  O   UNL     1       1.276   1.754   2.872  0.00  0.00    -0.495 OA
ENDBRANCH  11  23
ENDBRANCH   9  16
BRANCH   9  24
ATOM     24  C   UNL     1       4.786  -3.940   2.940  0.00  0.00    +0.099 C 
ATOM     25  N   UNL     1       5.431  -3.540   2.095  0.00  0.00    -0.191 NA
ENDBRANCH   9  24
ENDBRANCH   1  10
BRANCH   4  26
ATOM     26  O   UNL     1       0.308  -7.837   7.983  0.00  0.00    -0.484 OA
BRANCH  26  27
ATOM     27  C   UNL     1      -0.484  -8.948   7.560  0.00  0.00    +0.264 C 
BRANCH  27  28
ATOM     28  C   UNL     1      -1.403  -9.365   8.679  0.00  0.00    -0.010 A 
ATOM     29  C   UNL     1      -0.981 -10.306   9.602  0.00  0.00    +0.008 A 
ATOM     30  C   UNL     1      -1.817 -10.693  10.629  0.00  0.00    +0.015 A 
ATOM     31  C   UNL     1      -3.092 -10.132  10.735  0.00  0.00    +0.063 A 
ATOM     32  C   UNL     1      -3.511  -9.183   9.799  0.00  0.00    +0.015 A 
ATOM     33  C   UNL     1      -2.663  -8.802   8.781  0.00  0.00    +0.008 A 
BRANCH  31  34
ATOM     34  C   UNL     1      -3.993 -10.541  11.830  0.00  0.00    +0.387 C 
ATOM     35  O   UNL     1      -3.623 -11.373  12.647  0.00  0.00    -0.241 OA
ATOM     36  O   UNL     1      -5.109 -10.049  11.921  0.00  0.00    -0.241 OA
ENDBRANCH  31  34
ENDBRANCH  27  28
ENDBRANCH  26  27
ENDBRANCH   4  26
TORSDOF 8
