REMARK  Name = ZINC52943873
REMARK  6 active torsions:
REMARK  status: ('A' for Active; 'I' for Inactive)
REMARK    1  A    between atoms: C_1  and  C_2
REMARK    2  A    between atoms: C_5  and  O_23
REMARK    3  A    between atoms: C_6  and  C_8
REMARK    4  A    between atoms: C_8  and  C_10
REMARK    5  A    between atoms: C_8  and  O_22
REMARK    6  A    between atoms: O_23  and  C_24
REMARK                            x       y       z     vdW  Elec       q    Type
REMARK                         _______ _______ _______ _____ _____    ______ ____
ROOT
ATOM      1  C   UNL     1       0.052  -2.841   2.493  0.00  0.00    +0.178 C 
ENDROOT
BRANCH   1   2
ATOM      2  C   UNL     1       1.474  -3.182   2.858  0.00  0.00    -0.013 A 
ATOM      3  C   UNL     1       2.250  -2.262   3.542  0.00  0.00    +0.008 A 
ATOM      4  C   UNL     1       3.554  -2.565   3.881  0.00  0.00    +0.028 A 
ATOM      5  C   UNL     1       4.088  -3.797   3.534  0.00  0.00    +0.067 A 
ATOM      6  C   UNL     1       3.306  -4.725   2.844  0.00  0.00    +0.067 A 
ATOM      7  C   UNL     1       1.996  -4.413   2.513  0.00  0.00    +0.034 A 
ATOM      8  N   UNL     1       4.102  -5.849   2.639  0.00  0.00    -0.306 N 
ATOM      9  H   UNL     1       3.830  -6.662   2.184  0.00  0.00    +0.170 HD
ATOM     10  C   UNL     1       5.313  -5.616   3.180  0.00  0.00    +0.325 A 
ATOM     11  O   UNL     1       6.245  -6.398   3.175  0.00  0.00    -0.247 OA
ATOM     12  N   UNL     1       5.335  -4.386   3.727  0.00  0.00    -0.306 N 
ATOM     13  H   UNL     1       6.091  -3.980   4.179  0.00  0.00    +0.170 HD
ENDBRANCH   1   2
BRANCH   1  19
ATOM     14  C   UNL     1      -0.018   1.503   0.010  0.00  0.00    +0.044 C 
ATOM     15  C   UNL     1       0.002  -0.004   0.002  0.00  0.00    -0.050 A 
ATOM     16  C   UNL     1       0.006  -0.688  -1.200  0.00  0.00    +0.007 A 
ATOM     17  C   UNL     1       0.024  -2.069  -1.210  0.00  0.00    +0.046 A 
ATOM     18  C   UNL     1       0.039  -2.770  -0.013  0.00  0.00    +0.126 A 
ATOM     19  C   UNL     1       0.036  -2.082   1.191  0.00  0.00    +0.027 A 
ATOM     20  C   UNL     1       0.023  -0.701   1.196  0.00  0.00    +0.013 A 
BRANCH  18  21
ATOM     21  O   UNL     1       0.057  -4.129  -0.021  0.00  0.00    -0.495 OA
ATOM     22  C   UNL     1       0.058  -4.771  -1.298  0.00  0.00    +0.277 C 
ENDBRANCH  18  21
ENDBRANCH   1  19
BRANCH   1  23
ATOM     23  O   UNL     1      -0.523  -2.033   3.522  0.00  0.00    -0.382 OA
ATOM     24  H   UNL     1      -0.059  -1.198   3.673  0.00  0.00    +0.211 HD
ENDBRANCH   1  23
TORSDOF 4
