REMARK  Name = ZINC60355020
REMARK  7 active torsions:
REMARK  status: ('A' for Active; 'I' for Inactive)
REMARK    1  A    between atoms: C_1  and  C_2
REMARK    2  A    between atoms: C_5  and  C_7
REMARK    3  A    between atoms: C_7  and  C_9
REMARK    4  A    between atoms: C_7  and  N_29
REMARK    5  A    between atoms: C_9  and  N_10
REMARK    6  A    between atoms: C_11  and  C_13
REMARK    7  A    between atoms: C_19  and  C_21
REMARK                            x       y       z     vdW  Elec       q    Type
REMARK                         _______ _______ _______ _____ _____    ______ ____
ROOT
ATOM      1  N   UNL     1       3.147  -4.593   1.429  0.00  0.00    -0.315 N 
ATOM      2  C   UNL     1       3.680  -5.105   2.557  0.00  0.00    +0.234 C 
ATOM      3  O   UNL     1       3.429  -4.598   3.630  0.00  0.00    -0.274 OA
ATOM      4  H   UNL     1       3.347  -4.998   0.571  0.00  0.00    +0.149 HD
ENDROOT
BRANCH   2   5
ATOM      5  C   UNL     1       4.587  -6.306   2.483  0.00  0.00    +0.162 C 
ATOM      6  C   UNL     1       3.817  -7.510   1.902  0.00  0.00    +0.033 C 
ATOM      7  C   UNL     1       4.354  -8.702   2.738  0.00  0.00    +0.021 C 
ATOM      8  C   UNL     1       4.551  -8.044   4.127  0.00  0.00    +0.109 C 
ATOM      9  N   UNL     1       5.033  -6.679   3.834  0.00  0.00    -0.286 N 
ATOM     10  C   UNL     1       5.759  -5.903   4.663  0.00  0.00    +0.247 C 
ATOM     11  O   UNL     1       6.194  -4.837   4.274  0.00  0.00    -0.270 OA
BRANCH  10  12
ATOM     12  C   UNL     1       6.026  -6.349   6.048  0.00  0.00    +0.040 A 
ATOM     13  C   UNL     1       7.134  -5.859   6.740  0.00  0.00    +0.033 A 
ATOM     14  C   UNL     1       7.378  -6.280   8.032  0.00  0.00    +0.043 A 
ATOM     15  C   UNL     1       6.527  -7.185   8.641  0.00  0.00    +0.040 A 
ATOM     16  C   UNL     1       5.426  -7.675   7.960  0.00  0.00    +0.043 A 
ATOM     17  C   UNL     1       5.167  -7.258   6.669  0.00  0.00    +0.033 A 
ATOM     18 CL   UNL     1       4.364  -8.811   8.731  0.00  0.00    -0.083 Cl
ATOM     19 CL   UNL     1       8.757  -5.672   8.895  0.00  0.00    -0.083 Cl
ENDBRANCH  10  12
ENDBRANCH   2   5
BRANCH   1  20
ATOM     20  C   UNL     1       2.265  -3.425   1.500  0.00  0.00    +0.096 C 
BRANCH  20  21
ATOM     21  C   UNL     1       1.701  -3.127   0.110  0.00  0.00    +0.016 C 
BRANCH  21  26
ATOM     22  C   UNL     1      -2.105  -6.380  -0.499  0.00  0.00    +0.086 C 
ATOM     23  C   UNL     1      -0.756  -5.723  -0.636  0.00  0.00    +0.102 A 
ATOM     24  C   UNL     1       0.259  -6.162  -1.402  0.00  0.00    +0.044 A 
ATOM     25  C   UNL     1       1.325  -5.250  -1.232  0.00  0.00    +0.043 A 
ATOM     26  C   UNL     1       0.899  -4.308  -0.372  0.00  0.00    +0.093 A 
ATOM     27  O   UNL     1      -0.364  -4.596  -0.018  0.00  0.00    -0.466 OA
ENDBRANCH  21  26
BRANCH  21  28
ATOM     28  N   UNL     1       0.835  -1.942   0.177  0.00  0.00    +0.387 N 
ATOM     29  C   UNL     1       1.648  -0.729   0.452  0.00  0.00    -0.078 C 
ATOM     30  C   UNL     1       0.747   0.424  -0.058  0.00  0.00    -0.020 C 
ATOM     31  C   UNL     1       0.093  -0.181  -1.321  0.00  0.00    -0.020 C 
ATOM     32  C   UNL     1       0.191  -1.706  -1.133  0.00  0.00    -0.078 C 
ATOM     33  H   UNL     1       0.135  -2.062   0.893  0.00  0.00    -0.081 HD
ENDBRANCH  21  28
ENDBRANCH  20  21
ENDBRANCH   1  20
TORSDOF 6
