REMARK  Name = ZINC38971004
REMARK  4 active torsions:
REMARK  status: ('A' for Active; 'I' for Inactive)
REMARK    1  A    between atoms: C_9  and  O_26
REMARK    2  A    between atoms: C_10  and  C_11
REMARK    3  A    between atoms: N_12  and  N_13
REMARK    4  A    between atoms: C_14  and  C_20
REMARK                            x       y       z     vdW  Elec       q    Type
REMARK                         _______ _______ _______ _____ _____    ______ ____
ROOT
ATOM      1  C   UNL     1       5.003   0.089   0.164  0.00  0.00    +0.142 C 
ATOM      2  N   UNL     1       6.110  -0.556  -0.061  0.00  0.00    -0.183 NA
ENDROOT
BRANCH   1  12
ATOM      3  C   UNL     1       0.063   1.365   0.912  0.00  0.00    +0.001 A 
ATOM      4  C   UNL     1       1.256   2.083   0.895  0.00  0.00    +0.001 A 
ATOM      5  C   UNL     1       2.446   1.460   0.664  0.00  0.00    +0.009 A 
ATOM      6  C   UNL     1       2.471   0.078   0.441  0.00  0.00    -0.006 A 
ATOM      7  C   UNL     1       1.260  -0.656   0.458  0.00  0.00    -0.017 A 
ATOM      8  C   UNL     1       0.051   0.020   0.699  0.00  0.00    +0.008 A 
ATOM      9  C   UNL     1       1.287  -2.044   0.235  0.00  0.00    +0.012 A 
ATOM     10  C   UNL     1       2.461  -2.689   0.004  0.00  0.00    +0.046 A 
ATOM     11  C   UNL     1       3.678  -2.011  -0.022  0.00  0.00    +0.126 A 
ATOM     12  C   UNL     1       3.724  -0.632   0.191  0.00  0.00    +0.044 A 
BRANCH  11  13
ATOM     13  O   UNL     1       4.827  -2.695  -0.257  0.00  0.00    -0.506 OA
ATOM     14  H   UNL     1       5.065  -2.756  -1.192  0.00  0.00    +0.292 HD
ENDBRANCH  11  13
ENDBRANCH   1  12
BRANCH   2  15
ATOM     15  N   UNL     1       7.318   0.143  -0.175  0.00  0.00    -0.171 N 
ATOM     16  C   UNL     1       8.675  -0.416  -0.316  0.00  0.00    +0.280 C 
ATOM     17  N   UNL     1       9.540   0.771  -0.392  0.00  0.00    -0.188 NA
ATOM     18  N   UNL     1       8.824   1.773  -0.310  0.00  0.00    -0.219 N 
ATOM     19  C   UNL     1       7.501   1.482  -0.187  0.00  0.00    +0.174 C 
ATOM     20  S   UNL     1       6.250   2.643  -0.059  0.00  0.00    -0.015 S 
ATOM     21  H   UNL     1       9.170   2.679  -0.336  0.00  0.00    +0.176 HD
BRANCH  16  22
ATOM     22  C   UNL     1       9.029  -1.256   0.884  0.00  0.00    +0.062 A 
ATOM     23  C   UNL     1       8.030  -1.922   1.569  0.00  0.00    +0.025 A 
ATOM     24  C   UNL     1       8.366  -2.692   2.672  0.00  0.00    +0.003 A 
ATOM     25  C   UNL     1       9.700  -2.764   3.046  0.00  0.00    +0.017 A 
ATOM     26  C   UNL     1      10.643  -2.071   2.311  0.00  0.00    +0.083 A 
ATOM     27  N   UNL     1      10.287  -1.352   1.264  0.00  0.00    -0.361 N 
ATOM     28  H   UNL     1      10.970  -0.878   0.763  0.00  0.00    +0.165 HD
ENDBRANCH  16  22
ENDBRANCH   2  15
TORSDOF 4
