REMARK  Name = ZINC12020012
REMARK  7 active torsions:
REMARK  status: ('A' for Active; 'I' for Inactive)
REMARK    1  A    between atoms: C_1  and  C_2
REMARK    2  A    between atoms: C_2  and  C_3
REMARK    3  A    between atoms: C_3  and  C_22
REMARK    4  A    between atoms: N_6  and  C_10
REMARK    5  A    between atoms: C_10  and  C_11
REMARK    6  A    between atoms: C_27  and  C_28
REMARK    7  A    between atoms: C_27  and  N_67
REMARK                            x       y       z     vdW  Elec       q    Type
REMARK                         _______ _______ _______ _____ _____    ______ ____
ROOT
ATOM      1  C   UNL     1      -0.076   1.053  -2.491  0.00  0.00    +0.115 C 
ATOM      2  C   UNL     1       0.130  -0.445  -2.384  0.00  0.00    +0.247 C 
ATOM      3  O   UNL     1      -0.726  -1.296  -2.267  0.00  0.00    -0.273 OA
ATOM      4  N   UNL     1       1.463  -0.634  -2.445  0.00  0.00    -0.221 N 
ATOM      5  C   UNL     1       2.121   0.523  -2.574  0.00  0.00    +0.309 C 
ATOM      6  O   UNL     1       3.331   0.609  -2.650  0.00  0.00    -0.252 OA
ATOM      7  N   UNL     1       1.293   1.583  -2.611  0.00  0.00    -0.285 N 
ATOM      8  H   UNL     1       1.548   2.515  -2.699  0.00  0.00    +0.151 HD
ENDROOT
BRANCH   1   9
ATOM      9  C   UNL     1      -0.755   1.594  -1.231  0.00  0.00    +0.018 C 
ATOM     10  C   UNL     1      -0.013   1.086   0.008  0.00  0.00    -0.013 C 
ATOM     11  C   UNL     1      -0.731   1.580   1.266  0.00  0.00    -0.078 C 
ATOM     12  C   UNL     1      -2.861   1.601   0.109  0.00  0.00    -0.078 C 
ATOM     13  C   UNL     1      -2.206   1.108  -1.183  0.00  0.00    -0.013 C 
ATOM     14  N   UNL     1      -2.114   1.058   1.264  0.00  0.00    +0.384 N 
ATOM     15  H   UNL     1      -2.084   0.034   1.189  0.00  0.00    -0.081 HD
BRANCH  14  16
ATOM     16  C   UNL     1      -2.794   1.427   2.523  0.00  0.00    -0.003 C 
BRANCH  16  17
ATOM     17  C   UNL     1      -1.890   1.106   3.685  0.00  0.00    +0.090 A 
ATOM     18  C   UNL     1      -1.006   1.955   4.226  0.00  0.00    +0.051 A 
ATOM     19  C   UNL     1      -0.355   1.226   5.321  0.00  0.00    +0.020 A 
ATOM     20  C   UNL     1       0.632   1.543   6.253  0.00  0.00    +0.011 A 
ATOM     21  C   UNL     1       1.030   0.605   7.165  0.00  0.00    +0.001 A 
ATOM     22  C   UNL     1       0.458  -0.659   7.168  0.00  0.00    +0.004 A 
ATOM     23  C   UNL     1      -0.519  -0.991   6.254  0.00  0.00    +0.047 A 
ATOM     24  C   UNL     1      -0.938  -0.053   5.319  0.00  0.00    +0.135 A 
ATOM     25  O   UNL     1      -1.848  -0.076   4.325  0.00  0.00    -0.462 OA
ENDBRANCH  16  17
ENDBRANCH  14  16
ENDBRANCH   1   9
BRANCH   1  27
ATOM     26  C   UNL     1      -0.199   0.847  -4.978  0.00  0.00    +0.006 C 
ATOM     27  C   UNL     1      -0.898   1.399  -3.734  0.00  0.00    +0.032 C 
ENDBRANCH   1  27
BRANCH   4  28
ATOM     28  C   UNL     1       2.112  -1.946  -2.379  0.00  0.00    +0.166 C 
BRANCH  28  29
ATOM     29  C   UNL     1       2.420  -2.290  -0.920  0.00  0.00    +0.229 C 
ATOM     30  C   UNL     1       3.127  -3.650  -0.847  0.00  0.00    +0.275 C 
ATOM     31  O   UNL     1       3.412  -3.934   0.527  0.00  0.00    -0.485 OA
ATOM     32  C   UNL     1       3.958  -2.925   1.260  0.00  0.00    +0.162 A 
ATOM     33  C   UNL     1       4.580  -3.217   2.465  0.00  0.00    +0.049 A 
ATOM     34  C   UNL     1       5.133  -2.203   3.223  0.00  0.00    +0.004 A 
ATOM     35  C   UNL     1       5.068  -0.893   2.783  0.00  0.00    +0.004 A 
ATOM     36  C   UNL     1       4.451  -0.595   1.583  0.00  0.00    +0.049 A 
ATOM     37  C   UNL     1       3.895  -1.609   0.817  0.00  0.00    +0.163 A 
ATOM     38  O   UNL     1       3.293  -1.300  -0.365  0.00  0.00    -0.480 OA
ENDBRANCH  28  29
ENDBRANCH   4  28
TORSDOF 6
