REMARK  Name = ZINC14473007
REMARK  7 active torsions:
REMARK  status: ('A' for Active; 'I' for Inactive)
REMARK    1  A    between atoms: C_1  and  C_2
REMARK    2  A    between atoms: C_6  and  C_38
REMARK    3  A    between atoms: C_7  and  N_8
REMARK    4  A    between atoms: N_8  and  S_9
REMARK    5  A    between atoms: S_9  and  C_12
REMARK    6  A    between atoms: C_25  and  C_28
REMARK    7  A    between atoms: C_30  and  N_35
REMARK                            x       y       z     vdW  Elec       q    Type
REMARK                         _______ _______ _______ _____ _____    ______ ____
ROOT
ATOM      1  C   UNL     1      -3.635   4.208  -3.191  0.00  0.00    +0.109 A 
ATOM      2  C   UNL     1      -3.546   3.700  -1.908  0.00  0.00    +0.030 A 
ATOM      3  C   UNL     1      -2.321   3.297  -1.415  0.00  0.00    +0.025 A 
ATOM      4  C   UNL     1      -1.184   3.403  -2.207  0.00  0.00    +0.031 A 
ATOM      5  C   UNL     1      -1.268   3.914  -3.493  0.00  0.00    -0.018 A 
ATOM      6  C   UNL     1      -2.506   4.314  -3.977  0.00  0.00    +0.034 A 
ATOM      7  C   UNL     1      -0.072   4.050  -4.380  0.00  0.00    +0.049 C 
ATOM      8  C   UNL     1      -0.059   2.990  -5.456  0.00  0.00    -0.023 C 
ATOM      9  C   UNL     1       1.169   2.600  -5.694  0.00  0.00    -0.030 C 
ATOM     10  C   UNL     1       2.146   3.353  -4.811  0.00  0.00    +0.033 C 
ATOM     11  C   UNL     1       1.259   3.846  -3.631  0.00  0.00    +0.029 C 
ATOM     12  C   UNL     1       1.129   2.685  -2.642  0.00  0.00    +0.106 C 
ATOM     13  N   UNL     1       0.050   2.986  -1.695  0.00  0.00    -0.336 N 
ATOM     14  H   UNL     1       0.187   2.897  -0.739  0.00  0.00    +0.147 HD
ENDROOT
BRANCH  12  15
ATOM     15  C   UNL     1       0.806   1.418  -3.391  0.00  0.00    -0.007 A 
ATOM     16  C   UNL     1      -0.511   1.034  -3.564  0.00  0.00    +0.039 A 
ATOM     17  C   UNL     1      -0.808  -0.125  -4.256  0.00  0.00    +0.127 A 
ATOM     18  C   UNL     1       0.212  -0.907  -4.766  0.00  0.00    +0.034 A 
ATOM     19  C   UNL     1       1.528  -0.524  -4.594  0.00  0.00    +0.022 A 
ATOM     20  C   UNL     1       1.826   0.639  -3.905  0.00  0.00    +0.046 A 
ATOM     21 CL   UNL     1       3.480   1.120  -3.689  0.00  0.00    -0.083 Cl
BRANCH  17  22
ATOM     22  N   UNL     1      -2.219  -0.532  -4.446  0.00  0.00    +0.056 N 
ATOM     23  O   UNL     1      -2.487  -1.482  -5.159  0.00  0.00    -0.126 OA
ATOM     24  O   UNL     1      -3.110   0.084  -3.890  0.00  0.00    -0.126 OA
ENDBRANCH  17  22
ENDBRANCH  12  15
BRANCH   1  25
ATOM     25  S   UNL     1      -5.197   4.721  -3.825  0.00  0.00    +0.072 S 
ATOM     26  O   UNL     1      -5.814   5.495  -2.805  0.00  0.00    -0.150 OA
ATOM     27  O   UNL     1      -4.958   5.231  -5.130  0.00  0.00    -0.150 OA
BRANCH  25  28
ATOM     28  N   UNL     1      -6.121   3.360  -4.011  0.00  0.00    -0.216 N 
ATOM     29  H   UNL     1      -6.029   2.816  -4.808  0.00  0.00    +0.174 HD
BRANCH  28  36
ATOM     30  C   UNL     1      -5.504   1.111  -2.380  0.00  0.00    +0.046 C 
ATOM     31  C   UNL     1      -6.774   1.903  -2.200  0.00  0.00    -0.028 A 
ATOM     32  C   UNL     1      -7.676   1.548  -1.217  0.00  0.00    +0.005 A 
ATOM     33  C   UNL     1      -8.844   2.271  -1.054  0.00  0.00    +0.001 A 
ATOM     34  C   UNL     1      -9.109   3.355  -1.871  0.00  0.00    +0.005 A 
ATOM     35  C   UNL     1      -8.208   3.719  -2.853  0.00  0.00    -0.028 A 
ATOM     36  C   UNL     1      -7.035   2.995  -3.019  0.00  0.00    +0.054 A 
ATOM     37  C   UNL     1      -8.499   4.900  -3.743  0.00  0.00    +0.046 C 
ENDBRANCH  28  36
ENDBRANCH  25  28
ENDBRANCH   1  25
TORSDOF 5
