REMARK  Name = ZINC64137477
REMARK  8 active torsions:
REMARK  status: ('A' for Active; 'I' for Inactive)
REMARK    1  A    between atoms: C_1  and  O_2
REMARK    2  A    between atoms: O_2  and  C_3
REMARK    3  A    between atoms: C_6  and  C_9
REMARK    4  A    between atoms: C_9  and  C_11
REMARK    5  A    between atoms: C_9  and  C_26
REMARK    6  A    between atoms: C_11  and  N_12
REMARK    7  A    between atoms: N_12  and  S_13
REMARK    8  A    between atoms: S_13  and  C_16
REMARK                            x       y       z     vdW  Elec       q    Type
REMARK                         _______ _______ _______ _____ _____    ______ ____
ROOT
ATOM      1  C   UNL     1       2.587  -2.550   4.310  0.00  0.00    +0.063 C 
ENDROOT
BRANCH   1   2
ATOM      2  C   UNL     1       1.604  -3.434   5.035  0.00  0.00    -0.033 C 
ATOM      3  C   UNL     1       1.228  -3.340   6.330  0.00  0.00    -0.000 A 
ATOM      4  C   UNL     1       1.607  -2.424   7.412  0.00  0.00    +0.010 A 
ATOM      5  C   UNL     1       1.048  -2.583   8.633  0.00  0.00    +0.001 A 
ATOM      6  C   UNL     1       0.119  -3.600   8.891  0.00  0.00    +0.002 A 
ATOM      7  C   UNL     1      -0.279  -4.481   7.949  0.00  0.00    +0.026 A 
ATOM      8  C   UNL     1       0.244  -4.405   6.628  0.00  0.00    +0.043 A 
ATOM      9  N   UNL     1       0.020  -5.129   5.558  0.00  0.00    -0.380 N 
ATOM     10  C   UNL     1       0.834  -4.601   4.458  0.00  0.00    +0.145 C 
ATOM     11  H   UNL     1      -0.585  -5.885   5.503  0.00  0.00    +0.160 HD
ENDBRANCH   1   2
BRANCH   1  15
ATOM     12  C   UNL     1       0.626  -0.618   1.042  0.00  0.00    +0.120 A 
ATOM     13  C   UNL     1       1.202   0.138   2.051  0.00  0.00    +0.046 A 
ATOM     14  C   UNL     1       1.835  -0.488   3.107  0.00  0.00    +0.008 A 
ATOM     15  C   UNL     1       1.895  -1.869   3.158  0.00  0.00    -0.039 A 
ATOM     16  C   UNL     1       1.322  -2.625   2.152  0.00  0.00    +0.008 A 
ATOM     17  C   UNL     1       0.682  -2.003   1.098  0.00  0.00    +0.046 A 
BRANCH  12  19
ATOM     18  C   UNL     1      -0.017   1.425   0.010  0.00  0.00    +0.277 C 
ATOM     19  O   UNL     1       0.002  -0.004   0.002  0.00  0.00    -0.495 OA
ENDBRANCH  12  19
ENDBRANCH   1  15
BRANCH   1  20
ATOM     20  C   UNL     1       3.743  -3.400   3.781  0.00  0.00    +0.118 C 
BRANCH  20  21
ATOM     21  N   UNL     1       4.489  -3.967   4.907  0.00  0.00    -0.189 NA
ATOM     22  H   UNL     1       4.360  -3.612   5.801  0.00  0.00    +0.148 HD
BRANCH  21  23
ATOM     23  S   UNL     1       5.550  -5.213   4.655  0.00  0.00    +0.058 S 
ATOM     24  O   UNL     1       6.127  -5.517   5.918  0.00  0.00    -0.153 OA
ATOM     25  O   UNL     1       4.861  -6.183   3.879  0.00  0.00    -0.153 OA
BRANCH  23  26
ATOM     26  C   UNL     1       6.852  -4.590   3.644  0.00  0.00    +0.106 A 
ATOM     27  C   UNL     1       6.754  -4.660   2.266  0.00  0.00    +0.030 A 
ATOM     28  C   UNL     1       7.770  -4.175   1.469  0.00  0.00    +0.025 A 
ATOM     29  C   UNL     1       8.905  -3.610   2.048  0.00  0.00    +0.037 A 
ATOM     30  C   UNL     1       8.991  -3.545   3.433  0.00  0.00    -0.016 A 
ATOM     31  C   UNL     1       7.974  -4.026   4.226  0.00  0.00    +0.034 A 
ATOM     32  C   UNL     1      10.317  -2.890   3.746  0.00  0.00    +0.133 C 
ATOM     33  C   UNL     1      10.922  -2.615   2.386  0.00  0.00    +0.222 C 
ATOM     34  O   UNL     1      11.994  -2.093   2.167  0.00  0.00    -0.275 OA
ATOM     35  N   UNL     1      10.047  -3.059   1.467  0.00  0.00    -0.285 N 
ATOM     36  H   UNL     1      10.194  -3.003   0.510  0.00  0.00    +0.155 HD
ENDBRANCH  23  26
ENDBRANCH  21  23
ENDBRANCH  20  21
ENDBRANCH   1  20
TORSDOF 7
