REMARK  Name = ZINC03168484
REMARK  7 active torsions:
REMARK  status: ('A' for Active; 'I' for Inactive)
REMARK    1  A    between atoms: C_4  and  C_7
REMARK    2  A    between atoms: P_9  and  N_20
REMARK    3  A    between atoms: C_12  and  C_14
REMARK    4  A    between atoms: N_20  and  C_21
REMARK    5  A    between atoms: C_21  and  C_22
REMARK    6  A    between atoms: C_22  and  C_24
REMARK    7  A    between atoms: C_22  and  N_60
REMARK                            x       y       z     vdW  Elec       q    Type
REMARK                         _______ _______ _______ _____ _____    ______ ____
ROOT
ATOM      1  C   UNL     1       1.055   1.139  -0.062  0.00  0.00    +0.140 C 
ATOM      2  C   UNL     1      -0.143   0.544  -0.057  0.00  0.00    +0.106 C 
ATOM      3  P   UNL     1      -1.591   1.660  -0.043  0.00  0.00    +0.199 P 
ATOM      4  O   UNL     1      -2.566   1.247  -1.078  0.00  0.00    -0.295 OA
ATOM      5  C   UNL     1      -0.928   3.319  -0.420  0.00  0.00    +0.106 C 
ATOM      6  C   UNL     1       0.403   3.445  -0.364  0.00  0.00    +0.140 C 
ATOM      7  O   UNL     1       1.243   2.461  -0.038  0.00  0.00    -0.454 OA
ENDROOT
BRANCH   1  11
ATOM      8  C   UNL     1       4.498  -1.348  -0.164  0.00  0.00    +0.000 A 
ATOM      9  C   UNL     1       4.643   0.028  -0.138  0.00  0.00    +0.001 A 
ATOM     10  C   UNL     1       3.528   0.841  -0.105  0.00  0.00    +0.011 A 
ATOM     11  C   UNL     1       2.255   0.273  -0.098  0.00  0.00    +0.017 A 
ATOM     12  C   UNL     1       2.116  -1.115  -0.118  0.00  0.00    +0.011 A 
ATOM     13  C   UNL     1       3.238  -1.917  -0.157  0.00  0.00    +0.001 A 
ENDBRANCH   1  11
BRANCH   6  14
ATOM     14  C   UNL     1       0.983   4.769  -0.687  0.00  0.00    +0.017 A 
ATOM     15  C   UNL     1       0.152   5.831  -1.039  0.00  0.00    +0.011 A 
ATOM     16  C   UNL     1       0.699   7.064  -1.333  0.00  0.00    +0.001 A 
ATOM     17  C   UNL     1       2.070   7.243  -1.290  0.00  0.00    +0.000 A 
ATOM     18  C   UNL     1       2.900   6.191  -0.946  0.00  0.00    +0.001 A 
ATOM     19  C   UNL     1       2.365   4.956  -0.645  0.00  0.00    +0.011 A 
ENDBRANCH   6  14
BRANCH   3  20
ATOM     20  N   UNL     1      -2.315   1.658   1.477  0.00  0.00    -0.262 NA
ATOM     21  H   UNL     1      -1.651   1.908   2.194  0.00  0.00    +0.130 HD
BRANCH  20  22
ATOM     22  C   UNL     1      -3.481   2.550   1.505  0.00  0.00    +0.078 C 
BRANCH  22  23
ATOM     23  C   UNL     1      -4.661   1.827   2.159  0.00  0.00    -0.016 C 
BRANCH  23  29
ATOM     24  C   UNL     1      -3.637   2.538   4.236  0.00  0.00    -0.049 C 
ATOM     25  C   UNL     1      -3.329   2.104   5.671  0.00  0.00    +0.141 C 
ATOM     26  O   UNL     1      -2.525   0.922   5.645  0.00  0.00    -0.383 OA
ATOM     27  C   UNL     1      -3.137  -0.175   4.962  0.00  0.00    +0.141 C 
ATOM     28  C   UNL     1      -3.443   0.235   3.519  0.00  0.00    -0.049 C 
ATOM     29  N   UNL     1      -4.318   1.426   3.541  0.00  0.00    +0.388 N 
ATOM     30  H   UNL     1      -5.183   1.196   4.045  0.00  0.00    -0.081 HD
ENDBRANCH  23  29
BRANCH  23  31
ATOM     31  C   UNL     1      -5.853   2.747   2.203  0.00  0.00    -0.023 A 
ATOM     32  C   UNL     1      -6.929   2.791   1.379  0.00  0.00    +0.009 A 
ATOM     33  C   UNL     1      -7.914   3.731   1.613  0.00  0.00    +0.008 A 
ATOM     34  C   UNL     1      -7.776   4.582   2.659  0.00  0.00    +0.045 A 
ATOM     35  S   UNL     1      -6.219   4.059   3.357  0.00  0.00    -0.103 S 
ENDBRANCH  23  31
ENDBRANCH  22  23
ENDBRANCH  20  22
ENDBRANCH   3  20
TORSDOF 7
