REMARK  Name = ZINC00624375
REMARK  7 active torsions:
REMARK  status: ('A' for Active; 'I' for Inactive)
REMARK    1  A    between atoms: C_1  and  O_2
REMARK    2  A    between atoms: O_2  and  C_3
REMARK    3  A    between atoms: C_8  and  N_9
REMARK    4  A    between atoms: C_10  and  C_21
REMARK    5  A    between atoms: C_23  and  O_30
REMARK    6  A    between atoms: C_24  and  O_29
REMARK    7  A    between atoms: O_30  and  C_31
REMARK                            x       y       z     vdW  Elec       q    Type
REMARK                         _______ _______ _______ _____ _____    ______ ____
ROOT
ATOM      1  N   UNL     1       2.478   4.291   0.205  0.00  0.00    -0.241 N 
ATOM      2  C   UNL     1       3.642   3.456   0.503  0.00  0.00    +0.199 C 
ATOM      3  N   UNL     1       3.482   2.127  -0.100  0.00  0.00    -0.321 N 
ATOM      4  C   UNL     1       2.249   1.492  -0.002  0.00  0.00    +0.041 A 
ATOM      5  C   UNL     1       2.138   0.112  -0.001  0.00  0.00    +0.024 A 
ATOM      6  C   UNL     1       0.890  -0.474   0.082  0.00  0.00    +0.002 A 
ATOM      7  C   UNL     1      -0.252   0.308   0.162  0.00  0.00    +0.001 A 
ATOM      8  C   UNL     1      -0.158   1.684   0.165  0.00  0.00    +0.015 A 
ATOM      9  C   UNL     1       1.094   2.289   0.088  0.00  0.00    +0.058 A 
ATOM     10  C   UNL     1       1.247   3.754   0.088  0.00  0.00    +0.254 C 
ATOM     11  O   UNL     1       0.272   4.473  -0.018  0.00  0.00    -0.270 OA
ATOM     12  H   UNL     1       4.223   1.700  -0.557  0.00  0.00    +0.148 HD
ENDROOT
BRANCH   2  13
ATOM     13  C   UNL     1       3.780   3.313   1.996  0.00  0.00    +0.014 A 
ATOM     14  C   UNL     1       2.667   3.436   2.807  0.00  0.00    +0.058 A 
ATOM     15  C   UNL     1       2.792   3.305   4.181  0.00  0.00    +0.163 A 
ATOM     16  C   UNL     1       4.039   3.049   4.743  0.00  0.00    +0.174 A 
ATOM     17  C   UNL     1       5.152   2.927   3.926  0.00  0.00    +0.082 A 
ATOM     18  C   UNL     1       5.020   3.054   2.553  0.00  0.00    +0.065 A 
ATOM     19 CL   UNL     1       6.413   2.893   1.530  0.00  0.00    -0.082 Cl
ATOM     20 BR   UNL     1       6.849   2.579   4.684  0.00  0.00    -0.045 Br
BRANCH  16  21
ATOM     21  O   UNL     1       4.166   2.920   6.091  0.00  0.00    -0.503 OA
ATOM     22  H   UNL     1       4.055   2.014   6.411  0.00  0.00    +0.292 HD
ENDBRANCH  16  21
BRANCH  15  23
ATOM     23  O   UNL     1       1.697   3.425   4.979  0.00  0.00    -0.491 OA
ATOM     24  C   UNL     1       0.449   3.688   4.333  0.00  0.00    +0.277 C 
ENDBRANCH  15  23
ENDBRANCH   2  13
BRANCH   1  30
ATOM     25  C   UNL     1       2.873   6.200  -1.231  0.00  0.00    +0.141 A 
ATOM     26  C   UNL     1       3.034   7.567  -1.390  0.00  0.00    +0.047 A 
ATOM     27  C   UNL     1       2.979   8.402  -0.289  0.00  0.00    +0.004 A 
ATOM     28  C   UNL     1       2.758   7.878   0.971  0.00  0.00    +0.002 A 
ATOM     29  C   UNL     1       2.592   6.516   1.137  0.00  0.00    +0.027 A 
ATOM     30  C   UNL     1       2.646   5.672   0.038  0.00  0.00    +0.080 A 
BRANCH  25  32
ATOM     31  C   UNL     1       3.286   5.971  -3.562  0.00  0.00    +0.277 C 
ATOM     32  O   UNL     1       2.932   5.376  -2.311  0.00  0.00    -0.493 OA
ENDBRANCH  25  32
ENDBRANCH   1  30
TORSDOF 5
