REMARK  Name = ZINC36546368
REMARK  7 active torsions:
REMARK  status: ('A' for Active; 'I' for Inactive)
REMARK    1  A    between atoms: C_4  and  C_7
REMARK    2  A    between atoms: C_7  and  C_9
REMARK    3  A    between atoms: C_7  and  N_18
REMARK    4  A    between atoms: N_11  and  C_12
REMARK    5  A    between atoms: N_18  and  C_19
REMARK    6  A    between atoms: C_26  and  C_28
REMARK    7  A    between atoms: C_28  and  C_29
REMARK                            x       y       z     vdW  Elec       q    Type
REMARK                         _______ _______ _______ _____ _____    ______ ____
ROOT
ATOM      1  N   UNL     1       3.671  -1.803   0.934  0.00  0.00    -0.254 N 
ATOM      2  C   UNL     1       2.934  -2.899   0.669  0.00  0.00    +0.225 C 
ATOM      3  O   UNL     1       2.200  -2.917  -0.297  0.00  0.00    -0.275 OA
ENDROOT
BRANCH   1   4
ATOM      4  C   UNL     1       4.518  -1.782   2.048  0.00  0.00    +0.056 A 
ATOM      5  C   UNL     1       4.061  -1.283   3.261  0.00  0.00    +0.025 A 
ATOM      6  C   UNL     1       4.899  -1.263   4.358  0.00  0.00    +0.002 A 
ATOM      7  C   UNL     1       6.193  -1.740   4.251  0.00  0.00    +0.002 A 
ATOM      8  C   UNL     1       6.652  -2.238   3.045  0.00  0.00    +0.022 A 
ATOM      9  C   UNL     1       5.816  -2.266   1.945  0.00  0.00    +0.062 A 
ATOM     10 CL   UNL     1       6.391  -2.898   0.433  0.00  0.00    -0.082 Cl
ENDBRANCH   1   4
BRANCH   1  11
ATOM     11  C   UNL     1       3.585  -0.633   0.057  0.00  0.00    +0.197 C 
BRANCH  11  15
ATOM     12  C   UNL     1      -0.459   0.733  -0.102  0.00  0.00    +0.000 A 
ATOM     13  C   UNL     1       0.140   0.215  -1.234  0.00  0.00    +0.000 A 
ATOM     14  C   UNL     1       1.449  -0.227  -1.183  0.00  0.00    +0.006 A 
ATOM     15  C   UNL     1       2.159  -0.150   0.001  0.00  0.00    -0.018 A 
ATOM     16  C   UNL     1       1.560   0.369   1.133  0.00  0.00    +0.006 A 
ATOM     17  C   UNL     1       0.250   0.810   1.082  0.00  0.00    +0.000 A 
ENDBRANCH  11  15
BRANCH  11  18
ATOM     18  C   UNL     1       4.043  -1.009  -1.329  0.00  0.00    +0.239 C 
ATOM     19  O   UNL     1       4.405  -2.143  -1.561  0.00  0.00    -0.273 OA
ATOM     20  N   UNL     1       4.050  -0.085  -2.310  0.00  0.00    -0.311 N 
ATOM     21  H   UNL     1       3.760   0.822  -2.125  0.00  0.00    +0.149 HD
BRANCH  20  22
ATOM     22  C   UNL     1       4.495  -0.451  -3.657  0.00  0.00    +0.073 C 
ATOM     23  C   UNL     1       6.019  -0.337  -3.739  0.00  0.00    +0.022 C 
ATOM     24  C   UNL     1       6.484  -0.719  -5.146  0.00  0.00    +0.002 C 
ATOM     25  C   UNL     1       5.846   0.224  -6.168  0.00  0.00    +0.000 C 
ATOM     26  C   UNL     1       4.322   0.110  -6.086  0.00  0.00    +0.002 C 
ATOM     27  C   UNL     1       3.857   0.492  -4.679  0.00  0.00    +0.022 C 
ENDBRANCH  20  22
ENDBRANCH  11  18
ENDBRANCH   1  11
BRANCH   2  28
ATOM     28  C   UNL     1       3.022  -4.103   1.571  0.00  0.00    +0.131 C 
BRANCH  28  29
ATOM     29  C   UNL     1       2.106  -5.184   1.057  0.00  0.00    -0.035 A 
ATOM     30  C   UNL     1       0.793  -5.238   1.488  0.00  0.00    +0.008 A 
ATOM     31  C   UNL     1      -0.051  -6.228   1.019  0.00  0.00    +0.050 A 
ATOM     32  C   UNL     1       0.418  -7.168   0.116  0.00  0.00    +0.166 A 
ATOM     33  C   UNL     1       1.740  -7.114  -0.317  0.00  0.00    +0.166 A 
ATOM     34  C   UNL     1       2.579  -6.116   0.152  0.00  0.00    +0.053 A 
ATOM     35  O   UNL     1       1.954  -8.138  -1.194  0.00  0.00    -0.453 OA
ATOM     36  C   UNL     1       0.869  -9.060  -0.980  0.00  0.00    +0.466 C 
ATOM     37  O   UNL     1      -0.197  -8.227  -0.488  0.00  0.00    -0.453 OA
ENDBRANCH  28  29
ENDBRANCH   2  28
TORSDOF 7
