REMARK  Name = ZINC17840839
REMARK  6 active torsions:
REMARK  status: ('A' for Active; 'I' for Inactive)
REMARK    1  A    between atoms: C_1  and  C_2
REMARK    2  A    between atoms: C_2  and  N_3
REMARK    3  A    between atoms: C_7  and  C_16
REMARK    4  A    between atoms: N_18  and  C_19
REMARK    5  A    between atoms: C_19  and  C_21
REMARK    6  A    between atoms: C_19  and  C_22
REMARK                            x       y       z     vdW  Elec       q    Type
REMARK                         _______ _______ _______ _____ _____    ______ ____
ROOT
ATOM      1  C   UNL     1      -5.819   3.388   1.315  0.00  0.00    +0.245 C 
ATOM      2  O   UNL     1      -5.889   2.179   1.417  0.00  0.00    -0.270 OA
ATOM      3  N   UNL     1      -4.788   3.950   0.653  0.00  0.00    -0.305 N 
ATOM      4  H   UNL     1      -4.732   4.915   0.572  0.00  0.00    +0.150 HD
ENDROOT
BRANCH   1   9
ATOM      5  N   UNL     1      -9.794   6.673   3.609  0.00  0.00    -0.303 N 
ATOM      6  C   UNL     1      -8.821   5.855   3.049  0.00  0.00    +0.068 A 
ATOM      7  C   UNL     1      -7.753   6.429   2.363  0.00  0.00    +0.029 A 
ATOM      8  C   UNL     1      -6.782   5.633   1.802  0.00  0.00    +0.015 A 
ATOM      9  C   UNL     1      -6.862   4.242   1.918  0.00  0.00    +0.039 A 
ATOM     10  C   UNL     1      -7.932   3.661   2.599  0.00  0.00    +0.040 A 
ATOM     11  C   UNL     1      -8.908   4.465   3.168  0.00  0.00    +0.067 A 
ATOM     12  N   UNL     1      -9.970   3.877   3.851  0.00  0.00    -0.316 N 
ATOM     13  H   UNL     1     -10.021   2.912   3.929  0.00  0.00    +0.169 HD
ATOM     14  C   UNL     1     -10.928   4.649   4.404  0.00  0.00    +0.314 A 
ATOM     15  O   UNL     1     -11.857   4.143   5.000  0.00  0.00    -0.262 OA
ATOM     16  C   UNL     1     -10.833   6.133   4.275  0.00  0.00    +0.316 A 
ATOM     17  O   UNL     1     -11.684   6.846   4.766  0.00  0.00    -0.262 OA
BRANCH   5  19
ATOM     18  C   UNL     1     -10.410   8.576   2.201  0.00  0.00    +0.027 C 
ATOM     19  C   UNL     1      -9.689   8.129   3.475  0.00  0.00    +0.122 C 
ENDBRANCH   5  19
ENDBRANCH   1   9
BRANCH   3  20
ATOM     20  C   UNL     1      -3.753   3.104   0.055  0.00  0.00    +0.101 C 
ATOM     21  C   UNL     1      -4.181   2.694  -1.356  0.00  0.00    +0.033 C 
BRANCH  20  22
ATOM     22  C   UNL     1      -2.457   3.869  -0.016  0.00  0.00    -0.020 A 
ATOM     23  C   UNL     1      -2.469   5.228  -0.101  0.00  0.00    +0.006 A 
ATOM     24  C   UNL     1      -1.280   5.953  -0.167  0.00  0.00    +0.001 A 
ATOM     25  C   UNL     1      -0.073   5.324  -0.149  0.00  0.00    +0.008 A 
ATOM     26  C   UNL     1      -0.021   3.922  -0.063  0.00  0.00    -0.018 A 
ATOM     27  C   UNL     1      -1.230   3.185   0.005  0.00  0.00    -0.013 A 
ATOM     28  C   UNL     1      -1.178   1.782   0.085  0.00  0.00    +0.009 A 
ATOM     29  C   UNL     1       0.029   1.154   0.108  0.00  0.00    +0.001 A 
ATOM     30  C   UNL     1       1.217   1.879   0.042  0.00  0.00    +0.001 A 
ATOM     31  C   UNL     1       1.206   3.237  -0.042  0.00  0.00    +0.008 A 
ENDBRANCH  20  22
ENDBRANCH   3  20
TORSDOF 4
