REMARK  Name = ZINC39941723
REMARK  7 active torsions:
REMARK  status: ('A' for Active; 'I' for Inactive)
REMARK    1  A    between atoms: C_1  and  C_2
REMARK    2  A    between atoms: C_2  and  C_3
REMARK    3  A    between atoms: C_3  and  C_5
REMARK    4  A    between atoms: C_3  and  O_22
REMARK    5  A    between atoms: N_7  and  N_8
REMARK    6  A    between atoms: C_9  and  C_10
REMARK    7  A    between atoms: O_22  and  C_23
REMARK                            x       y       z     vdW  Elec       q    Type
REMARK                         _______ _______ _______ _____ _____    ______ ____
ROOT
ATOM      1  C   UNL     1       1.042  -1.998  -1.376  0.00  0.00    +0.273 C 
ATOM      2  O   UNL     1       0.528  -2.665  -2.249  0.00  0.00    -0.270 OA
ATOM      3  N   UNL     1       1.863  -2.579  -0.479  0.00  0.00    -0.204 N 
ATOM      4  H   UNL     1       2.274  -2.046   0.219  0.00  0.00    +0.177 HD
ENDROOT
BRANCH   3   5
ATOM      5  N   UNL     1       2.124  -3.954  -0.555  0.00  0.00    -0.191 NA
ATOM      6  C   UNL     1       2.904  -4.505   0.296  0.00  0.00    +0.120 C 
BRANCH   6   7
ATOM      7  C   UNL     1       3.184  -5.984   0.214  0.00  0.00    +0.141 C 
ATOM      8  C   UNL     1       2.639  -6.631   1.472  0.00  0.00    +0.001 C 
ATOM      9  C   UNL     1       3.518  -7.326   2.249  0.00  0.00    -0.007 A 
ATOM     10  C   UNL     1       3.077  -7.981   3.481  0.00  0.00    +0.009 A 
ATOM     11  C   UNL     1       3.988  -8.662   4.223  0.00  0.00    +0.001 A 
ATOM     12  C   UNL     1       5.325  -8.745   3.835  0.00  0.00    +0.002 A 
ATOM     13  C   UNL     1       5.797  -8.160   2.703  0.00  0.00    +0.024 A 
ATOM     14  C   UNL     1       4.936  -7.431   1.863  0.00  0.00    +0.040 A 
ATOM     15  N   UNL     1       5.411  -6.861   0.755  0.00  0.00    -0.284 N 
ATOM     16  C   UNL     1       4.657  -6.162  -0.076  0.00  0.00    +0.229 C 
ATOM     17  O   UNL     1       5.148  -5.664  -1.071  0.00  0.00    -0.274 OA
ATOM     18  H   UNL     1       6.353  -6.963   0.550  0.00  0.00    +0.155 HD
ENDBRANCH   6   7
ENDBRANCH   3   5
BRANCH   1  19
ATOM     19  C   UNL     1       0.762  -0.520  -1.294  0.00  0.00    +0.260 C 
BRANCH  19  21
ATOM     20  C   UNL     1      -0.165   1.299   0.147  0.00  0.00    +0.008 C 
ATOM     21  C   UNL     1       0.010  -0.214   0.003  0.00  0.00    +0.051 C 
ENDBRANCH  19  21
BRANCH  19  22
ATOM     22  O   UNL     1      -0.036  -0.123  -2.412  0.00  0.00    -0.478 OA
BRANCH  22  23
ATOM     23  C   UNL     1       0.175   1.124  -2.909  0.00  0.00    +0.136 A 
ATOM     24  C   UNL     1       1.173   1.929  -2.352  0.00  0.00    +0.047 A 
ATOM     25  C   UNL     1       1.408   3.181  -2.828  0.00  0.00    +0.012 A 
ATOM     26  C   UNL     1       0.640   3.677  -3.895  0.00  0.00    -0.017 A 
ATOM     27  C   UNL     1       0.857   4.966  -4.412  0.00  0.00    +0.008 A 
ATOM     28  C   UNL     1       0.096   5.414  -5.447  0.00  0.00    +0.001 A 
ATOM     29  C   UNL     1      -0.900   4.614  -6.005  0.00  0.00    +0.001 A 
ATOM     30  C   UNL     1      -1.139   3.361  -5.531  0.00  0.00    +0.010 A 
ATOM     31  C   UNL     1      -0.372   2.863  -4.463  0.00  0.00    -0.000 A 
ATOM     32  C   UNL     1      -0.586   1.572  -3.951  0.00  0.00    +0.067 A 
ATOM     33 BR   UNL     1      -1.925   0.464  -4.697  0.00  0.00    -0.046 Br
ENDBRANCH  22  23
ENDBRANCH  19  22
ENDBRANCH   1  19
TORSDOF 6
