REMARK  Name = ZINC09542771
REMARK  11 active torsions:
REMARK  status: ('A' for Active; 'I' for Inactive)
REMARK    1  A    between atoms: C_1  and  C_2
REMARK    2  A    between atoms: C_2  and  O_3
REMARK    3  A    between atoms: O_3  and  C_4
REMARK    4  A    between atoms: C_8  and  C_11
REMARK    5  A    between atoms: C_9  and  O_10
REMARK    6  A    between atoms: C_14  and  C_28
REMARK    7  A    between atoms: C_16  and  C_18
REMARK    8  A    between atoms: C_21  and  C_24
REMARK    9  A    between atoms: C_24  and  O_26
REMARK   10  A    between atoms: O_26  and  C_27
REMARK   11  A    between atoms: C_31  and  C_34
REMARK                            x       y       z     vdW  Elec       q    Type
REMARK                         _______ _______ _______ _____ _____    ______ ____
ROOT
ATOM      1  C   UNL     1       3.709  -0.723  -0.039  0.00  0.00    -0.028 C 
ATOM      2  C   UNL     1       4.268  -0.752  -1.465  0.00  0.00    +0.044 C 
ATOM      3  C   UNL     1       5.393  -1.747  -1.543  0.00  0.00    +0.040 C 
ATOM      4  N   UNL     1       5.600  -2.638  -0.649  0.00  0.00    -0.299 NA
ATOM      5  C   UNL     1       4.789  -2.797   0.552  0.00  0.00    +0.081 C 
ATOM      6  N   UNL     1       3.495  -2.115   0.402  0.00  0.00    +0.401 N 
ATOM      7  H   UNL     1       2.929  -2.610  -0.297  0.00  0.00    -0.081 HD
ATOM      8  H   UNL     1       3.003  -2.115   1.303  0.00  0.00    -0.081 HD
ENDROOT
BRANCH   3   9
ATOM      9  C   UNL     1       6.300  -1.692  -2.706  0.00  0.00    -0.004 A 
ATOM     10  C   UNL     1       6.103  -0.738  -3.705  0.00  0.00    +0.010 A 
ATOM     11  C   UNL     1       6.958  -0.689  -4.787  0.00  0.00    +0.004 A 
ATOM     12  C   UNL     1       8.003  -1.590  -4.888  0.00  0.00    -0.050 A 
ATOM     13  C   UNL     1       8.200  -2.543  -3.904  0.00  0.00    +0.004 A 
ATOM     14  C   UNL     1       7.356  -2.599  -2.814  0.00  0.00    +0.010 A 
ATOM     15  C   UNL     1       8.929  -1.535  -6.075  0.00  0.00    +0.044 C 
ENDBRANCH   3   9
BRANCH   1  20
ATOM     16  C   UNL     1       1.174   2.087   0.002  0.00  0.00    +0.162 A 
ATOM     17  C   UNL     1      -0.017   1.378   0.010  0.00  0.00    +0.049 A 
ATOM     18  C   UNL     1       0.002  -0.004   0.002  0.00  0.00    +0.004 A 
ATOM     19  C   UNL     1       1.207  -0.682  -0.013  0.00  0.00    +0.006 A 
ATOM     20  C   UNL     1       2.398   0.019  -0.021  0.00  0.00    -0.016 A 
ATOM     21  C   UNL     1       2.386   1.405  -0.014  0.00  0.00    +0.160 A 
BRANCH  21  22
ATOM     22  O   UNL     1       3.557   2.096  -0.022  0.00  0.00    -0.503 OA
ATOM     23  H   UNL     1       3.887   2.301  -0.908  0.00  0.00    +0.292 HD
ENDBRANCH  21  22
BRANCH  16  24
ATOM     24  O   UNL     1       1.157   3.447   0.009  0.00  0.00    -0.489 OA
BRANCH  24  26
ATOM     25  C   UNL     1       0.058   5.599   0.030  0.00  0.00    +0.048 C 
ATOM     26  C   UNL     1      -0.124   4.080   0.024  0.00  0.00    +0.226 C 
ENDBRANCH  24  26
ENDBRANCH  16  24
ENDBRANCH   1  20
BRANCH   5  27
ATOM     27  C   UNL     1       5.526  -2.213   1.729  0.00  0.00    -0.040 A 
ATOM     28  C   UNL     1       4.816  -1.669   2.785  0.00  0.00    +0.004 A 
ATOM     29  C   UNL     1       5.485  -1.138   3.869  0.00  0.00    +0.015 A 
ATOM     30  C   UNL     1       6.881  -1.139   3.893  0.00  0.00    +0.059 A 
ATOM     31  C   UNL     1       7.591  -1.684   2.822  0.00  0.00    +0.015 A 
ATOM     32  C   UNL     1       6.910  -2.217   1.747  0.00  0.00    +0.004 A 
BRANCH  30  33
ATOM     33  C   UNL     1       7.603  -0.566   5.047  0.00  0.00    +0.339 C 
ATOM     34  O   UNL     1       8.818  -0.568   5.065  0.00  0.00    -0.245 OA
BRANCH  33  35
ATOM     35  O   UNL     1       6.915  -0.041   6.079  0.00  0.00    -0.464 OA
ATOM     36  C   UNL     1       7.690   0.505   7.179  0.00  0.00    +0.280 C 
ENDBRANCH  33  35
ENDBRANCH  30  33
ENDBRANCH   5  27
TORSDOF 8
