REMARK  Name = ZINC44681481
REMARK  13 active torsions:
REMARK  status: ('A' for Active; 'I' for Inactive)
REMARK    1  A    between atoms: C_1  and  C_2
REMARK    2  A    between atoms: C_8  and  C_10
REMARK    3  A    between atoms: C_10  and  C_11
REMARK    4  A    between atoms: C_13  and  O_36
REMARK    5  A    between atoms: C_19  and  C_35
REMARK    6  A    between atoms: C_22  and  O_28
REMARK    7  A    between atoms: C_24  and  C_25
REMARK    8  A    between atoms: C_24  and  C_26
REMARK    9  A    between atoms: C_26  and  O_27
REMARK   10  A    between atoms: O_28  and  C_29
REMARK   11  A    between atoms: N_31  and  C_32
REMARK   12  A    between atoms: C_32  and  C_33
REMARK   13  A    between atoms: C_32  and  C_34
REMARK                            x       y       z     vdW  Elec       q    Type
REMARK                         _______ _______ _______ _____ _____    ______ ____
ROOT
ATOM      1  C   UNL     1       3.358  -4.952   2.516  0.00  0.00    +0.032 C 
ATOM      2  C   UNL     1       2.689  -5.998   1.639  0.00  0.00    +0.119 C 
ATOM      3  C   UNL     1       3.722  -6.548   0.656  0.00  0.00    +0.032 C 
ATOM      4  C   UNL     1       4.880  -7.172   1.441  0.00  0.00    +0.007 C 
ATOM      5  C   UNL     1       5.582  -6.118   2.304  0.00  0.00    +0.007 C 
ATOM      6  C   UNL     1       4.578  -5.489   3.267  0.00  0.00    -0.023 C 
ATOM      7  C   UNL     1       4.170  -6.503   4.330  0.00  0.00    +0.011 C 
ATOM      8  C   UNL     1       5.404  -6.961   5.111  0.00  0.00    +0.046 C 
ATOM      9  C   UNL     1       6.400  -7.630   4.175  0.00  0.00    +0.186 C 
ATOM     10  C   UNL     1       6.784  -6.744   2.997  0.00  0.00    +0.031 C 
ATOM     11  C   UNL     1       7.797  -5.685   3.455  0.00  0.00    +0.017 C 
ATOM     12  C   UNL     1       5.182  -4.255   3.966  0.00  0.00    +0.012 C 
ENDROOT
BRANCH   2  13
ATOM     13  O   UNL     1       2.128  -7.050   2.416  0.00  0.00    -0.391 OA
ATOM     14  H   UNL     1       1.693  -7.737   1.893  0.00  0.00    +0.210 HD
ENDBRANCH   2  13
BRANCH   1  15
ATOM     15  C   UNL     1       2.344  -4.356   3.493  0.00  0.00    +0.102 C 
BRANCH  15  23
ATOM     16  C   UNL     1      -1.315   0.456   5.210  0.00  0.00    +0.007 C 
ATOM     17  C   UNL     1      -1.156  -0.972   4.685  0.00  0.00    -0.011 C 
ATOM     18  C   UNL     1      -0.951  -0.937   3.168  0.00  0.00    +0.022 C 
ATOM     19  C   UNL     1      -0.827  -2.370   2.641  0.00  0.00    +0.108 C 
ATOM     20  N   UNL     1       0.243  -3.055   3.379  0.00  0.00    -0.301 N 
ATOM     21  C   UNL     1       0.192  -3.069   4.847  0.00  0.00    +0.108 C 
ATOM     22  C   UNL     1       0.056  -1.628   5.350  0.00  0.00    +0.022 C 
ATOM     23  C   UNL     1       1.253  -3.658   2.722  0.00  0.00    +0.216 C 
ATOM     24  O   UNL     1       1.284  -3.640   1.509  0.00  0.00    -0.276 OA
ENDBRANCH  15  23
ENDBRANCH   1  15
BRANCH  10  25
ATOM     25  C   UNL     1       7.556  -7.635   1.996  0.00  0.00    +0.166 C 
BRANCH  25  26
ATOM     26  O   UNL     1       8.684  -8.220   2.650  0.00  0.00    -0.394 OA
ATOM     27  H   UNL     1       9.215  -8.793   2.080  0.00  0.00    +0.209 HD
ENDBRANCH  25  26
ENDBRANCH  10  25
BRANCH   9  28
ATOM     28  O   UNL     1       5.865  -8.869   3.700  0.00  0.00    -0.446 OA
BRANCH  28  29
ATOM     29  C   UNL     1       6.129  -9.969   4.431  0.00  0.00    +0.401 C 
ATOM     30  O   UNL     1       6.796  -9.881   5.443  0.00  0.00    -0.226 OA
ATOM     31  N   UNL     1       5.654 -11.168   4.039  0.00  0.00    -0.279 N 
ATOM     32  H   UNL     1       5.122 -11.239   3.231  0.00  0.00    +0.152 HD
BRANCH  31  33
ATOM     33  C   UNL     1       5.942 -12.365   4.833  0.00  0.00    +0.070 C 
ATOM     34  C   UNL     1       4.913 -12.490   5.958  0.00  0.00    +0.027 C 
ATOM     35  C   UNL     1       5.869 -13.602   3.936  0.00  0.00    +0.027 C 
ENDBRANCH  31  33
ENDBRANCH  28  29
ENDBRANCH   9  28
TORSDOF 8
