REMARK  Name = ZINC07982717
REMARK  6 active torsions:
REMARK  status: ('A' for Active; 'I' for Inactive)
REMARK    1  A    between atoms: C_9  and  C_12
REMARK    2  A    between atoms: N_14  and  N_15
REMARK    3  A    between atoms: N_15  and  C_16
REMARK    4  A    between atoms: C_16  and  N_18
REMARK    5  A    between atoms: N_18  and  C_19
REMARK    6  A    between atoms: C_19  and  C_20
REMARK                            x       y       z     vdW  Elec       q    Type
REMARK                         _______ _______ _______ _____ _____    ______ ____
ROOT
ATOM      1  N   UNL     1       1.140   5.843   2.921  0.00  0.00    -0.246 N 
ATOM      2  H   UNL     1       1.127   6.795   3.103  0.00  0.00    +0.172 HD
ENDROOT
BRANCH   1   5
ATOM      3  C   UNL     1       1.170   5.369   5.254  0.00  0.00    +0.273 C 
ATOM      4  O   UNL     1       1.154   6.560   5.482  0.00  0.00    -0.270 OA
ATOM      5  N   UNL     1       1.165   4.927   3.981  0.00  0.00    -0.232 N 
ATOM      6  H   UNL     1       1.177   3.974   3.798  0.00  0.00    +0.173 HD
BRANCH   3  15
ATOM      7  C   UNL     1       0.537   2.959  11.091  0.00  0.00    +0.004 A 
ATOM      8  C   UNL     1       1.225   4.157  11.150  0.00  0.00    +0.004 A 
ATOM      9  C   UNL     1       1.484   4.865   9.992  0.00  0.00    +0.049 A 
ATOM     10  C   UNL     1       1.055   4.375   8.767  0.00  0.00    +0.163 A 
ATOM     11  C   UNL     1       0.365   3.170   8.708  0.00  0.00    +0.162 A 
ATOM     12  C   UNL     1       0.108   2.465   9.874  0.00  0.00    +0.049 A 
ATOM     13  O   UNL     1      -0.061   2.670   7.516  0.00  0.00    -0.484 OA
ATOM     14  C   UNL     1      -0.114   3.584   6.416  0.00  0.00    +0.283 C 
ATOM     15  C   UNL     1       1.196   4.384   6.394  0.00  0.00    +0.297 C 
ATOM     16  O   UNL     1       1.314   5.086   7.636  0.00  0.00    -0.472 OA
ENDBRANCH   3  15
ENDBRANCH   1   5
BRANCH   1  17
ATOM     17  C   UNL     1       1.135   5.401   1.648  0.00  0.00    +0.147 C 
ATOM     18  S   UNL     1       1.106   6.520   0.353  0.00  0.00    -0.017 S 
BRANCH  17  19
ATOM     19  N   UNL     1       1.153   4.077   1.394  0.00  0.00    -0.321 N 
ATOM     20  H   UNL     1       1.170   3.443   2.128  0.00  0.00    +0.148 HD
BRANCH  19  21
ATOM     21  C   UNL     1       1.147   3.596   0.010  0.00  0.00    +0.138 C 
BRANCH  21  22
ATOM     22  C   UNL     1       1.171   2.089   0.002  0.00  0.00    -0.027 A 
ATOM     23  C   UNL     1       2.379   1.418  -0.013  0.00  0.00    +0.009 A 
ATOM     24  C   UNL     1       2.405   0.036  -0.020  0.00  0.00    +0.050 A 
ATOM     25  C   UNL     1       1.220  -0.680  -0.013  0.00  0.00    +0.166 A 
ATOM     26  C   UNL     1       0.002  -0.004   0.002  0.00  0.00    +0.167 A 
ATOM     27  C   UNL     1      -0.017   1.381   0.010  0.00  0.00    +0.054 A 
ATOM     28  O   UNL     1      -1.007  -0.923   0.006  0.00  0.00    -0.453 OA
ATOM     29  C   UNL     1      -0.396  -2.164   0.405  0.00  0.00    +0.466 C 
ATOM     30  O   UNL     1       0.973  -2.023  -0.019  0.00  0.00    -0.453 OA
ENDBRANCH  21  22
ENDBRANCH  19  21
ENDBRANCH  17  19
ENDBRANCH   1  17
TORSDOF 6
