REMARK  Name = ZINC57329861
REMARK  4 active torsions:
REMARK  status: ('A' for Active; 'I' for Inactive)
REMARK    1  A    between atoms: C_1  and  C_2
REMARK    2  A    between atoms: C_3  and  C_16
REMARK    3  A    between atoms: C_16  and  C_17
REMARK    4  A    between atoms: C_17  and  O_18
REMARK                            x       y       z     vdW  Elec       q    Type
REMARK                         _______ _______ _______ _____ _____    ______ ____
ROOT
ATOM      1  C   UNL     1      -0.036   1.086   0.022  0.00  0.00    +0.066 C 
ATOM      2  C   UNL     1      -0.752   1.585  -1.206  0.00  0.00    +0.050 A 
ATOM      3  C   UNL     1      -0.881   2.926  -1.422  0.00  0.00    +0.040 A 
ATOM      4  C   UNL     1      -1.554   3.368  -2.575  0.00  0.00    +0.256 A 
ATOM      5  N   UNL     1      -2.050   2.447  -3.429  0.00  0.00    -0.295 N 
ATOM      6  C   UNL     1      -1.891   1.123  -3.163  0.00  0.00    +0.198 A 
ATOM      7  N   UNL     1      -1.254   0.717  -2.082  0.00  0.00    -0.221 NA
ATOM      8  N   UNL     1      -2.397   0.196  -4.034  0.00  0.00    -0.300 N 
ATOM      9  C   UNL     1      -2.132  -1.235  -3.832  0.00  0.00    +0.115 C 
ATOM     10  C   UNL     1      -3.472  -1.972  -3.715  0.00  0.00    +0.093 C 
ATOM     11  C   UNL     1      -4.353  -1.549  -4.870  0.00  0.00    +0.136 C 
ATOM     12  O   UNL     1      -4.866  -2.371  -5.591  0.00  0.00    -0.297 OA
ATOM     13  C   UNL     1      -4.577  -0.070  -5.099  0.00  0.00    +0.093 C 
ATOM     14  C   UNL     1      -3.214   0.620  -5.177  0.00  0.00    +0.115 C 
ATOM     15  O   UNL     1      -1.688   4.560  -2.799  0.00  0.00    -0.267 OA
ATOM     16  H   UNL     1      -2.518   2.730  -4.231  0.00  0.00    +0.172 HD
ENDROOT
BRANCH   3  17
ATOM     17  C   UNL     1      -0.312   3.918  -0.440  0.00  0.00    +0.070 C 
BRANCH  17  18
ATOM     18  C   UNL     1       1.080   4.351  -0.902  0.00  0.00    +0.160 C 
BRANCH  18  19
ATOM     19  O   UNL     1       1.620   5.292   0.029  0.00  0.00    -0.395 OA
ATOM     20  H   UNL     1       2.503   5.611  -0.201  0.00  0.00    +0.209 HD
ENDBRANCH  18  19
ENDBRANCH  17  18
ENDBRANCH   3  17
TORSDOF 3
