REMARK  Name = ZINC08495051
REMARK  15 active torsions:
REMARK  status: ('A' for Active; 'I' for Inactive)
REMARK    1  A    between atoms: C_1  and  C_2
REMARK    2  A    between atoms: C_2  and  C_3
REMARK    3  A    between atoms: C_3  and  C_4
REMARK    4  A    between atoms: C_4  and  C_5
REMARK    5  A    between atoms: C_11  and  C_12
REMARK    6  A    between atoms: C_15  and  O_21
REMARK    7  A    between atoms: C_16  and  O_18
REMARK    8  A    between atoms: O_18  and  C_19
REMARK    9  A    between atoms: C_19  and  C_20
REMARK   10  A    between atoms: O_21  and  C_22
REMARK   11  A    between atoms: C_22  and  C_23
REMARK   12  A    between atoms: C_23  and  O_24
REMARK   13  A    between atoms: O_24  and  C_25
REMARK   14  A    between atoms: C_30  and  O_31
REMARK   15  A    between atoms: O_31  and  C_32
REMARK                            x       y       z     vdW  Elec       q    Type
REMARK                         _______ _______ _______ _____ _____    ______ ____
ROOT
ATOM      1  C   UNL     1       6.308  -2.841   7.691  0.00  0.00    -0.021 A 
ATOM      2  C   UNL     1       6.229  -4.241   7.711  0.00  0.00    +0.012 A 
ATOM      3  C   UNL     1       7.150  -4.971   8.429  0.00  0.00    +0.050 A 
ATOM      4  C   UNL     1       8.157  -4.324   9.134  0.00  0.00    +0.162 A 
ATOM      5  C   UNL     1       8.243  -2.931   9.119  0.00  0.00    +0.162 A 
ATOM      6  C   UNL     1       7.329  -2.191   8.398  0.00  0.00    +0.057 A 
ENDROOT
BRANCH   1  13
ATOM      7  C   UNL     1       0.363  -3.374   3.999  0.00  0.00    +0.100 C 
ATOM      8  N   UNL     1       1.306  -2.537   4.325  0.00  0.00    -0.169 NA
ATOM      9  N   UNL     1       2.052  -2.711   5.471  0.00  0.00    -0.152 N 
ATOM     10  C   UNL     1       3.031  -1.821   5.961  0.00  0.00    +0.152 C 
ATOM     11  N   UNL     1       3.070  -0.553   5.648  0.00  0.00    -0.283 NA
ATOM     12  C   UNL     1       4.017  -2.470   6.872  0.00  0.00    +0.081 C 
ATOM     13  C   UNL     1       5.331  -2.061   6.928  0.00  0.00    +0.024 C 
ATOM     14  C   UNL     1       3.506  -3.579   7.715  0.00  0.00    +0.273 C 
ATOM     15  O   UNL     1       4.048  -3.867   8.770  0.00  0.00    -0.268 OA
ATOM     16  N   UNL     1       2.427  -4.260   7.281  0.00  0.00    -0.152 NA
ATOM     17  C   UNL     1       1.795  -3.844   6.213  0.00  0.00    +0.181 C 
ATOM     18  S   UNL     1       0.428  -4.559   5.336  0.00  0.00    -0.038 S 
ATOM     19  H   UNL     1       2.403  -0.181   5.050  0.00  0.00    +0.188 HD
BRANCH   7  20
ATOM     20  C   UNL     1      -0.554  -3.347   2.803  0.00  0.00    +0.064 C 
BRANCH  20  21
ATOM     21  C   UNL     1      -0.225  -2.131   1.936  0.00  0.00    +0.006 C 
BRANCH  21  23
ATOM     22  C   UNL     1      -0.827  -0.887  -0.146  0.00  0.00    +0.004 C 
ATOM     23  C   UNL     1      -1.156  -2.103   0.722  0.00  0.00    -0.003 C 
ENDBRANCH  21  23
ENDBRANCH  20  21
ENDBRANCH   7  20
ENDBRANCH   1  13
BRANCH   5  24
ATOM     24  O   UNL     1       9.231  -2.304   9.812  0.00  0.00    -0.489 OA
BRANCH  24  25
ATOM     25  C   UNL     1       9.259  -0.876   9.752  0.00  0.00    +0.226 C 
ATOM     26  C   UNL     1      10.431  -0.354  10.586  0.00  0.00    +0.048 C 
ENDBRANCH  24  25
ENDBRANCH   5  24
BRANCH   4  27
ATOM     27  O   UNL     1       9.061  -5.050   9.841  0.00  0.00    -0.485 OA
BRANCH  27  28
ATOM     28  C   UNL     1       8.916  -6.471   9.814  0.00  0.00    +0.270 C 
BRANCH  28  29
ATOM     29  C   UNL     1      10.017  -7.113  10.660  0.00  0.00    +0.270 C 
BRANCH  29  30
ATOM     30  O   UNL     1       9.842  -6.741  12.029  0.00  0.00    -0.485 OA
BRANCH  30  31
ATOM     31  C   UNL     1      10.744  -7.231  12.921  0.00  0.00    +0.162 A 
ATOM     32  C   UNL     1      11.777  -8.047  12.488  0.00  0.00    +0.049 A 
ATOM     33  C   UNL     1      12.693  -8.543  13.396  0.00  0.00    +0.004 A 
ATOM     34  C   UNL     1      12.582  -8.229  14.738  0.00  0.00    +0.004 A 
ATOM     35  C   UNL     1      11.553  -7.416  15.177  0.00  0.00    +0.049 A 
ATOM     36  C   UNL     1      10.635  -6.909  14.271  0.00  0.00    +0.161 A 
BRANCH  36  37
ATOM     37  O   UNL     1       9.627  -6.105  14.700  0.00  0.00    -0.491 OA
ATOM     38  C   UNL     1       9.577  -5.817  16.099  0.00  0.00    +0.277 C 
ENDBRANCH  36  37
ENDBRANCH  30  31
ENDBRANCH  29  30
ENDBRANCH  28  29
ENDBRANCH  27  28
ENDBRANCH   4  27
TORSDOF 12
