REMARK  Name = ZINC22644793
REMARK  7 active torsions:
REMARK  status: ('A' for Active; 'I' for Inactive)
REMARK    1  A    between atoms: C_1  and  C_2
REMARK    2  A    between atoms: C_11  and  N_30
REMARK    3  A    between atoms: C_13  and  S_15
REMARK    4  A    between atoms: S_15  and  C_16
REMARK    5  A    between atoms: C_16  and  C_18
REMARK    6  A    between atoms: C_16  and  C_19
REMARK    7  A    between atoms: N_21  and  C_22
REMARK                            x       y       z     vdW  Elec       q    Type
REMARK                         _______ _______ _______ _____ _____    ______ ____
ROOT
ATOM      1  C   UNL     1      -1.444  -3.199   2.187  0.00  0.00    +0.008 C 
ATOM      2  C   UNL     1      -0.328  -2.169   2.003  0.00  0.00    -0.009 C 
ATOM      3  C   UNL     1       0.625  -2.636   0.899  0.00  0.00    +0.008 C 
ATOM      4  C   UNL     1       1.869  -1.747   0.878  0.00  0.00    +0.037 C 
ATOM      5  C   UNL     1       1.433  -0.287   0.792  0.00  0.00    -0.025 A 
ATOM      6  C   UNL     1       0.172   0.074   1.120  0.00  0.00    -0.004 A 
ATOM      7  S   UNL     1       0.109   1.831   0.876  0.00  0.00    -0.073 S 
ATOM      8  C   UNL     1       1.769   2.082   0.336  0.00  0.00    +0.115 A 
ATOM      9  C   UNL     1       2.325   0.779   0.363  0.00  0.00    +0.051 A 
ATOM     10  C   UNL     1       3.689   0.650  -0.029  0.00  0.00    +0.129 A 
ATOM     11  N   UNL     1       4.303   1.777  -0.382  0.00  0.00    -0.207 NA
ATOM     12  C   UNL     1       3.720   2.966  -0.384  0.00  0.00    +0.192 A 
ATOM     13  N   UNL     1       2.446   3.153  -0.028  0.00  0.00    -0.214 NA
ATOM     14  C   UNL     1      -0.934  -0.820   1.590  0.00  0.00    +0.046 C 
ENDROOT
BRANCH  10  15
ATOM     15  N   UNL     1       4.337  -0.572  -0.042  0.00  0.00    -0.343 N 
ATOM     16  H   UNL     1       5.391  -0.633  -0.351  0.00  0.00    +0.144 HD
ATOM     17  H   UNL     1       3.797  -1.483   0.257  0.00  0.00    +0.144 HD
ENDBRANCH  10  15
BRANCH  12  18
ATOM     18  S   UNL     1       4.668   4.367  -0.879  0.00  0.00    -0.073 S 
BRANCH  18  19
ATOM     19  C   UNL     1       6.250   3.564  -1.236  0.00  0.00    +0.137 C 
ATOM     20  C   UNL     1       6.831   2.984   0.055  0.00  0.00    +0.029 C 
BRANCH  19  21
ATOM     21  C   UNL     1       7.210   4.577  -1.807  0.00  0.00    +0.226 C 
ATOM     22  O   UNL     1       7.068   5.755  -1.556  0.00  0.00    -0.275 OA
ATOM     23  N   UNL     1       8.224   4.173  -2.597  0.00  0.00    -0.310 N 
ATOM     24  H   UNL     1       8.352   3.105  -2.825  0.00  0.00    +0.149 HD
BRANCH  23  25
ATOM     25  C   UNL     1       9.157   5.157  -3.152  0.00  0.00    +0.095 C 
ATOM     26  C   UNL     1       8.594   5.721  -4.467  0.00  0.00    +0.046 C 
ATOM     27  C   UNL     1       9.696   6.508  -5.218  0.00  0.00    +0.168 C 
ATOM     28  S   UNL     1      11.239   5.681  -4.653  0.00  0.00    -0.029 S 
ATOM     29  O   UNL     1      12.032   6.619  -3.939  0.00  0.00    -0.174 OA
ATOM     30  O   UNL     1      11.809   4.970  -5.743  0.00  0.00    -0.174 OA
ATOM     31  C   UNL     1      10.519   4.474  -3.461  0.00  0.00    +0.188 C 
ENDBRANCH  23  25
ENDBRANCH  19  21
ENDBRANCH  18  19
ENDBRANCH  12  18
TORSDOF 5
