REMARK  Name = ZINC44348829
REMARK  6 active torsions:
REMARK  status: ('A' for Active; 'I' for Inactive)
REMARK    1  A    between atoms: N_9  and  C_10
REMARK    2  A    between atoms: C_15  and  N_16
REMARK    3  A    between atoms: N_19  and  C_20
REMARK    4  A    between atoms: C_20  and  C_21
REMARK    5  A    between atoms: C_21  and  C_22
REMARK    6  A    between atoms: C_22  and  N_23
REMARK                            x       y       z     vdW  Elec       q    Type
REMARK                         _______ _______ _______ _____ _____    ______ ____
ROOT
ATOM      1  C   UNL     1       4.845  -0.424  -0.048  0.00  0.00    +0.056 A 
ATOM      2  C   UNL     1       5.526  -0.222   1.144  0.00  0.00    +0.025 A 
ATOM      3  C   UNL     1       6.846   0.186   1.125  0.00  0.00    +0.002 A 
ATOM      4  C   UNL     1       7.492   0.394  -0.080  0.00  0.00    +0.002 A 
ATOM      5  C   UNL     1       6.822   0.195  -1.272  0.00  0.00    +0.025 A 
ATOM      6  C   UNL     1       5.499  -0.221  -1.263  0.00  0.00    +0.056 A 
ENDROOT
BRANCH   1  15
ATOM      7  C   UNL     1      -0.023   1.369   0.005  0.00  0.00    +0.000 A 
ATOM      8  C   UNL     1       1.163   2.080  -0.010  0.00  0.00    +0.002 A 
ATOM      9  C   UNL     1       2.371   1.416  -0.023  0.00  0.00    +0.024 A 
ATOM     10  C   UNL     1       2.406   0.019  -0.020  0.00  0.00    +0.037 A 
ATOM     11  C   UNL     1       1.212  -0.684  -0.005  0.00  0.00    -0.025 A 
ATOM     12  C   UNL     1       0.004  -0.013   0.008  0.00  0.00    +0.005 A 
ATOM     13  C   UNL     1       1.525  -2.163  -0.005  0.00  0.00    +0.056 C 
ATOM     14  C   UNL     1       3.061  -2.233  -0.023  0.00  0.00    +0.116 C 
ATOM     15  N   UNL     1       3.508  -0.838  -0.031  0.00  0.00    -0.298 N 
ENDBRANCH   1  15
BRANCH   6  16
ATOM     16  N   UNL     1       4.819  -0.429  -2.471  0.00  0.00    -0.268 N 
ATOM     17  C   UNL     1       5.509  -0.721  -3.591  0.00  0.00    +0.304 C 
ATOM     18  O   UNL     1       6.710  -0.904  -3.535  0.00  0.00    -0.253 OA
ATOM     19  N   UNL     1       4.868  -0.809  -4.773  0.00  0.00    -0.299 N 
ATOM     20  H   UNL     1       3.852  -0.364  -2.500  0.00  0.00    +0.156 HD
ATOM     21  H   UNL     1       3.910  -0.663  -4.818  0.00  0.00    +0.150 HD
BRANCH  19  22
ATOM     22  C   UNL     1       5.619  -1.126  -5.991  0.00  0.00    +0.107 C 
BRANCH  22  23
ATOM     23  C   UNL     1       4.661  -1.166  -7.184  0.00  0.00    +0.040 C 
BRANCH  23  24
ATOM     24  C   UNL     1       5.445  -1.497  -8.456  0.00  0.00    +0.124 C 
BRANCH  24  25
ATOM     25  N   UNL     1       4.528  -1.535  -9.598  0.00  0.00    -0.338 N 
ATOM     26  C   UNL     1       3.844  -2.629 -10.054  0.00  0.00    +0.104 A 
ATOM     27  C   UNL     1       3.122  -2.222 -11.116  0.00  0.00    +0.101 A 
ATOM     28  N   UNL     1       3.359  -0.915 -11.302  0.00  0.00    -0.352 N 
ATOM     29  C   UNL     1       4.196  -0.495 -10.394  0.00  0.00    +0.173 A 
ATOM     30  H   UNL     1       2.966  -0.367 -12.000  0.00  0.00    +0.166 HD
ENDBRANCH  24  25
ENDBRANCH  23  24
ENDBRANCH  22  23
ENDBRANCH  19  22
ENDBRANCH   6  16
TORSDOF 6
