REMARK  Name = ZINC36241658
REMARK  4 active torsions:
REMARK  status: ('A' for Active; 'I' for Inactive)
REMARK    1  A    between atoms: C_1  and  C_2
REMARK    2  A    between atoms: C_4  and  N_22
REMARK    3  A    between atoms: C_9  and  C_12
REMARK    4  A    between atoms: C_10  and  C_11
REMARK                            x       y       z     vdW  Elec       q    Type
REMARK                         _______ _______ _______ _____ _____    ______ ____
ROOT
ATOM      1  C   UNL     1      -0.018   1.503   0.010  0.00  0.00    +0.047 C 
ATOM      2  C   UNL     1       0.002  -0.004   0.002  0.00  0.00    -0.008 A 
ATOM      3  C   UNL     1       0.006  -0.683  -1.176  0.00  0.00    +0.031 A 
ATOM      4  C   UNL     1       0.025  -2.092  -1.169  0.00  0.00    +0.042 A 
ATOM      5  C   UNL     1       0.040  -2.767   0.006  0.00  0.00    +0.115 A 
ATOM      6  N   UNL     1       0.036  -2.091   1.195  0.00  0.00    -0.303 N 
ATOM      7  C   UNL     1       0.023  -0.721   1.216  0.00  0.00    +0.119 A 
ATOM      8  N   UNL     1       0.029  -0.324   2.481  0.00  0.00    -0.339 N 
ATOM      9  C   UNL     1       0.052  -1.402   3.280  0.00  0.00    +0.068 A 
ATOM     10  C   UNL     1       0.047  -2.516   2.494  0.00  0.00    +0.046 A 
ATOM     11  C   UNL     1       0.068  -3.946   2.968  0.00  0.00    +0.066 C 
ATOM     12  H   UNL     1       0.020   0.599   2.781  0.00  0.00    +0.167 HD
ENDROOT
BRANCH   9  13
ATOM     13  C   UNL     1       0.066  -1.384   4.763  0.00  0.00    +0.004 A 
ATOM     14  C   UNL     1       0.945  -2.216   5.461  0.00  0.00    +0.012 A 
ATOM     15  C   UNL     1       0.967  -2.209   6.826  0.00  0.00    +0.032 A 
ATOM     16  C   UNL     1       0.107  -1.366   7.534  0.00  0.00    +0.113 A 
ATOM     17  C   UNL     1      -0.778  -0.527   6.839  0.00  0.00    +0.160 A 
ATOM     18  C   UNL     1      -0.792  -0.535   5.455  0.00  0.00    +0.058 A 
ATOM     19  O   UNL     1      -1.470   0.158   7.778  0.00  0.00    -0.406 OA
ATOM     20  C   UNL     1      -1.037  -0.234   8.988  0.00  0.00    +0.441 A 
ATOM     21  O   UNL     1      -1.501   0.237  10.166  0.00  0.00    -0.221 OA
ATOM     22  N   UNL     1      -0.102  -1.138   8.860  0.00  0.00    -0.172 NA
ENDBRANCH   9  13
BRANCH   4  23
ATOM     23  N   UNL     1       0.029  -2.797  -2.380  0.00  0.00    -0.357 N 
ATOM     24  H   UNL     1       0.019  -2.315  -3.222  0.00  0.00    +0.142 HD
ATOM     25  H   UNL     1       0.043  -3.767  -2.377  0.00  0.00    +0.142 HD
ENDBRANCH   4  23
TORSDOF 2
