REMARK  Name = ZINC36043398
REMARK  13 active torsions:
REMARK  status: ('A' for Active; 'I' for Inactive)
REMARK    1  A    between atoms: C_1  and  C_2
REMARK    2  A    between atoms: C_5  and  S_8
REMARK    3  A    between atoms: S_8  and  N_11
REMARK    4  A    between atoms: N_11  and  C_12
REMARK    5  A    between atoms: C_12  and  C_14
REMARK    6  A    between atoms: C_12  and  C_15
REMARK    7  A    between atoms: C_19  and  O_36
REMARK    8  A    between atoms: C_20  and  O_34
REMARK    9  A    between atoms: N_25  and  C_26
REMARK   10  A    between atoms: C_26  and  C_27
REMARK   11  A    between atoms: C_32  and  C_33
REMARK   12  A    between atoms: O_34  and  C_35
REMARK   13  A    between atoms: O_36  and  C_37
REMARK                            x       y       z     vdW  Elec       q    Type
REMARK                         _______ _______ _______ _____ _____    ______ ____
ROOT
ATOM      1  C   UNL     1       3.306  -4.989   0.974  0.00  0.00    -0.018 C 
ATOM      2  C   UNL     1       2.162  -5.949   0.774  0.00  0.00    -0.053 A 
ATOM      3  C   UNL     1       1.073  -5.531   0.022  0.00  0.00    +0.051 A 
ATOM      4  C   UNL     1       0.002  -6.381  -0.190  0.00  0.00    +0.162 A 
ATOM      5  C   UNL     1       0.018  -7.661   0.356  0.00  0.00    +0.162 A 
ATOM      6  C   UNL     1       1.105  -8.072   1.107  0.00  0.00    +0.053 A 
ATOM      7  C   UNL     1       2.176  -7.216   1.316  0.00  0.00    -0.044 A 
ATOM      8  C   UNL     1       3.337  -7.703   2.146  0.00  0.00    +0.017 C 
ATOM      9  C   UNL     1       4.548  -6.797   1.925  0.00  0.00    -0.073 C 
ATOM     10  N   UNL     1       4.129  -5.400   2.115  0.00  0.00    +0.388 N 
ATOM     11  H   UNL     1       3.591  -5.321   2.965  0.00  0.00    -0.080 HD
ENDROOT
BRANCH   1  12
ATOM     12  C   UNL     1       2.750  -3.588   1.232  0.00  0.00    +0.064 C 
ATOM     13  C   UNL     1       2.344  -3.462   2.702  0.00  0.00    +0.024 C 
BRANCH  12  14
ATOM     14  N   UNL     1       3.777  -2.590   0.922  0.00  0.00    -0.188 NA
ATOM     15  H   UNL     1       4.713  -2.795   1.073  0.00  0.00    +0.148 HD
BRANCH  14  16
ATOM     16  S   UNL     1       3.340  -1.113   0.314  0.00  0.00    +0.059 S 
ATOM     17  O   UNL     1       2.444  -1.365  -0.760  0.00  0.00    -0.153 OA
ATOM     18  O   UNL     1       4.541  -0.372   0.146  0.00  0.00    -0.153 OA
BRANCH  16  23
ATOM     19  C   UNL     1       0.155   1.710   4.590  0.00  0.00    +0.044 C 
ATOM     20  C   UNL     1       0.950   1.005   3.522  0.00  0.00    -0.050 A 
ATOM     21  C   UNL     1       2.323   1.158   3.468  0.00  0.00    +0.005 A 
ATOM     22  C   UNL     1       3.053   0.511   2.488  0.00  0.00    +0.029 A 
ATOM     23  C   UNL     1       2.410  -0.289   1.563  0.00  0.00    +0.105 A 
ATOM     24  C   UNL     1       1.037  -0.444   1.617  0.00  0.00    +0.029 A 
ATOM     25  C   UNL     1       0.308   0.200   2.599  0.00  0.00    +0.005 A 
ENDBRANCH  16  23
ENDBRANCH  14  16
ENDBRANCH  12  14
ENDBRANCH   1  12
BRANCH   5  26
ATOM     26  O   UNL     1      -1.030  -8.504   0.153  0.00  0.00    -0.491 OA
ATOM     27  C   UNL     1      -0.942  -9.802   0.744  0.00  0.00    +0.277 C 
ENDBRANCH   5  26
BRANCH   4  28
ATOM     28  O   UNL     1      -1.062  -5.967  -0.928  0.00  0.00    -0.491 OA
ATOM     29  C   UNL     1      -1.008  -4.640  -1.456  0.00  0.00    +0.277 C 
ENDBRANCH   4  28
BRANCH  10  30
ATOM     30  C   UNL     1       5.316  -4.539   2.200  0.00  0.00    -0.042 C 
BRANCH  30  31
ATOM     31  C   UNL     1       6.219  -4.810   1.024  0.00  0.00    -0.061 A 
ATOM     32  C   UNL     1       6.056  -4.098  -0.150  0.00  0.00    +0.002 A 
ATOM     33  C   UNL     1       6.883  -4.346  -1.229  0.00  0.00    +0.000 A 
ATOM     34  C   UNL     1       7.874  -5.306  -1.134  0.00  0.00    +0.000 A 
ATOM     35  C   UNL     1       8.037  -6.017   0.040  0.00  0.00    +0.003 A 
ATOM     36  C   UNL     1       7.212  -5.765   1.121  0.00  0.00    -0.049 A 
ATOM     37  C   UNL     1       7.394  -6.537   2.402  0.00  0.00    +0.044 C 
ENDBRANCH  30  31
ENDBRANCH  10  30
TORSDOF 8
