REMARK  Name = ZINC35486956
REMARK  10 active torsions:
REMARK  status: ('A' for Active; 'I' for Inactive)
REMARK    1  A    between atoms: C_1  and  N_2
REMARK    2  A    between atoms: N_2  and  C_3
REMARK    3  A    between atoms: N_2  and  C_4
REMARK    4  A    between atoms: C_4  and  C_5
REMARK    5  A    between atoms: C_5  and  C_6
REMARK    6  A    between atoms: C_6  and  N_7
REMARK    7  A    between atoms: C_8  and  C_24
REMARK    8  A    between atoms: C_27  and  C_30
REMARK    9  A    between atoms: C_30  and  O_32
REMARK   10  A    between atoms: O_32  and  C_33
REMARK                            x       y       z     vdW  Elec       q    Type
REMARK                         _______ _______ _______ _____ _____    ______ ____
ROOT
ATOM      1  N   UNL     1      -2.777  -4.025  -0.239  0.00  0.00    -0.284 N 
ATOM      2  C   UNL     1      -2.808  -4.783  -1.501  0.00  0.00    +0.144 C 
ATOM      3  C   UNL     1      -2.777  -6.224  -1.111  0.00  0.00    +0.072 A 
ATOM      4  C   UNL     1      -2.797  -7.446  -1.923  0.00  0.00    +0.199 A 
ATOM      5  O   UNL     1      -2.670  -7.443  -3.135  0.00  0.00    -0.287 OA
ATOM      6  C   UNL     1      -2.987  -8.685  -1.128  0.00  0.00    +0.065 A 
ATOM      7  C   UNL     1      -3.227  -9.902  -1.765  0.00  0.00    +0.030 A 
ATOM      8  C   UNL     1      -3.406 -11.042  -1.011  0.00  0.00    +0.019 A 
ATOM      9  C   UNL     1      -3.348 -10.975   0.375  0.00  0.00    +0.019 A 
ATOM     10  C   UNL     1      -3.110  -9.779   1.014  0.00  0.00    +0.048 A 
ATOM     11  C   UNL     1      -2.923  -8.612   0.273  0.00  0.00    +0.140 A 
ATOM     12  O   UNL     1      -2.681  -7.453   0.926  0.00  0.00    -0.450 OA
ATOM     13  C   UNL     1      -2.726  -6.286   0.252  0.00  0.00    +0.199 A 
ATOM     14  C   UNL     1      -2.724  -4.910   0.778  0.00  0.00    +0.283 C 
ATOM     15  O   UNL     1      -2.683  -4.614   1.955  0.00  0.00    -0.267 OA
ATOM     16 BR   UNL     1      -3.732 -12.698  -1.864  0.00  0.00    -0.050 Br
ENDROOT
BRANCH   2  17
ATOM     17  C   UNL     1      -4.073  -4.476  -2.261  0.00  0.00    -0.022 A 
ATOM     18  C   UNL     1      -5.269  -4.339  -1.579  0.00  0.00    +0.006 A 
ATOM     19  C   UNL     1      -6.431  -4.057  -2.268  0.00  0.00    +0.015 A 
ATOM     20  C   UNL     1      -6.397  -3.911  -3.657  0.00  0.00    +0.059 A 
ATOM     21  C   UNL     1      -5.186  -4.050  -4.338  0.00  0.00    +0.015 A 
ATOM     22  C   UNL     1      -4.031  -4.326  -3.635  0.00  0.00    +0.006 A 
BRANCH  20  23
ATOM     23  C   UNL     1      -7.637  -3.610  -4.401  0.00  0.00    +0.339 C 
ATOM     24  O   UNL     1      -8.689  -3.489  -3.806  0.00  0.00    -0.245 OA
BRANCH  23  25
ATOM     25  O   UNL     1      -7.601  -3.469  -5.741  0.00  0.00    -0.464 OA
ATOM     26  C   UNL     1      -8.837  -3.178  -6.396  0.00  0.00    +0.280 C 
ENDBRANCH  23  25
ENDBRANCH  20  23
ENDBRANCH   2  17
BRANCH   1  27
ATOM     27  C   UNL     1      -2.794  -2.566  -0.111  0.00  0.00    +0.107 C 
BRANCH  27  28
ATOM     28  C   UNL     1      -1.358  -2.037  -0.122  0.00  0.00    +0.000 C 
BRANCH  28  29
ATOM     29  C   UNL     1      -1.376  -0.512   0.012  0.00  0.00    -0.078 C 
BRANCH  29  31
ATOM     30  C   UNL     1      -0.018   1.465   0.010  0.00  0.00    -0.097 C 
ATOM     31  N   UNL     1       0.002  -0.004   0.002  0.00  0.00    +0.376 N 
ATOM     32  C   UNL     1       0.713  -0.491   1.192  0.00  0.00    -0.097 C 
ATOM     33  H   UNL     1       0.474  -0.330  -0.828  0.00  0.00    -0.083 HD
ENDBRANCH  29  31
ENDBRANCH  28  29
ENDBRANCH  27  28
ENDBRANCH   1  27
TORSDOF 7
