REMARK  Name = ZINC35737359
REMARK  5 active torsions:
REMARK  status: ('A' for Active; 'I' for Inactive)
REMARK    1  A    between atoms: C_1  and  N_2
REMARK    2  A    between atoms: C_4  and  N_7
REMARK    3  A    between atoms: N_7  and  S_8
REMARK    4  A    between atoms: S_8  and  C_11
REMARK    5  A    between atoms: C_12  and  N_19
REMARK                            x       y       z     vdW  Elec       q    Type
REMARK                         _______ _______ _______ _____ _____    ______ ____
ROOT
ATOM      1  S   UNL     1       1.863  -5.301  -1.036  0.00  0.00    +0.076 S 
ATOM      2  O   UNL     1       1.948  -6.576  -1.659  0.00  0.00    -0.150 OA
ATOM      3  O   UNL     1       3.016  -4.551  -0.678  0.00  0.00    -0.150 OA
ENDROOT
BRANCH   1   4
ATOM      4  C   UNL     1       0.928  -5.524   0.441  0.00  0.00    +0.147 A 
ATOM      5  C   UNL     1       1.194  -4.739   1.556  0.00  0.00    +0.054 A 
ATOM      6  C   UNL     1       0.454  -4.916   2.719  0.00  0.00    +0.044 A 
ATOM      7  C   UNL     1      -0.543  -5.873   2.763  0.00  0.00    +0.044 A 
ATOM      8  C   UNL     1      -0.805  -6.653   1.651  0.00  0.00    +0.042 A 
ATOM      9  C   UNL     1      -0.073  -6.475   0.489  0.00  0.00    +0.071 A 
ATOM     10 CL   UNL     1      -0.410  -7.451  -0.906  0.00  0.00    -0.081 Cl
ATOM     11 CL   UNL     1      -1.467  -6.095   4.215  0.00  0.00    -0.083 Cl
BRANCH   5  12
ATOM     12  N   UNL     1       2.202  -3.773   1.509  0.00  0.00    -0.356 N 
ATOM     13  H   UNL     1       2.424  -3.345   0.667  0.00  0.00    +0.142 HD
ATOM     14  H   UNL     1       2.680  -3.531   2.317  0.00  0.00    +0.142 HD
ENDBRANCH   5  12
ENDBRANCH   1   4
BRANCH   1  15
ATOM     15  N   UNL     1       0.967  -4.341  -2.043  0.00  0.00    -0.213 N 
ATOM     16  H   UNL     1       0.634  -4.695  -2.883  0.00  0.00    +0.174 HD
BRANCH  15  20
ATOM     17  C   UNL     1       0.383   0.549  -2.239  0.00  0.00    +0.172 C 
ATOM     18  N   UNL     1       0.424  -0.835  -1.760  0.00  0.00    -0.273 N 
ATOM     19  C   UNL     1       0.780  -1.924  -2.491  0.00  0.00    +0.132 A 
ATOM     20  C   UNL     1       0.686  -3.009  -1.681  0.00  0.00    +0.085 A 
ATOM     21  C   UNL     1       0.261  -2.568  -0.420  0.00  0.00    +0.158 A 
ATOM     22  N   UNL     1       0.111  -1.269  -0.466  0.00  0.00    -0.178 NA
ENDBRANCH  15  20
ENDBRANCH   1  15
TORSDOF 4
