REMARK  Name = ZINC09875484
REMARK  6 active torsions:
REMARK  status: ('A' for Active; 'I' for Inactive)
REMARK    1  A    between atoms: N_9  and  S_10
REMARK    2  A    between atoms: S_10  and  C_13
REMARK    3  A    between atoms: C_17  and  C_19
REMARK    4  A    between atoms: N_21  and  C_22
REMARK    5  A    between atoms: C_22  and  C_23
REMARK    6  A    between atoms: C_23  and  N_67
REMARK                            x       y       z     vdW  Elec       q    Type
REMARK                         _______ _______ _______ _____ _____    ______ ____
ROOT
ATOM      1  C   UNL     1       3.776   7.302   1.255  0.00  0.00    +0.109 A 
ATOM      2  C   UNL     1       4.838   6.415   1.241  0.00  0.00    +0.029 A 
ATOM      3  C   UNL     1       4.607   5.051   1.236  0.00  0.00    +0.003 A 
ATOM      4  C   UNL     1       3.315   4.566   1.250  0.00  0.00    +0.013 A 
ATOM      5  C   UNL     1       2.240   5.456   1.259  0.00  0.00    +0.039 A 
ATOM      6  C   UNL     1       2.480   6.831   1.264  0.00  0.00    +0.041 A 
ENDROOT
BRANCH   5   7
ATOM      7  C   UNL     1       0.853   4.944   1.270  0.00  0.00    +0.244 C 
ATOM      8  O   UNL     1      -0.081   5.722   1.283  0.00  0.00    -0.270 OA
ATOM      9  N   UNL     1       0.625   3.616   1.265  0.00  0.00    -0.313 N 
ATOM     10  H   UNL     1       1.371   2.996   1.254  0.00  0.00    +0.149 HD
BRANCH   9  11
ATOM     11  C   UNL     1      -0.750   3.109   1.275  0.00  0.00    +0.092 C 
BRANCH  11  12
ATOM     12  C   UNL     1      -0.729   1.579   1.267  0.00  0.00    -0.049 C 
ATOM     13  C   UNL     1      -0.013   1.086   0.008  0.00  0.00    -0.010 C 
ATOM     14  C   UNL     1      -0.753   1.593  -1.232  0.00  0.00    -0.001 C 
ATOM     15  C   UNL     1      -2.188   1.063  -1.221  0.00  0.00    -0.000 C 
ATOM     16  C   UNL     1      -2.904   1.556   0.038  0.00  0.00    -0.001 C 
ATOM     17  C   UNL     1      -2.164   1.050   1.278  0.00  0.00    -0.010 C 
BRANCH  12  23
ATOM     18  C   UNL     1       0.097  -0.373   2.439  0.00  0.00    -0.049 C 
ATOM     19  C   UNL     1       0.894  -0.832   3.663  0.00  0.00    +0.141 C 
ATOM     20  O   UNL     1       0.253  -0.353   4.849  0.00  0.00    -0.383 OA
ATOM     21  C   UNL     1       0.125   1.070   4.900  0.00  0.00    +0.141 C 
ATOM     22  C   UNL     1      -0.680   1.548   3.688  0.00  0.00    -0.049 C 
ATOM     23  N   UNL     1       0.007   1.102   2.458  0.00  0.00    +0.387 N 
ATOM     24  H   UNL     1       0.956   1.495   2.443  0.00  0.00    -0.081 HD
ENDBRANCH  12  23
ENDBRANCH  11  12
ENDBRANCH   9  11
ENDBRANCH   5   7
BRANCH   1  25
ATOM     25  S   UNL     1       4.082   9.038   1.261  0.00  0.00    +0.075 S 
ATOM     26  O   UNL     1       5.373   9.225   0.700  0.00  0.00    -0.150 OA
ATOM     27  O   UNL     1       2.920   9.656   0.725  0.00  0.00    -0.150 OA
BRANCH  25  36
ATOM     28  C   UNL     1       1.243  10.851   5.474  0.00  0.00    +0.000 A 
ATOM     29  C   UNL     1       0.839  10.525   4.193  0.00  0.00    +0.002 A 
ATOM     30  C   UNL     1       1.757  10.075   3.269  0.00  0.00    +0.025 A 
ATOM     31  C   UNL     1       3.103   9.944   3.619  0.00  0.00    +0.054 A 
ATOM     32  C   UNL     1       3.497  10.270   4.907  0.00  0.00    -0.023 A 
ATOM     33  C   UNL     1       2.572  10.717   5.832  0.00  0.00    +0.005 A 
ATOM     34  C   UNL     1       4.989  10.049   5.025  0.00  0.00    +0.058 C 
ATOM     35  C   UNL     1       5.414   9.544   3.636  0.00  0.00    +0.136 C 
ATOM     36  N   UNL     1       4.181   9.511   2.845  0.00  0.00    -0.202 N 
ENDBRANCH  25  36
ENDBRANCH   1  25
TORSDOF 6
