REMARK  Name = ZINC09850813
REMARK  13 active torsions:
REMARK  status: ('A' for Active; 'I' for Inactive)
REMARK    1  A    between atoms: C_1  and  C_2
REMARK    2  A    between atoms: C_2  and  O_3
REMARK    3  A    between atoms: O_3  and  C_4
REMARK    4  A    between atoms: C_4  and  C_6
REMARK    5  A    between atoms: C_9  and  N_12
REMARK    6  A    between atoms: N_14  and  C_24
REMARK    7  A    between atoms: C_18  and  C_19
REMARK    8  A    between atoms: C_19  and  O_21
REMARK    9  A    between atoms: O_21  and  C_22
REMARK   10  A    between atoms: C_24  and  C_25
REMARK   11  A    between atoms: C_25  and  C_26
REMARK   12  A    between atoms: C_29  and  S_32
REMARK   13  A    between atoms: S_32  and  N_35
REMARK                            x       y       z     vdW  Elec       q    Type
REMARK                         _______ _______ _______ _____ _____    ______ ____
ROOT
ATOM      1  N   UNL     1      -2.106  -5.993  -0.446  0.00  0.00    -0.225 NA
ATOM      2  C   UNL     1      -1.663  -4.761  -0.331  0.00  0.00    +0.168 C 
ATOM      3  N   UNL     1      -0.358  -4.327  -0.251  0.00  0.00    -0.246 N 
ATOM      4  C   UNL     1      -0.078  -3.039  -0.144  0.00  0.00    +0.259 C 
ATOM      5  O   UNL     1       1.066  -2.638  -0.079  0.00  0.00    -0.269 OA
ATOM      6  C   UNL     1      -1.240  -2.107  -0.100  0.00  0.00    +0.084 C 
ATOM      7  C   UNL     1      -1.255  -0.753   0.010  0.00  0.00    +0.111 C 
ATOM      8  S   UNL     1      -2.607  -3.249  -0.239  0.00  0.00    -0.049 S 
ENDROOT
BRANCH   1  12
ATOM      9  C   UNL     1      -6.165  -6.715  -0.642  0.00  0.00    +0.059 A 
ATOM     10  C   UNL     1      -5.295  -7.365  -1.526  0.00  0.00    +0.017 A 
ATOM     11  C   UNL     1      -3.953  -7.126  -1.461  0.00  0.00    +0.028 A 
ATOM     12  C   UNL     1      -3.446  -6.231  -0.510  0.00  0.00    +0.067 A 
ATOM     13  C   UNL     1      -4.316  -5.586   0.377  0.00  0.00    +0.028 A 
ATOM     14  C   UNL     1      -5.658  -5.821   0.309  0.00  0.00    +0.017 A 
BRANCH   9  15
ATOM     15  C   UNL     1      -7.613  -6.973  -0.712  0.00  0.00    +0.339 C 
ATOM     16  O   UNL     1      -8.053  -7.749  -1.537  0.00  0.00    -0.245 OA
BRANCH  15  17
ATOM     17  O   UNL     1      -8.451  -6.348   0.139  0.00  0.00    -0.461 OA
BRANCH  17  19
ATOM     18  C   UNL     1     -10.652  -5.852   1.055  0.00  0.00    +0.048 C 
ATOM     19  C   UNL     1      -9.866  -6.650   0.013  0.00  0.00    +0.229 C 
ENDBRANCH  17  19
ENDBRANCH  15  17
ENDBRANCH   9  15
ENDBRANCH   1  12
BRANCH   7  20
ATOM     20  C   UNL     1      -0.009  -0.025   0.254  0.00  0.00    +0.333 C 
ATOM     21  O   UNL     1       1.031  -0.635   0.411  0.00  0.00    -0.246 OA
BRANCH  20  22
ATOM     22  O   UNL     1      -0.015   1.323   0.305  0.00  0.00    -0.465 OA
ATOM     23  C   UNL     1       1.236   1.969   0.547  0.00  0.00    +0.280 C 
ENDBRANCH  20  22
ENDBRANCH   7  20
BRANCH   3  24
ATOM     24  C   UNL     1       0.733  -5.304  -0.295  0.00  0.00    +0.120 C 
BRANCH  24  25
ATOM     25  C   UNL     1       1.161  -5.526  -1.747  0.00  0.00    +0.054 C 
BRANCH  25  26
ATOM     26  C   UNL     1       2.283  -6.531  -1.792  0.00  0.00    -0.046 A 
ATOM     27  C   UNL     1       3.596  -6.104  -1.718  0.00  0.00    +0.005 A 
ATOM     28  C   UNL     1       4.626  -7.026  -1.755  0.00  0.00    +0.029 A 
ATOM     29  C   UNL     1       4.343  -8.373  -1.874  0.00  0.00    +0.105 A 
ATOM     30  C   UNL     1       3.030  -8.800  -1.952  0.00  0.00    +0.029 A 
ATOM     31  C   UNL     1       2.000  -7.878  -1.911  0.00  0.00    +0.005 A 
BRANCH  29  32
ATOM     32  S   UNL     1       5.655  -9.548  -1.925  0.00  0.00    +0.056 S 
ATOM     33  O   UNL     1       6.769  -8.941  -1.286  0.00  0.00    -0.153 OA
ATOM     34  O   UNL     1       5.109 -10.786  -1.491  0.00  0.00    -0.153 OA
BRANCH  32  35
ATOM     35  N   UNL     1       6.072  -9.746  -3.515  0.00  0.00    -0.204 NA
ATOM     36  H   UNL     1       6.985  -9.974  -3.753  0.00  0.00    +0.144 HD
ATOM     37  H   UNL     1       5.404  -9.635  -4.210  0.00  0.00    +0.144 HD
ENDBRANCH  32  35
ENDBRANCH  29  32
ENDBRANCH  25  26
ENDBRANCH  24  25
ENDBRANCH   3  24
TORSDOF 11
