REMARK  Name = ZINC34829956
REMARK  9 active torsions:
REMARK  status: ('A' for Active; 'I' for Inactive)
REMARK    1  A    between atoms: C_1  and  C_2
REMARK    2  A    between atoms: C_5  and  C_8
REMARK    3  A    between atoms: N_17  and  C_18
REMARK    4  A    between atoms: C_18  and  C_19
REMARK    5  A    between atoms: C_25  and  C_28
REMARK    6  A    between atoms: N_31  and  C_32
REMARK    7  A    between atoms: C_32  and  C_33
REMARK    8  A    between atoms: C_32  and  C_34
REMARK    9  A    between atoms: C_32  and  C_35
REMARK                            x       y       z     vdW  Elec       q    Type
REMARK                         _______ _______ _______ _____ _____    ______ ____
ROOT
ATOM      1  C   UNL     1       2.329  -4.329   0.746  0.00  0.00    +0.020 C 
ENDROOT
BRANCH   1   2
ATOM      2  C   UNL     1       3.235  -4.724   1.884  0.00  0.00    +0.199 C 
ATOM      3  O   UNL     1       2.780  -5.302   2.848  0.00  0.00    -0.278 OA
ATOM      4  N   UNL     1       4.550  -4.436   1.830  0.00  0.00    -0.300 N 
ATOM      5  C   UNL     1       5.114  -3.730   0.670  0.00  0.00    +0.126 C 
ATOM      6  C   UNL     1       6.262  -4.570   0.096  0.00  0.00    +0.128 C 
ATOM      7  N   UNL     1       7.158  -4.954   1.196  0.00  0.00    -0.280 N 
ATOM      8  C   UNL     1       6.594  -5.660   2.355  0.00  0.00    +0.092 C 
ATOM      9  C   UNL     1       5.445  -4.815   2.932  0.00  0.00    +0.130 C 
ATOM     10  C   UNL     1       6.065  -7.027   1.917  0.00  0.00    +0.030 C 
ATOM     11  C   UNL     1       8.473  -4.666   1.141  0.00  0.00    +0.303 C 
ATOM     12  O   UNL     1       9.188  -4.903   2.096  0.00  0.00    -0.253 OA
ATOM     13  N   UNL     1       8.997  -4.114   0.029  0.00  0.00    -0.294 N 
ATOM     14  H   UNL     1       8.416  -3.859  -0.705  0.00  0.00    +0.151 HD
BRANCH  13  15
ATOM     15  C   UNL     1      10.443  -3.900  -0.072  0.00  0.00    +0.028 C 
ATOM     16  C   UNL     1      11.167  -5.242   0.051  0.00  0.00    +0.031 C 
ATOM     17  C   UNL     1      10.771  -3.265  -1.425  0.00  0.00    +0.031 C 
ATOM     18  C   UNL     1      10.900  -2.968   1.053  0.00  0.00    +0.031 C 
ENDBRANCH  13  15
ENDBRANCH   1   2
BRANCH   1  27
ATOM     19  C   UNL     1       0.058  -4.261  -0.009  0.00  0.00    -0.005 C 
ATOM     20  C   UNL     1      -1.348  -4.791   0.253  0.00  0.00    -0.047 A 
ATOM     21  C   UNL     1      -2.504  -4.237  -0.290  0.00  0.00    +0.010 A 
ATOM     22  C   UNL     1      -3.712  -4.773  -0.001  0.00  0.00    +0.045 A 
ATOM     23  S   UNL     1      -3.268  -6.124   1.081  0.00  0.00    -0.101 S 
ATOM     24  C   UNL     1      -1.516  -5.873   1.064  0.00  0.00    -0.010 A 
ATOM     25  C   UNL     1      -0.435  -6.640   1.756  0.00  0.00    +0.024 C 
ATOM     26  C   UNL     1       0.905  -6.219   1.129  0.00  0.00    -0.072 C 
ATOM     27  N   UNL     1       0.955  -4.753   1.044  0.00  0.00    +0.393 N 
ATOM     28  H   UNL     1       0.672  -4.361   1.931  0.00  0.00    -0.080 HD
BRANCH  19  33
ATOM     29  C   UNL     1      -0.013   1.517   0.048  0.00  0.00    +0.044 C 
ATOM     30  C   UNL     1       0.006   0.011   0.033  0.00  0.00    -0.050 A 
ATOM     31  C   UNL     1       0.007  -0.669  -1.171  0.00  0.00    +0.003 A 
ATOM     32  C   UNL     1       0.024  -2.051  -1.184  0.00  0.00    +0.002 A 
ATOM     33  C   UNL     1       0.041  -2.754   0.006  0.00  0.00    -0.057 A 
ATOM     34  C   UNL     1       0.040  -2.074   1.210  0.00  0.00    +0.002 A 
ATOM     35  C   UNL     1       0.028  -0.692   1.224  0.00  0.00    +0.003 A 
ENDBRANCH  19  33
ENDBRANCH   1  27
TORSDOF 4
