REMARK  Name = ZINC21793525
REMARK  7 active torsions:
REMARK  status: ('A' for Active; 'I' for Inactive)
REMARK    1  A    between atoms: C_1  and  C_2
REMARK    2  A    between atoms: C_6  and  C_25
REMARK    3  A    between atoms: C_7  and  O_8
REMARK    4  A    between atoms: O_8  and  C_9
REMARK    5  A    between atoms: C_9  and  C_10
REMARK    6  A    between atoms: C_10  and  N_11
REMARK    7  A    between atoms: C_20  and  C_24
REMARK                            x       y       z     vdW  Elec       q    Type
REMARK                         _______ _______ _______ _____ _____    ______ ____
ROOT
ATOM      1  N   UNL     1       3.190   2.179   0.199  0.00  0.00    -0.266 N 
ATOM      2  C   UNL     1       1.958   1.539   0.017  0.00  0.00    +0.057 A 
ATOM      3  C   UNL     1       1.861   0.159   0.067  0.00  0.00    +0.025 A 
ATOM      4  C   UNL     1       0.628  -0.450  -0.085  0.00  0.00    +0.002 A 
ATOM      5  C   UNL     1      -0.507   0.314  -0.282  0.00  0.00    +0.002 A 
ATOM      6  C   UNL     1      -0.418   1.693  -0.339  0.00  0.00    +0.025 A 
ATOM      7  C   UNL     1       0.815   2.310  -0.200  0.00  0.00    +0.049 A 
ATOM      8  N   UNL     1       0.933   3.701  -0.305  0.00  0.00    -0.342 N 
ATOM      9  C   UNL     1       1.550   4.269  -1.505  0.00  0.00    +0.114 C 
ATOM     10  C   UNL     1       2.785   3.454  -1.890  0.00  0.00    +0.089 C 
ATOM     11  C   UNL     1       3.599   3.136  -0.663  0.00  0.00    +0.224 C 
ATOM     12  O   UNL     1       4.627   3.742  -0.448  0.00  0.00    -0.275 OA
ATOM     13  C   UNL     1       2.342   2.150  -2.556  0.00  0.00    +0.019 C 
ATOM     14  H   UNL     1       0.571   4.364   0.494  0.00  0.00    +0.146 HD
ENDROOT
BRANCH   1  15
ATOM     15  C   UNL     1       4.042   1.810   1.332  0.00  0.00    +0.154 C 
BRANCH  15  16
ATOM     16  C   UNL     1       4.981   0.675   0.915  0.00  0.00    +0.248 C 
BRANCH  16  17
ATOM     17  O   UNL     1       5.877   1.145  -0.094  0.00  0.00    -0.490 OA
BRANCH  17  24
ATOM     18  C   UNL     1       8.380   0.998   1.208  0.00  0.00    +0.047 C 
ATOM     19  C   UNL     1       8.029   0.138   0.022  0.00  0.00    -0.009 A 
ATOM     20  C   UNL     1       8.947  -0.771  -0.468  0.00  0.00    +0.007 A 
ATOM     21  C   UNL     1       8.628  -1.557  -1.560  0.00  0.00    +0.001 A 
ATOM     22  C   UNL     1       7.389  -1.439  -2.162  0.00  0.00    +0.007 A 
ATOM     23  C   UNL     1       6.466  -0.535  -1.673  0.00  0.00    -0.009 A 
ATOM     24  C   UNL     1       6.783   0.255  -0.577  0.00  0.00    +0.126 A 
ATOM     25  C   UNL     1       5.115  -0.406  -2.329  0.00  0.00    +0.047 C 
ENDBRANCH  17  24
ENDBRANCH  16  17
ENDBRANCH  15  16
ENDBRANCH   1  15
TORSDOF 4
