REMARK  Name = ZINC09130188
REMARK  6 active torsions:
REMARK  status: ('A' for Active; 'I' for Inactive)
REMARK    1  A    between atoms: C_1  and  O_2
REMARK    2  A    between atoms: O_2  and  C_3
REMARK    3  A    between atoms: C_6  and  O_31
REMARK    4  A    between atoms: C_7  and  N_9
REMARK    5  A    between atoms: C_10  and  C_12
REMARK    6  A    between atoms: O_31  and  C_32
REMARK                            x       y       z     vdW  Elec       q    Type
REMARK                         _______ _______ _______ _____ _____    ______ ____
ROOT
ATOM      1  C   UNL     1       3.114   0.804   1.252  0.00  0.00    +0.076 C 
ATOM      2  C   UNL     1       4.436   1.423   0.724  0.00  0.00    -0.003 C 
ATOM      3  C   UNL     1       4.500   0.851  -0.713  0.00  0.00    -0.066 C 
ATOM      4  C   UNL     1       5.271   1.829  -1.613  0.00  0.00    -0.017 C 
ATOM      5  C   UNL     1       4.231   2.349  -2.631  0.00  0.00    -0.020 C 
ATOM      6  C   UNL     1       2.886   2.123  -1.898  0.00  0.00    -0.077 C 
ATOM      7  C   UNL     1       2.220   0.789   0.003  0.00  0.00    +0.052 C 
ATOM      8  C   UNL     1       1.344  -0.435  -0.015  0.00  0.00    -0.026 A 
ATOM      9  C   UNL     1       1.610  -1.786  -0.034  0.00  0.00    +0.019 A 
ATOM     10  C   UNL     1       0.567  -2.696  -0.051  0.00  0.00    +0.018 A 
ATOM     11  C   UNL     1      -0.741  -2.244  -0.047  0.00  0.00    +0.017 A 
ATOM     12  C   UNL     1      -1.011  -0.891  -0.027  0.00  0.00    +0.024 A 
ATOM     13  C   UNL     1       0.034   0.031  -0.010  0.00  0.00    +0.036 A 
ATOM     14  N   UNL     1       0.018   1.428   0.012  0.00  0.00    -0.286 N 
ATOM     15  C   UNL     1       1.258   1.950   0.021  0.00  0.00    +0.212 C 
ATOM     16  O   UNL     1       1.547   3.128   0.040  0.00  0.00    -0.277 OA
ATOM     17 BR   UNL     1       0.928  -4.552  -0.077  0.00  0.00    -0.050 Br
ATOM     18  H   UNL     1      -0.793   1.960   0.017  0.00  0.00    +0.155 HD
ATOM     19  N   UNL     1       3.115   0.861  -1.170  0.00  0.00    +0.394 N 
ATOM     20  H   UNL     1       2.940   0.062  -1.790  0.00  0.00    -0.079 HD
ENDROOT
BRANCH   1  22
ATOM     21  N   UNL     1       2.560  -1.098   2.733  0.00  0.00    -0.282 N 
ATOM     22  C   UNL     1       3.345  -0.596   1.759  0.00  0.00    +0.220 C 
ATOM     23  O   UNL     1       4.237  -1.271   1.291  0.00  0.00    -0.275 OA
ATOM     24  H   UNL     1       1.796  -0.591   3.050  0.00  0.00    +0.155 HD
BRANCH  21  29
ATOM     25  C   UNL     1       4.447  -4.006   3.976  0.00  0.00    +0.122 A 
ATOM     26  C   UNL     1       3.413  -4.835   4.386  0.00  0.00    +0.049 A 
ATOM     27  C   UNL     1       2.099  -4.426   4.248  0.00  0.00    +0.051 A 
ATOM     28  C   UNL     1       1.812  -3.187   3.701  0.00  0.00    +0.141 A 
ATOM     29  C   UNL     1       2.848  -2.352   3.288  0.00  0.00    +0.079 A 
ATOM     30  C   UNL     1       4.165  -2.767   3.422  0.00  0.00    +0.072 A 
BRANCH  25  32
ATOM     31  C   UNL     1       5.955  -5.703   4.685  0.00  0.00    +0.277 C 
ATOM     32  O   UNL     1       5.737  -4.412   4.112  0.00  0.00    -0.495 OA
ENDBRANCH  25  32
BRANCH  28  33
ATOM     33  O   UNL     1       0.519  -2.785   3.565  0.00  0.00    -0.493 OA
ATOM     34  C   UNL     1      -0.492  -3.693   4.010  0.00  0.00    +0.277 C 
ENDBRANCH  28  33
ENDBRANCH  21  29
ENDBRANCH   1  22
TORSDOF 4
