REMARK  Name = ZINC09610623
REMARK  8 active torsions:
REMARK  status: ('A' for Active; 'I' for Inactive)
REMARK    1  A    between atoms: C_1  and  O_2
REMARK    2  A    between atoms: O_2  and  C_3
REMARK    3  A    between atoms: C_6  and  N_10
REMARK    4  A    between atoms: C_11  and  C_13
REMARK    5  A    between atoms: C_13  and  C_15
REMARK    6  A    between atoms: C_13  and  N_21
REMARK    7  A    between atoms: N_21  and  S_22
REMARK    8  A    between atoms: S_22  and  C_25
REMARK                            x       y       z     vdW  Elec       q    Type
REMARK                         _______ _______ _______ _____ _____    ______ ____
ROOT
ATOM      1  C   UNL     1      -1.111  -1.975  -2.437  0.00  0.00    +0.192 C 
ENDROOT
BRANCH   1   2
ATOM      2  C   UNL     1      -1.639  -3.386  -2.443  0.00  0.00    -0.020 A 
ATOM      3  C   UNL     1      -3.003  -3.613  -2.462  0.00  0.00    +0.006 A 
ATOM      4  C   UNL     1      -3.487  -4.908  -2.473  0.00  0.00    +0.000 A 
ATOM      5  C   UNL     1      -2.609  -5.975  -2.454  0.00  0.00    +0.000 A 
ATOM      6  C   UNL     1      -1.246  -5.748  -2.430  0.00  0.00    +0.000 A 
ATOM      7  C   UNL     1      -0.761  -4.453  -2.424  0.00  0.00    +0.006 A 
ENDBRANCH   1   2
BRANCH   1   9
ATOM      8  N   UNL     1      -0.438  -2.028  -4.816  0.00  0.00    -0.284 N 
ATOM      9  C   UNL     1      -1.139  -1.421  -3.838  0.00  0.00    +0.240 C 
ATOM     10  O   UNL     1      -1.793  -0.431  -4.086  0.00  0.00    -0.273 OA
ATOM     11  H   UNL     1       0.139  -2.779  -4.606  0.00  0.00    +0.155 HD
BRANCH   8  15
ATOM     12  C   UNL     1      -0.742  -0.673  -8.749  0.00  0.00    +0.138 A 
ATOM     13  C   UNL     1      -0.585  -2.027  -8.492  0.00  0.00    +0.049 A 
ATOM     14  C   UNL     1      -0.479  -2.475  -7.190  0.00  0.00    +0.027 A 
ATOM     15  C   UNL     1      -0.540  -1.572  -6.138  0.00  0.00    +0.035 A 
ATOM     16  C   UNL     1      -0.697  -0.217  -6.394  0.00  0.00    +0.047 A 
ATOM     17  C   UNL     1      -0.798   0.231  -7.698  0.00  0.00    +0.084 A 
ATOM     18 CL   UNL     1      -0.995   1.926  -8.020  0.00  0.00    -0.080 Cl
BRANCH  12  20
ATOM     19  C   UNL     1      -0.775  -1.218 -11.064  0.00  0.00    +0.277 C 
ATOM     20  O   UNL     1      -0.841  -0.232 -10.032  0.00  0.00    -0.494 OA
ENDBRANCH  12  20
ENDBRANCH   8  15
ENDBRANCH   1   9
BRANCH   1  21
ATOM     21  N   UNL     1      -1.947  -1.144  -1.567  0.00  0.00    -0.174 NA
ATOM     22  H   UNL     1      -2.757  -0.740  -1.915  0.00  0.00    +0.149 HD
BRANCH  21  23
ATOM     23  S   UNL     1      -1.508  -0.895   0.011  0.00  0.00    +0.059 S 
ATOM     24  O   UNL     1      -1.207  -2.172   0.555  0.00  0.00    -0.153 OA
ATOM     25  O   UNL     1      -2.492  -0.039   0.575  0.00  0.00    -0.153 OA
BRANCH  23  26
ATOM     26  C   UNL     1       0.001   0.014  -0.006  0.00  0.00    +0.106 A 
ATOM     27  C   UNL     1      -0.026   1.397  -0.002  0.00  0.00    +0.030 A 
ATOM     28  C   UNL     1       1.155   2.113  -0.015  0.00  0.00    +0.025 A 
ATOM     29  C   UNL     1       2.371   1.442  -0.031  0.00  0.00    +0.037 A 
ATOM     30  C   UNL     1       2.394   0.054  -0.034  0.00  0.00    -0.024 A 
ATOM     31  C   UNL     1       1.210  -0.657  -0.021  0.00  0.00    +0.034 A 
ATOM     32  C   UNL     1       3.714  -0.674  -0.050  0.00  0.00    +0.046 C 
ATOM     33  C   UNL     1       4.729   0.128  -0.864  0.00  0.00    +0.101 C 
ATOM     34  C   UNL     1       4.716   1.568  -0.426  0.00  0.00    +0.218 C 
ATOM     35  O   UNL     1       5.750   2.201  -0.418  0.00  0.00    -0.275 OA
ATOM     36  N   UNL     1       3.570   2.160  -0.044  0.00  0.00    -0.285 N 
ATOM     37  H   UNL     1       3.576   3.092   0.225  0.00  0.00    +0.155 HD
ENDBRANCH  23  26
ENDBRANCH  21  23
ENDBRANCH   1  21
TORSDOF 7
