REMARK  Name = ZINC38673038
REMARK  8 active torsions:
REMARK  status: ('A' for Active; 'I' for Inactive)
REMARK    1  A    between atoms: C_1  and  N_2
REMARK    2  A    between atoms: N_5  and  C_8
REMARK    3  A    between atoms: C_8  and  C_10
REMARK    4  A    between atoms: C_8  and  C_28
REMARK    5  A    between atoms: C_10  and  N_11
REMARK    6  A    between atoms: C_12  and  C_14
REMARK    7  A    between atoms: N_19  and  C_21
REMARK    8  A    between atoms: N_37  and  C_38
REMARK                            x       y       z     vdW  Elec       q    Type
REMARK                         _______ _______ _______ _____ _____    ______ ____
ROOT
ATOM      1  C   UNL     1      -0.527  -3.983   1.274  0.00  0.00    +0.104 C 
ENDROOT
BRANCH   1   2
ATOM      2  C   UNL     1      -0.070  -4.595   2.573  0.00  0.00    -0.028 A 
ATOM      3  C   UNL     1       1.018  -4.063   3.241  0.00  0.00    +0.007 A 
ATOM      4  C   UNL     1       1.437  -4.625   4.430  0.00  0.00    +0.024 A 
ATOM      5  C   UNL     1       0.766  -5.723   4.956  0.00  0.00    +0.033 A 
ATOM      6  C   UNL     1      -0.326  -6.254   4.287  0.00  0.00    -0.026 A 
ATOM      7  C   UNL     1      -0.742  -5.682   3.096  0.00  0.00    +0.010 A 
ATOM      8  C   UNL     1      -1.084  -7.436   4.831  0.00  0.00    +0.038 C 
ATOM      9  C   UNL     1      -0.221  -8.213   5.826  0.00  0.00    +0.024 C 
ATOM     10  C   UNL     1       0.341  -7.233   6.865  0.00  0.00    +0.105 C 
ATOM     11  N   UNL     1       1.210  -6.281   6.160  0.00  0.00    -0.333 N 
ATOM     12  C   UNL     1       2.520  -5.922   6.708  0.00  0.00    +0.129 C 
ENDBRANCH   1   2
BRANCH   1  17
ATOM     13  C   UNL     1      -0.202   1.452   2.726  0.00  0.00    -0.096 C 
ATOM     14  N   UNL     1      -0.021  -0.000   2.598  0.00  0.00    +0.379 N 
ATOM     15  C   UNL     1       0.372  -0.325   1.221  0.00  0.00    -0.064 C 
ATOM     16  C   UNL     1       0.579  -1.836   1.092  0.00  0.00    +0.066 C 
ATOM     17  N   UNL     1      -0.669  -2.530   1.440  0.00  0.00    -0.297 NA
ATOM     18  C   UNL     1      -1.088  -2.195   2.809  0.00  0.00    +0.066 C 
ATOM     19  C   UNL     1      -1.281  -0.681   2.923  0.00  0.00    -0.064 C 
ATOM     20  H   UNL     1       0.700  -0.306   3.234  0.00  0.00    -0.082 HD
ENDBRANCH   1  17
BRANCH   1  21
ATOM     21  C   UNL     1       0.505  -4.273   0.182  0.00  0.00    +0.127 C 
BRANCH  21  22
ATOM     22  N   UNL     1       0.058  -3.683  -1.082  0.00  0.00    -0.313 N 
ATOM     23  C   UNL     1       0.857  -3.727  -2.166  0.00  0.00    +0.218 C 
ATOM     24  O   UNL     1       1.946  -4.255  -2.095  0.00  0.00    -0.275 OA
ATOM     25  H   UNL     1      -0.814  -3.261  -1.139  0.00  0.00    +0.149 HD
BRANCH  23  26
ATOM     26  C   UNL     1       0.397  -3.121  -3.467  0.00  0.00    +0.101 C 
ATOM     27  C   UNL     1       0.222  -1.590  -3.332  0.00  0.00    +0.110 C 
ATOM     28  C   UNL     1       1.550  -1.024  -3.784  0.00  0.00    +0.221 C 
ATOM     29  O   UNL     1       1.931   0.107  -3.572  0.00  0.00    -0.275 OA
ATOM     30  N   UNL     1       2.247  -1.958  -4.454  0.00  0.00    -0.271 N 
ATOM     31  C   UNL     1       1.500  -3.220  -4.544  0.00  0.00    +0.127 C 
BRANCH  30  32
ATOM     32  C   UNL     1       3.521  -1.755  -4.998  0.00  0.00    +0.036 A 
ATOM     33  C   UNL     1       4.199  -0.568  -4.755  0.00  0.00    +0.025 A 
ATOM     34  C   UNL     1       5.456  -0.370  -5.292  0.00  0.00    +0.022 A 
ATOM     35  C   UNL     1       6.039  -1.353  -6.072  0.00  0.00    +0.041 A 
ATOM     36  C   UNL     1       5.365  -2.537  -6.315  0.00  0.00    +0.022 A 
ATOM     37  C   UNL     1       4.111  -2.743  -5.776  0.00  0.00    +0.025 A 
ATOM     38 CL   UNL     1       7.619  -1.101  -6.746  0.00  0.00    -0.084 Cl
ENDBRANCH  30  32
ENDBRANCH  23  26
ENDBRANCH  21  22
ENDBRANCH   1  21
TORSDOF 6
