REMARK  Name = ZINC11024207
REMARK  4 active torsions:
REMARK  status: ('A' for Active; 'I' for Inactive)
REMARK    1  A    between atoms: C_6  and  C_7
REMARK    2  A    between atoms: C_14  and  C_16
REMARK    3  A    between atoms: C_16  and  O_17
REMARK    4  A    between atoms: O_17  and  C_18
REMARK                            x       y       z     vdW  Elec       q    Type
REMARK                         _______ _______ _______ _____ _____    ______ ____
ROOT
ATOM      1  C   UNL     1      -0.026   1.392  -0.018  0.00  0.00    +0.070 C 
ATOM      2  C   UNL     1       1.073   2.123  -0.181  0.00  0.00    +0.076 C 
ATOM      3  S   UNL     1       2.680   1.417  -0.176  0.00  0.00    -0.036 S 
ATOM      4  C   UNL     1       2.304  -0.279  -0.434  0.00  0.00    +0.293 C 
ATOM      5  O   UNL     1       3.189  -1.028  -0.801  0.00  0.00    -0.261 OA
ATOM      6  N   UNL     1       1.077  -0.774  -0.240  0.00  0.00    -0.218 N 
ATOM      7  N   UNL     1       0.002   0.010   0.166  0.00  0.00    -0.184 N 
ATOM      8  C   UNL     1      -1.050  -0.587   0.760  0.00  0.00    +0.274 C 
ATOM      9  O   UNL     1      -2.030   0.063   1.054  0.00  0.00    -0.270 OA
ATOM     10  H   UNL     1       0.931  -1.722  -0.389  0.00  0.00    +0.174 HD
ENDROOT
BRANCH   1  16
ATOM     11  C   UNL     1      -2.340   1.635  -0.907  0.00  0.00    +0.011 A 
ATOM     12  C   UNL     1      -3.564   2.273  -0.919  0.00  0.00    +0.016 A 
ATOM     13  C   UNL     1      -3.793   3.352  -0.083  0.00  0.00    +0.018 A 
ATOM     14  C   UNL     1      -2.801   3.795   0.775  0.00  0.00    +0.016 A 
ATOM     15  C   UNL     1      -1.575   3.162   0.800  0.00  0.00    +0.011 A 
ATOM     16  C   UNL     1      -1.337   2.074  -0.041  0.00  0.00    -0.001 A 
ATOM     17 BR   UNL     1      -5.471   4.225  -0.112  0.00  0.00    -0.050 Br
ENDBRANCH   1  16
BRANCH   8  18
ATOM     18  C   UNL     1      -1.008  -2.064   1.058  0.00  0.00    +0.326 C 
BRANCH  18  19
ATOM     19  O   UNL     1      -2.231  -2.458   1.684  0.00  0.00    -0.483 OA
BRANCH  19  20
ATOM     20  C   UNL     1      -2.357  -3.769   2.021  0.00  0.00    +0.121 A 
ATOM     21  C   UNL     1      -1.327  -4.658   1.749  0.00  0.00    +0.047 A 
ATOM     22  C   UNL     1      -1.455  -5.989   2.098  0.00  0.00    +0.019 A 
ATOM     23  C   UNL     1      -2.614  -6.437   2.707  0.00  0.00    +0.018 A 
ATOM     24  C   UNL     1      -3.644  -5.553   2.973  0.00  0.00    +0.019 A 
ATOM     25  C   UNL     1      -3.518  -4.221   2.631  0.00  0.00    +0.047 A 
ATOM     26 BR   UNL     1      -2.788  -8.260   3.177  0.00  0.00    -0.050 Br
ENDBRANCH  19  20
ENDBRANCH  18  19
ENDBRANCH   8  18
TORSDOF 4
