REMARK  Name = ZINC39638476
REMARK  8 active torsions:
REMARK  status: ('A' for Active; 'I' for Inactive)
REMARK    1  A    between atoms: C_1  and  O_2
REMARK    2  A    between atoms: O_2  and  C_3
REMARK    3  A    between atoms: C_7  and  C_11
REMARK    4  A    between atoms: C_8  and  O_9
REMARK    5  A    between atoms: O_9  and  C_10
REMARK    6  A    between atoms: C_11  and  N_12
REMARK    7  A    between atoms: C_13  and  C_15
REMARK    8  A    between atoms: C_26  and  C_28
REMARK                            x       y       z     vdW  Elec       q    Type
REMARK                         _______ _______ _______ _____ _____    ______ ____
ROOT
ATOM      1  C   UNL     1      -0.311  -4.933  -4.486  0.00  0.00    +0.100 C 
ATOM      2  C   UNL     1      -0.262  -4.046  -5.750  0.00  0.00    +0.121 C 
ATOM      3  N   UNL     1       0.421  -4.880  -6.766  0.00  0.00    -0.300 N 
ATOM      4  C   UNL     1      -0.114  -6.245  -6.543  0.00  0.00    +0.115 C 
ATOM      5  C   UNL     1      -0.217  -6.375  -5.011  0.00  0.00    -0.004 C 
ATOM      6  C   UNL     1      -1.470  -7.158  -4.630  0.00  0.00    -0.010 C 
ATOM      7  C   UNL     1      -1.328  -8.605  -5.112  0.00  0.00    -0.082 C 
ATOM      8  N   UNL     1      -0.141  -9.213  -4.498  0.00  0.00    +0.379 N 
ATOM      9  C   UNL     1       1.069  -8.510  -4.944  0.00  0.00    -0.082 C 
ATOM     10  C   UNL     1       1.028  -7.060  -4.455  0.00  0.00    -0.010 C 
ATOM     11  C   UNL     1       1.325  -4.487  -7.686  0.00  0.00    +0.219 C 
ATOM     12  O   UNL     1       1.798  -5.297  -8.455  0.00  0.00    -0.275 OA
ATOM     13  H   UNL     1      -0.214  -9.150  -3.494  0.00  0.00    -0.086 HD
ATOM     14  H   UNL     1      -0.083 -10.183  -4.769  0.00  0.00    -0.086 HD
ENDROOT
BRANCH  11  15
ATOM     15  C   UNL     1       1.748  -3.043  -7.757  0.00  0.00    +0.079 C 
ATOM     16  C   UNL     1       2.769  -2.860  -8.887  0.00  0.00    +0.017 C 
ATOM     17  C   UNL     1       3.312  -1.430  -8.822  0.00  0.00    +0.027 C 
ATOM     18  C   UNL     1       2.179  -0.451  -8.730  0.00  0.00    -0.031 C 
ATOM     19  C   UNL     1       0.970  -0.770  -8.394  0.00  0.00    -0.030 C 
ATOM     20  C   UNL     1       0.530  -2.165  -8.053  0.00  0.00    +0.039 C 
ENDBRANCH  11  15
BRANCH   1  22
ATOM     21  N   UNL     1       0.762  -4.849  -2.259  0.00  0.00    -0.311 N 
ATOM     22  C   UNL     1       0.857  -4.625  -3.584  0.00  0.00    +0.218 C 
ATOM     23  O   UNL     1       1.882  -4.176  -4.051  0.00  0.00    -0.275 OA
ATOM     24  H   UNL     1      -0.031  -5.274  -1.894  0.00  0.00    +0.149 HD
BRANCH  21  25
ATOM     25  C   UNL     1       1.855  -4.452  -1.368  0.00  0.00    +0.143 C 
BRANCH  25  30
ATOM     26  C   UNL     1       1.133  -6.180   1.921  0.00  0.00    +0.162 A 
ATOM     27  C   UNL     1       0.699  -5.117   2.696  0.00  0.00    +0.049 A 
ATOM     28  C   UNL     1       0.641  -3.846   2.156  0.00  0.00    +0.004 A 
ATOM     29  C   UNL     1       1.015  -3.632   0.842  0.00  0.00    +0.009 A 
ATOM     30  C   UNL     1       1.449  -4.689   0.063  0.00  0.00    +0.015 A 
ATOM     31  C   UNL     1       1.516  -5.964   0.601  0.00  0.00    +0.166 A 
BRANCH  26  33
ATOM     32  C   UNL     1       0.784  -7.578   3.813  0.00  0.00    +0.277 C 
ATOM     33  O   UNL     1       1.192  -7.431   2.452  0.00  0.00    -0.491 OA
ENDBRANCH  26  33
BRANCH  31  34
ATOM     34  O   UNL     1       1.948  -7.004  -0.162  0.00  0.00    -0.491 OA
ATOM     35  C   UNL     1       0.948  -7.795  -0.808  0.00  0.00    +0.277 C 
ENDBRANCH  31  34
ENDBRANCH  25  30
ENDBRANCH  21  25
ENDBRANCH   1  22
TORSDOF 6
