REMARK  Name = ZINC39778870
REMARK  9 active torsions:
REMARK  status: ('A' for Active; 'I' for Inactive)
REMARK    1  A    between atoms: C_1  and  C_2
REMARK    2  A    between atoms: C_2  and  N_3
REMARK    3  A    between atoms: C_6  and  N_9
REMARK    4  A    between atoms: C_10  and  C_12
REMARK    5  A    between atoms: C_12  and  S_13
REMARK    6  A    between atoms: S_13  and  C_14
REMARK    7  A    between atoms: C_18  and  C_27
REMARK    8  A    between atoms: N_19  and  C_20
REMARK    9  A    between atoms: C_20  and  C_21
REMARK                            x       y       z     vdW  Elec       q    Type
REMARK                         _______ _______ _______ _____ _____    ______ ____
ROOT
ATOM      1  C   UNL     1       5.861  -6.190   6.671  0.00  0.00    +0.237 C 
ATOM      2  N   UNL     1       4.880  -5.970   7.746  0.00  0.00    -0.237 N 
ATOM      3  N   UNL     1       5.404  -4.961   8.562  0.00  0.00    -0.169 NA
ATOM      4  C   UNL     1       6.563  -4.548   8.121  0.00  0.00    +0.147 C 
ATOM      5  N   UNL     1       6.944  -5.237   6.963  0.00  0.00    -0.283 N 
ATOM      6  H   UNL     1       4.036  -6.434   7.865  0.00  0.00    +0.171 HD
ENDROOT
BRANCH   4   7
ATOM      7  C   UNL     1       7.329  -3.544   8.732  0.00  0.00    +0.022 C 
ATOM      8  C   UNL     1       7.014  -2.826   9.886  0.00  0.00    +0.006 A 
ATOM      9  C   UNL     1       5.906  -2.865  10.759  0.00  0.00    +0.010 A 
ATOM     10  C   UNL     1       5.864  -2.031  11.831  0.00  0.00    +0.001 A 
ATOM     11  C   UNL     1       6.895  -1.128  12.096  0.00  0.00    +0.002 A 
ATOM     12  C   UNL     1       7.988  -1.036  11.299  0.00  0.00    +0.026 A 
ATOM     13  C   UNL     1       8.103  -1.875  10.160  0.00  0.00    +0.043 A 
ATOM     14  N   UNL     1       9.048  -1.979   9.246  0.00  0.00    -0.380 N 
ATOM     15  C   UNL     1       8.674  -3.017   8.280  0.00  0.00    +0.152 C 
ATOM     16  H   UNL     1       9.863  -1.455   9.219  0.00  0.00    +0.160 HD
ENDBRANCH   4   7
BRANCH   1  17
ATOM     17  S   UNL     1       5.121  -5.833   5.053  0.00  0.00    -0.109 S 
BRANCH  17  18
ATOM     18  C   UNL     1       4.544  -4.120   5.203  0.00  0.00    +0.168 C 
BRANCH  18  20
ATOM     19  N   UNL     1       3.394  -2.449   3.788  0.00  0.00    -0.312 N 
ATOM     20  C   UNL     1       3.899  -3.692   3.910  0.00  0.00    +0.223 C 
ATOM     21  O   UNL     1       3.835  -4.467   2.979  0.00  0.00    -0.275 OA
ATOM     22  H   UNL     1       3.445  -1.829   4.533  0.00  0.00    +0.149 HD
BRANCH  19  26
ATOM     23  N   UNL     1       0.713  -0.491   1.192  0.00  0.00    +0.380 N 
ATOM     24  C   UNL     1       2.119  -0.074   1.125  0.00  0.00    -0.077 C 
ATOM     25  C   UNL     1       2.844  -0.509   2.400  0.00  0.00    +0.003 C 
ATOM     26  C   UNL     1       2.767  -2.033   2.531  0.00  0.00    +0.069 C 
ATOM     27  C   UNL     1       1.297  -2.462   2.525  0.00  0.00    +0.003 C 
ATOM     28  C   UNL     1       0.629  -1.955   1.246  0.00  0.00    -0.077 C 
ATOM     29  H   UNL     1       0.287  -0.100   2.020  0.00  0.00    -0.082 HD
BRANCH  23  31
ATOM     30  C   UNL     1      -0.019   1.526   0.010  0.00  0.00    -0.017 C 
ATOM     31  C   UNL     1       0.002  -0.004   0.002  0.00  0.00    -0.082 C 
ENDBRANCH  23  31
ENDBRANCH  19  26
ENDBRANCH  18  20
ENDBRANCH  17  18
ENDBRANCH   1  17
BRANCH   5  32
ATOM     32  C   UNL     1       8.175  -5.046   6.192  0.00  0.00    +0.140 C 
BRANCH  32  33
ATOM     33  C   UNL     1       7.944  -3.984   5.116  0.00  0.00    +0.136 C 
ATOM     34  C   UNL     1       9.225  -3.792   4.266  0.00  0.00    +0.035 C 
ATOM     35  C   UNL     1       8.622  -3.243   2.944  0.00  0.00    +0.031 C 
ATOM     36  C   UNL     1       7.273  -3.989   2.864  0.00  0.00    +0.160 C 
ATOM     37  O   UNL     1       6.939  -4.423   4.189  0.00  0.00    -0.375 OA
ENDBRANCH  32  33
ENDBRANCH   5  32
TORSDOF 8
