REMARK  Name = ZINC49000551
REMARK  7 active torsions:
REMARK  status: ('A' for Active; 'I' for Inactive)
REMARK    1  A    between atoms: C_1  and  C_2
REMARK    2  A    between atoms: C_2  and  C_3
REMARK    3  A    between atoms: C_2  and  N_4
REMARK    4  A    between atoms: C_8  and  C_10
REMARK    5  A    between atoms: C_10  and  N_11
REMARK    6  A    between atoms: C_16  and  C_17
REMARK    7  A    between atoms: C_16  and  C_18
REMARK                            x       y       z     vdW  Elec       q    Type
REMARK                         _______ _______ _______ _____ _____    ______ ____
ROOT
ATOM      1  N   UNL     1      -1.372  -0.511   0.012  0.00  0.00    -0.297 N 
ATOM      2  C   UNL     1      -1.643  -1.734  -0.485  0.00  0.00    +0.306 C 
ATOM      3  O   UNL     1      -0.747  -2.416  -0.942  0.00  0.00    -0.252 OA
ATOM      4  N   UNL     1      -2.908  -2.201  -0.475  0.00  0.00    -0.239 N 
ATOM      5  C   UNL     1      -3.178  -3.424  -0.973  0.00  0.00    +0.234 C 
ATOM      6  O   UNL     1      -2.285  -4.104  -1.429  0.00  0.00    -0.274 OA
ATOM      7  H   UNL     1      -2.087   0.033   0.377  0.00  0.00    +0.151 HD
ATOM      8  H   UNL     1      -3.623  -1.656  -0.111  0.00  0.00    +0.159 HD
ENDROOT
BRANCH   1  10
ATOM      9  C   UNL     1      -0.019   1.526   0.010  0.00  0.00    +0.027 C 
ATOM     10  C   UNL     1       0.002  -0.004   0.002  0.00  0.00    +0.068 C 
ATOM     11  C   UNL     1       0.742  -0.511   1.242  0.00  0.00    +0.027 C 
ENDBRANCH   1  10
BRANCH   5  12
ATOM     12  C   UNL     1      -4.592  -3.945  -0.962  0.00  0.00    +0.181 C 
BRANCH  12  13
ATOM     13  N   UNL     1      -4.623  -5.289  -1.554  0.00  0.00    -0.284 NA
ATOM     14  C   UNL     1      -3.896  -6.252  -0.714  0.00  0.00    +0.113 C 
ATOM     15  C   UNL     1      -3.901  -7.623  -1.396  0.00  0.00    +0.175 C 
ATOM     16  O   UNL     1      -5.253  -8.025  -1.635  0.00  0.00    -0.377 OA
ATOM     17  C   UNL     1      -5.990  -7.111  -2.450  0.00  0.00    +0.181 C 
ATOM     18  C   UNL     1      -6.006  -5.735  -1.779  0.00  0.00    +0.040 C 
ATOM     19  C   UNL     1      -6.737  -5.829  -0.438  0.00  0.00    +0.030 C 
ATOM     20  C   UNL     1      -6.724  -4.732  -2.684  0.00  0.00    +0.030 C 
ENDBRANCH  12  13
ENDBRANCH   5  12
TORSDOF 3
