REMARK  Name = ZINC12506453
REMARK  4 active torsions:
REMARK  status: ('A' for Active; 'I' for Inactive)
REMARK    1  A    between atoms: C_1  and  C_2
REMARK    2  A    between atoms: C_4  and  C_29
REMARK    3  A    between atoms: C_5  and  C_9
REMARK    4  A    between atoms: C_7  and  C_8
REMARK                            x       y       z     vdW  Elec       q    Type
REMARK                         _______ _______ _______ _____ _____    ______ ____
ROOT
ATOM      1  C   UNL     1       0.169  -4.236  -0.461  0.00  0.00    +0.209 C 
ATOM      2  N   UNL     1      -0.343  -4.962   0.716  0.00  0.00    -0.294 N 
ATOM      3  C   UNL     1       0.475  -5.177   1.794  0.00  0.00    +0.160 C 
ATOM      4  N   UNL     1      -0.074  -5.264   3.045  0.00  0.00    -0.332 N 
ATOM      5  N   UNL     1       1.783  -5.303   1.653  0.00  0.00    -0.302 N 
ATOM      6  C   UNL     1       2.315  -5.151   0.416  0.00  0.00    +0.213 A 
ATOM      7  N   UNL     1       1.567  -4.646  -0.634  0.00  0.00    -0.286 N 
ATOM      8  C   UNL     1       2.369  -4.622  -1.751  0.00  0.00    +0.076 A 
ATOM      9  C   UNL     1       2.179  -4.244  -3.073  0.00  0.00    +0.077 A 
ATOM     10  C   UNL     1       3.222  -4.344  -3.974  0.00  0.00    +0.164 A 
ATOM     11  C   UNL     1       4.463  -4.822  -3.567  0.00  0.00    +0.164 A 
ATOM     12  C   UNL     1       4.670  -5.204  -2.257  0.00  0.00    +0.079 A 
ATOM     13  C   UNL     1       3.623  -5.107  -1.335  0.00  0.00    +0.095 A 
ATOM     14  N   UNL     1       3.527  -5.403  -0.003  0.00  0.00    -0.212 NA
ATOM     15  O   UNL     1       5.481  -4.912  -4.473  0.00  0.00    -0.488 OA
ATOM     16  C   UNL     1       5.322  -5.894  -5.498  0.00  0.00    +0.232 C 
ATOM     17  C   UNL     1       4.497  -5.343  -6.650  0.00  0.00    +0.082 C 
ATOM     18  C   UNL     1       3.068  -5.026  -6.239  0.00  0.00    +0.232 C 
ATOM     19  O   UNL     1       3.039  -3.971  -5.276  0.00  0.00    -0.488 OA
ATOM     20  H   UNL     1      -1.256  -5.286   0.728  0.00  0.00    +0.151 HD
ATOM     21  H   UNL     1      -1.033  -5.173   3.160  0.00  0.00    +0.145 HD
ATOM     22  H   UNL     1       0.495  -5.416   3.815  0.00  0.00    +0.145 HD
ATOM     23  H   UNL     1       2.349  -5.499   2.416  0.00  0.00    +0.171 HD
ENDROOT
BRANCH   1  28
ATOM     24  C   UNL     1      -0.125   1.463   0.453  0.00  0.00    +0.044 C 
ATOM     25  C   UNL     1      -0.049  -0.023   0.214  0.00  0.00    -0.047 A 
ATOM     26  C   UNL     1      -1.184  -0.725  -0.147  0.00  0.00    +0.007 A 
ATOM     27  C   UNL     1      -1.113  -2.088  -0.365  0.00  0.00    -0.043 A 
ATOM     28  C   UNL     1       0.092  -2.749  -0.223  0.00  0.00    -0.004 A 
ATOM     29  C   UNL     1       1.227  -2.048   0.137  0.00  0.00    +0.011 A 
ATOM     30  C   UNL     1       1.158  -0.684   0.351  0.00  0.00    -0.047 A 
ATOM     31  C   UNL     1       2.397   0.082   0.739  0.00  0.00    +0.044 C 
ATOM     32  C   UNL     1      -2.351  -2.853  -0.758  0.00  0.00    +0.044 C 
ENDBRANCH   1  28
TORSDOF 1
