REMARK  Name = ZINC20465622
REMARK  8 active torsions:
REMARK  status: ('A' for Active; 'I' for Inactive)
REMARK    1  A    between atoms: C_4  and  S_7
REMARK    2  A    between atoms: S_7  and  N_10
REMARK    3  A    between atoms: N_10  and  C_11
REMARK    4  A    between atoms: C_11  and  C_12
REMARK    5  A    between atoms: C_14  and  N_24
REMARK    6  A    between atoms: C_16  and  O_23
REMARK    7  A    between atoms: C_18  and  C_21
REMARK    8  A    between atoms: C_21  and  O_22
REMARK                            x       y       z     vdW  Elec       q    Type
REMARK                         _______ _______ _______ _____ _____    ______ ____
ROOT
ATOM      1  C   UNL     1      -4.236   1.250   3.669  0.00  0.00    +0.154 C 
ATOM      2  C   UNL     1      -4.528   2.396   4.662  0.00  0.00    +0.118 C 
ATOM      3  C   UNL     1      -4.218   1.782   6.046  0.00  0.00    +0.165 C 
ATOM      4  C   UNL     1      -3.775   0.337   5.724  0.00  0.00    +0.174 C 
ATOM      5  O   UNL     1      -3.303   0.391   4.360  0.00  0.00    -0.366 OA
ENDROOT
BRANCH   2   6
ATOM      6  N   UNL     1      -3.650   3.544   4.398  0.00  0.00    -0.292 NA
ATOM      7  C   UNL     1      -2.236   3.169   4.538  0.00  0.00    +0.104 C 
ATOM      8  C   UNL     1      -1.355   4.367   4.178  0.00  0.00    +0.122 C 
ATOM      9  N   UNL     1      -1.687   5.497   5.056  0.00  0.00    -0.314 N 
ATOM     10  C   UNL     1      -3.101   5.873   4.916  0.00  0.00    +0.122 C 
ATOM     11  C   UNL     1      -3.982   4.674   5.277  0.00  0.00    +0.104 C 
ATOM     12  C   UNL     1      -0.856   6.583   4.806  0.00  0.00    +0.099 A 
ATOM     13  C   UNL     1       0.524   6.431   4.894  0.00  0.00    +0.042 A 
ATOM     14  C   UNL     1       1.339   7.518   4.637  0.00  0.00    +0.005 A 
ATOM     15  C   UNL     1       0.744   8.730   4.310  0.00  0.00    +0.018 A 
ATOM     16  C   UNL     1      -0.632   8.811   4.246  0.00  0.00    +0.084 A 
ATOM     17  N   UNL     1      -1.385   7.755   4.491  0.00  0.00    -0.350 N 
ATOM     18  H   UNL     1      -2.478   7.867   4.428  0.00  0.00    +0.166 HD
ENDBRANCH   2   6
BRANCH   3  19
ATOM     19  O   UNL     1      -3.162   2.498   6.687  0.00  0.00    -0.388 OA
ATOM     20  H   UNL     1      -2.815   2.191   7.685  0.00  0.00    +0.210 HD
ENDBRANCH   3  19
BRANCH   1  21
ATOM     21  C   UNL     1      -3.603   1.803   2.390  0.00  0.00    +0.139 C 
BRANCH  21  22
ATOM     22  N   UNL     1      -3.475   0.727   1.404  0.00  0.00    -0.187 NA
ATOM     23  H   UNL     1      -3.413  -0.320   1.737  0.00  0.00    +0.148 HD
BRANCH  22  24
ATOM     24  S   UNL     1      -3.175   1.090  -0.184  0.00  0.00    +0.058 S 
ATOM     25  O   UNL     1      -4.106   2.098  -0.553  0.00  0.00    -0.153 OA
ATOM     26  O   UNL     1      -3.080  -0.149  -0.873  0.00  0.00    -0.153 OA
BRANCH  24  30
ATOM     27  C   UNL     1       0.928   2.993  -0.375  0.00  0.00    +0.000 A 
ATOM     28  C   UNL     1       0.795   1.623  -0.500  0.00  0.00    +0.002 A 
ATOM     29  C   UNL     1      -0.457   1.041  -0.438  0.00  0.00    +0.028 A 
ATOM     30  C   UNL     1      -1.577   1.831  -0.256  0.00  0.00    +0.105 A 
ATOM     31  C   UNL     1      -1.444   3.200  -0.126  0.00  0.00    +0.028 A 
ATOM     32  C   UNL     1      -0.191   3.782  -0.188  0.00  0.00    +0.002 A 
ENDBRANCH  24  30
ENDBRANCH  22  24
ENDBRANCH  21  22
ENDBRANCH   1  21
BRANCH   4  33
ATOM     33  C   UNL     1      -2.646  -0.095   6.662  0.00  0.00    +0.190 C 
BRANCH  33  34
ATOM     34  O   UNL     1      -2.331  -1.469   6.426  0.00  0.00    -0.392 OA
ATOM     35  H   UNL     1      -1.538  -1.959   7.011  0.00  0.00    +0.210 HD
ENDBRANCH  33  34
ENDBRANCH   4  33
TORSDOF 8
