REMARK  Name = ZINC28195928
REMARK  6 active torsions:
REMARK  status: ('A' for Active; 'I' for Inactive)
REMARK    1  A    between atoms: C_1  and  C_2
REMARK    2  A    between atoms: C_5  and  S_9
REMARK    3  A    between atoms: S_9  and  N_12
REMARK    4  A    between atoms: N_12  and  C_13
REMARK    5  A    between atoms: C_16  and  O_19
REMARK    6  A    between atoms: O_19  and  C_20
REMARK                            x       y       z     vdW  Elec       q    Type
REMARK                         _______ _______ _______ _____ _____    ______ ____
ROOT
ATOM      1  S   UNL     1       0.096   1.445  -0.082  0.00  0.00    +0.073 S 
ATOM      2  O   UNL     1      -0.442   1.933   1.139  0.00  0.00    -0.150 OA
ATOM      3  O   UNL     1       0.285   0.058  -0.331  0.00  0.00    -0.150 OA
ENDROOT
BRANCH   1   8
ATOM      4  C   UNL     1       5.488   4.067  -0.762  0.00  0.00    +0.044 C 
ATOM      5  C   UNL     1       4.141   3.413  -0.593  0.00  0.00    -0.049 A 
ATOM      6  C   UNL     1       3.388   3.664   0.538  0.00  0.00    +0.005 A 
ATOM      7  C   UNL     1       2.153   3.063   0.694  0.00  0.00    +0.030 A 
ATOM      8  C   UNL     1       1.670   2.211  -0.281  0.00  0.00    +0.122 A 
ATOM      9  C   UNL     1       2.426   1.955  -1.411  0.00  0.00    +0.045 A 
ATOM     10  C   UNL     1       3.660   2.561  -1.569  0.00  0.00    +0.020 A 
ATOM     11 BR   UNL     1       1.770   0.783  -2.743  0.00  0.00    -0.048 Br
ENDBRANCH   1   8
BRANCH   1  12
ATOM     12  N   UNL     1      -0.882   2.013  -1.292  0.00  0.00    -0.216 N 
ATOM     13  H   UNL     1      -1.302   1.317  -2.033  0.00  0.00    +0.174 HD
BRANCH  12  14
ATOM     14  C   UNL     1      -1.174   3.380  -1.371  0.00  0.00    +0.048 A 
ATOM     15  C   UNL     1      -1.550   4.077  -0.231  0.00  0.00    +0.028 A 
ATOM     16  C   UNL     1      -1.833   5.426  -0.308  0.00  0.00    +0.047 A 
ATOM     17  C   UNL     1      -1.752   6.083  -1.528  0.00  0.00    +0.120 A 
ATOM     18  C   UNL     1      -1.382   5.386  -2.668  0.00  0.00    +0.047 A 
ATOM     19  C   UNL     1      -1.093   4.038  -2.591  0.00  0.00    +0.028 A 
BRANCH  17  20
ATOM     20  O   UNL     1      -2.037   7.411  -1.605  0.00  0.00    -0.495 OA
ATOM     21  C   UNL     1      -2.412   8.065  -0.391  0.00  0.00    +0.277 C 
ENDBRANCH  17  20
ENDBRANCH  12  14
ENDBRANCH   1  12
TORSDOF 4
