REMARK  Name = ZINC07973911
REMARK  6 active torsions:
REMARK  status: ('A' for Active; 'I' for Inactive)
REMARK    1  A    between atoms: C_1  and  C_2
REMARK    2  A    between atoms: C_11  and  N_15
REMARK    3  A    between atoms: N_15  and  C_16
REMARK    4  A    between atoms: C_19  and  C_22
REMARK    5  A    between atoms: N_24  and  C_25
REMARK    6  A    between atoms: N_24  and  C_26
REMARK                            x       y       z     vdW  Elec       q    Type
REMARK                         _______ _______ _______ _____ _____    ______ ____
ROOT
ATOM      1  C   UNL     1     -11.133   6.003   1.325  0.00  0.00    +0.008 C 
ATOM      2  C   UNL     1      -9.623   6.216   1.451  0.00  0.00    -0.009 C 
ATOM      3  C   UNL     1      -8.893   5.313   0.453  0.00  0.00    +0.008 C 
ATOM      4  C   UNL     1      -7.391   5.333   0.738  0.00  0.00    +0.037 C 
ATOM      5  C   UNL     1      -6.918   6.784   0.781  0.00  0.00    -0.025 A 
ATOM      6  C   UNL     1      -7.797   7.790   0.960  0.00  0.00    -0.004 A 
ATOM      7  S   UNL     1      -6.818   9.268   0.942  0.00  0.00    -0.073 S 
ATOM      8  C   UNL     1      -5.224   8.531   0.694  0.00  0.00    +0.114 A 
ATOM      9  C   UNL     1      -5.509   7.152   0.627  0.00  0.00    +0.051 A 
ATOM     10  C   UNL     1      -4.383   6.304   0.436  0.00  0.00    +0.135 A 
ATOM     11  N   UNL     1      -3.181   6.846   0.325  0.00  0.00    -0.220 NA
ATOM     12  C   UNL     1      -2.989   8.151   0.391  0.00  0.00    +0.224 A 
ATOM     13  N   UNL     1      -3.993   8.987   0.573  0.00  0.00    -0.228 NA
ATOM     14  C   UNL     1      -9.281   7.678   1.134  0.00  0.00    +0.046 C 
ENDROOT
BRANCH  10  15
ATOM     15  N   UNL     1      -4.543   4.931   0.361  0.00  0.00    -0.299 N 
ATOM     16  H   UNL     1      -5.434   4.545   0.361  0.00  0.00    +0.154 HD
BRANCH  15  17
ATOM     17  C   UNL     1      -3.427   4.103   0.286  0.00  0.00    +0.032 A 
ATOM     18  C   UNL     1      -2.247   4.468   0.927  0.00  0.00    +0.024 A 
ATOM     19  C   UNL     1      -1.141   3.652   0.856  0.00  0.00    +0.015 A 
ATOM     20  C   UNL     1      -1.204   2.454   0.138  0.00  0.00    +0.037 A 
ATOM     21  C   UNL     1      -2.389   2.092  -0.509  0.00  0.00    +0.015 A 
ATOM     22  C   UNL     1      -3.493   2.911  -0.429  0.00  0.00    +0.024 A 
BRANCH  20  23
ATOM     23  C   UNL     1      -0.021   1.577   0.058  0.00  0.00    +0.246 C 
ATOM     24  O   UNL     1       1.092   2.042   0.208  0.00  0.00    -0.270 OA
ATOM     25  N   UNL     1      -0.174   0.258  -0.175  0.00  0.00    -0.304 N 
ATOM     26  C   UNL     1       1.003  -0.594  -0.364  0.00  0.00    +0.132 C 
ATOM     27  C   UNL     1      -1.517  -0.323  -0.241  0.00  0.00    +0.132 C 
ENDBRANCH  20  23
ENDBRANCH  15  17
ENDBRANCH  10  15
TORSDOF 3
