REMARK  Name = ZINC27228817
REMARK  11 active torsions:
REMARK  status: ('A' for Active; 'I' for Inactive)
REMARK    1  A    between atoms: C_1  and  N_2
REMARK    2  A    between atoms: N_2  and  C_3
REMARK    3  A    between atoms: N_2  and  C_21
REMARK    4  A    between atoms: C_3  and  C_4
REMARK    5  A    between atoms: C_4  and  C_6
REMARK    6  A    between atoms: C_4  and  O_20
REMARK    7  A    between atoms: C_6  and  N_7
REMARK    8  A    between atoms: C_21  and  C_22
REMARK    9  A    between atoms: C_22  and  C_24
REMARK   10  A    between atoms: C_22  and  O_38
REMARK   11  A    between atoms: C_24  and  N_25
REMARK                            x       y       z     vdW  Elec       q    Type
REMARK                         _______ _______ _______ _____ _____    ______ ____
ROOT
ATOM      1  C   UNL     1       0.194   0.511   2.628  0.00  0.00    -0.096 C 
ATOM      2  N   UNL     1       1.373   1.381   2.521  0.00  0.00    +0.381 N 
ATOM      3  H   UNL     1       1.031   2.424   2.594  0.00  0.00    -0.082 HD
ENDROOT
BRANCH   2   4
ATOM      4  C   UNL     1       2.311   1.135   3.624  0.00  0.00    -0.046 C 
BRANCH   4   5
ATOM      5  C   UNL     1       1.734   1.708   4.921  0.00  0.00    +0.118 C 
BRANCH   5   6
ATOM      6  O   UNL     1       0.566   0.972   5.288  0.00  0.00    -0.392 OA
ATOM      7  H   UNL     1       0.011   1.240   6.199  0.00  0.00    +0.210 HD
ENDBRANCH   5   6
BRANCH   5   8
ATOM      8  C   UNL     1       2.777   1.598   6.035  0.00  0.00    +0.151 C 
BRANCH   8   9
ATOM      9  N   UNL     1       2.272   2.253   7.244  0.00  0.00    -0.337 N 
ATOM     10  C   UNL     1       2.467   3.585   7.562  0.00  0.00    +0.050 A 
ATOM     11  C   UNL     1       3.133   4.617   6.907  0.00  0.00    +0.026 A 
ATOM     12  C   UNL     1       3.171   5.877   7.465  0.00  0.00    +0.002 A 
ATOM     13  C   UNL     1       2.550   6.130   8.678  0.00  0.00    +0.001 A 
ATOM     14  C   UNL     1       1.879   5.123   9.338  0.00  0.00    +0.010 A 
ATOM     15  C   UNL     1       1.836   3.844   8.788  0.00  0.00    +0.008 A 
ATOM     16  C   UNL     1       1.234   2.571   9.225  0.00  0.00    +0.008 A 
ATOM     17  C   UNL     1       1.535   1.626   8.233  0.00  0.00    +0.050 A 
ATOM     18  C   UNL     1       1.088   0.317   8.381  0.00  0.00    +0.026 A 
ATOM     19  C   UNL     1       0.357  -0.041   9.494  0.00  0.00    +0.002 A 
ATOM     20  C   UNL     1       0.060   0.894  10.473  0.00  0.00    +0.001 A 
ATOM     21  C   UNL     1       0.495   2.196  10.344  0.00  0.00    +0.010 A 
ENDBRANCH   8   9
ENDBRANCH   5   8
ENDBRANCH   4   5
ENDBRANCH   2   4
BRANCH   2  22
ATOM     22  C   UNL     1       2.034   1.212   1.220  0.00  0.00    -0.046 C 
BRANCH  22  23
ATOM     23  C   UNL     1       2.981   2.389   0.973  0.00  0.00    +0.118 C 
BRANCH  23  24
ATOM     24  O   UNL     1       2.229   3.603   0.928  0.00  0.00    -0.392 OA
ATOM     25  H   UNL     1       2.742   4.561   0.759  0.00  0.00    +0.210 HD
ENDBRANCH  23  24
BRANCH  23  26
ATOM     26  C   UNL     1       3.706   2.189  -0.359  0.00  0.00    +0.151 C 
BRANCH  26  27
ATOM     27  N   UNL     1       4.698   3.252  -0.539  0.00  0.00    -0.337 N 
ATOM     28  C   UNL     1       4.454   4.463  -1.163  0.00  0.00    +0.050 A 
ATOM     29  C   UNL     1       3.315   5.000  -1.754  0.00  0.00    +0.026 A 
ATOM     30  C   UNL     1       3.356   6.259  -2.313  0.00  0.00    +0.002 A 
ATOM     31  C   UNL     1       4.527   7.002  -2.294  0.00  0.00    +0.001 A 
ATOM     32  C   UNL     1       5.664   6.489  -1.707  0.00  0.00    +0.010 A 
ATOM     33  C   UNL     1       5.637   5.217  -1.142  0.00  0.00    +0.008 A 
ATOM     34  C   UNL     1       6.650   4.386  -0.465  0.00  0.00    +0.008 A 
ATOM     35  C   UNL     1       6.013   3.186  -0.116  0.00  0.00    +0.050 A 
ATOM     36  C   UNL     1       6.737   2.198   0.545  0.00  0.00    +0.026 A 
ATOM     37  C   UNL     1       8.065   2.403   0.850  0.00  0.00    +0.002 A 
ATOM     38  C   UNL     1       8.693   3.590   0.504  0.00  0.00    +0.001 A 
ATOM     39  C   UNL     1       7.993   4.580  -0.151  0.00  0.00    +0.010 A 
ENDBRANCH  26  27
ENDBRANCH  23  26
ENDBRANCH  22  23
ENDBRANCH   2  22
TORSDOF 10
