REMARK  Name = ZINC38690809
REMARK  3 active torsions:
REMARK  status: ('A' for Active; 'I' for Inactive)
REMARK    1  A    between atoms: C_4  and  C_7
REMARK    2  A    between atoms: C_9  and  C_13
REMARK    3  A    between atoms: C_21  and  C_23
REMARK                            x       y       z     vdW  Elec       q    Type
REMARK                         _______ _______ _______ _____ _____    ______ ____
ROOT
ATOM      1  C   UNL     1       5.763  -2.987  -1.332  0.00  0.00    +0.206 C 
ATOM      2  N   UNL     1       5.558  -2.129  -2.524  0.00  0.00    -0.231 NA
ATOM      3  N   UNL     1       6.863  -2.033  -3.200  0.00  0.00    -0.224 NA
ATOM      4  C   UNL     1       7.557  -3.257  -2.754  0.00  0.00    +0.240 C 
ATOM      5  N   UNL     1       7.215  -3.273  -1.293  0.00  0.00    -0.206 N 
ATOM      6  N   UNL     1       8.308  -3.442  -0.471  0.00  0.00    -0.178 NA
ATOM      7  C   UNL     1       9.528  -3.320  -0.878  0.00  0.00    +0.098 C 
ATOM      8  S   UNL     1       9.369  -3.013  -2.665  0.00  0.00    -0.067 S 
ATOM      9  H   UNL     1       4.861  -2.523  -3.138  0.00  0.00    +0.143 HD
ATOM     10  H   UNL     1       7.362  -1.207  -2.907  0.00  0.00    +0.144 HD
ENDROOT
BRANCH   7  11
ATOM     11  C   UNL     1      10.792  -3.418  -0.065  0.00  0.00    +0.046 C 
ATOM     12  C   UNL     1      11.345  -4.842  -0.150  0.00  0.00    +0.010 C 
ATOM     13  C   UNL     1      12.629  -4.942   0.675  0.00  0.00    +0.001 C 
ATOM     14  C   UNL     1      12.324  -4.601   2.135  0.00  0.00    +0.000 C 
ATOM     15  C   UNL     1      11.771  -3.176   2.221  0.00  0.00    +0.001 C 
ATOM     16  C   UNL     1      10.488  -3.077   1.395  0.00  0.00    +0.010 C 
ENDBRANCH   7  11
BRANCH   1  19
ATOM     17  C   UNL     1       3.699  -0.689  -0.037  0.00  0.00    +0.091 C 
ATOM     18  C   UNL     1       3.832  -2.029  -0.051  0.00  0.00    +0.034 C 
ATOM     19  C   UNL     1       5.335  -2.245  -0.065  0.00  0.00    +0.190 C 
ATOM     20  N   UNL     1       5.871  -0.874  -0.056  0.00  0.00    -0.176 NA
ATOM     21  N   UNL     1       4.919  -0.090  -0.047  0.00  0.00    -0.154 NA
BRANCH  17  25
ATOM     22  C   UNL     1      -0.017   1.379   0.010  0.00  0.00    +0.000 A 
ATOM     23  C   UNL     1       1.169   2.092   0.002  0.00  0.00    +0.001 A 
ATOM     24  C   UNL     1       2.377   1.426  -0.013  0.00  0.00    +0.010 A 
ATOM     25  C   UNL     1       2.402   0.033  -0.021  0.00  0.00    +0.002 A 
ATOM     26  C   UNL     1       1.205  -0.680  -0.013  0.00  0.00    +0.010 A 
ATOM     27  C   UNL     1       0.002  -0.004   0.002  0.00  0.00    +0.001 A 
ENDBRANCH  17  25
ENDBRANCH   1  19
TORSDOF 3
