REMARK  Name = ZINC50208577
REMARK  4 active torsions:
REMARK  status: ('A' for Active; 'I' for Inactive)
REMARK    1  A    between atoms: C_1  and  C_2
REMARK    2  A    between atoms: C_4  and  C_19
REMARK    3  A    between atoms: C_6  and  C_11
REMARK    4  A    between atoms: C_16  and  N_17
REMARK                            x       y       z     vdW  Elec       q    Type
REMARK                         _______ _______ _______ _____ _____    ______ ____
ROOT
ATOM      1  C   UNL     1       0.013   1.492   0.528  0.00  0.00    +0.066 C 
ATOM      2  C   UNL     1       0.018  -0.006   0.364  0.00  0.00    +0.044 A 
ATOM      3  C   UNL     1      -1.190  -0.717   0.427  0.00  0.00    +0.044 A 
ATOM      4  C   UNL     1      -1.176  -2.065   0.278  0.00  0.00    +0.027 A 
ATOM      5  N   UNL     1       0.016  -2.694   0.070  0.00  0.00    -0.264 N 
ATOM      6  C   UNL     1       0.378  -4.001  -0.116  0.00  0.00    +0.172 A 
ATOM      7  N   UNL     1       1.686  -4.022  -0.271  0.00  0.00    -0.127 NA
ATOM      8  N   UNL     1       2.162  -2.830  -0.196  0.00  0.00    -0.108 NA
ATOM      9  C   UNL     1       1.180  -1.966   0.013  0.00  0.00    +0.256 A 
ATOM     10  N   UNL     1       1.151  -0.635   0.157  0.00  0.00    -0.216 NA
ATOM     11  C   UNL     1      -2.457  -2.855   0.342  0.00  0.00    +0.064 C 
ENDROOT
BRANCH   6  12
ATOM     12  C   UNL     1      -0.527  -5.167  -0.137  0.00  0.00    +0.041 A 
ATOM     13  C   UNL     1      -1.570  -5.229  -1.061  0.00  0.00    +0.028 A 
ATOM     14  C   UNL     1      -2.413  -6.322  -1.077  0.00  0.00    +0.019 A 
ATOM     15  C   UNL     1      -2.228  -7.359  -0.177  0.00  0.00    +0.017 A 
ATOM     16  C   UNL     1      -1.198  -7.310   0.744  0.00  0.00    +0.024 A 
ATOM     17  C   UNL     1      -0.339  -6.222   0.768  0.00  0.00    +0.035 A 
ATOM     18 BR   UNL     1      -3.826  -6.404  -2.330  0.00  0.00    -0.050 Br
BRANCH  17  19
ATOM     19  N   UNL     1       0.704  -6.174   1.693  0.00  0.00    -0.357 N 
ATOM     20  H   UNL     1       1.302  -5.410   1.711  0.00  0.00    +0.142 HD
ATOM     21  H   UNL     1       0.832  -6.904   2.318  0.00  0.00    +0.142 HD
ENDBRANCH  17  19
ENDBRANCH   6  12
TORSDOF 2
