REMARK  Name = ZINC08995140
REMARK  3 active torsions:
REMARK  status: ('A' for Active; 'I' for Inactive)
REMARK    1  A    between atoms: C_7  and  C_11
REMARK    2  A    between atoms: C_11  and  C_12
REMARK    3  A    between atoms: N_20  and  C_23
REMARK                            x       y       z     vdW  Elec       q    Type
REMARK                         _______ _______ _______ _____ _____    ______ ____
ROOT
ATOM      1  C   UNL     1       1.420   1.899  -0.001  0.00  0.00    -0.053 C 
ATOM      2  C   UNL     1      -0.019   1.579   0.011  0.00  0.00    +0.074 C 
ATOM      3  C   UNL     1       0.002  -0.004   0.002  0.00  0.00    +0.088 C 
ATOM      4  C   UNL     1      -1.474  -0.174  -0.243  0.00  0.00    +0.229 C 
ATOM      5  O   UNL     1      -2.012  -1.033  -0.908  0.00  0.00    -0.275 OA
ATOM      6  N   UNL     1      -2.080   0.843   0.439  0.00  0.00    -0.210 N 
ATOM      7  C   UNL     1      -1.206   1.843   0.788  0.00  0.00    +0.228 C 
ATOM      8  O   UNL     1      -1.390   2.747   1.574  0.00  0.00    -0.275 OA
ATOM      9  C   UNL     1       0.986  -0.180  -1.143  0.00  0.00    +0.050 C 
ATOM     10  C   UNL     1       1.707  -1.497  -1.073  0.00  0.00    -0.025 A 
ATOM     11  C   UNL     1       2.508  -2.088  -0.121  0.00  0.00    +0.043 A 
ATOM     12  C   UNL     1       3.041  -3.346  -0.349  0.00  0.00    +0.124 A 
ATOM     13  C   UNL     1       2.765  -4.006  -1.535  0.00  0.00    +0.040 A 
ATOM     14  C   UNL     1       1.964  -3.415  -2.490  0.00  0.00    +0.026 A 
ATOM     15  C   UNL     1       1.426  -2.150  -2.269  0.00  0.00    +0.036 A 
ATOM     16  N   UNL     1       0.601  -1.356  -3.071  0.00  0.00    -0.286 N 
ATOM     17  C   UNL     1       0.299  -0.183  -2.482  0.00  0.00    +0.211 C 
ATOM     18  O   UNL     1      -0.393   0.701  -2.943  0.00  0.00    -0.277 OA
ATOM     19  F   UNL     1       3.827  -3.928   0.583  0.00  0.00    -0.205 F 
ATOM     20  H   UNL     1       0.284  -1.619  -3.949  0.00  0.00    +0.155 HD
ATOM     21  N   UNL     1       1.931   0.950  -1.041  0.00  0.00    +0.394 N 
ATOM     22  H   UNL     1       2.858   0.603  -0.768  0.00  0.00    -0.083 HD
ATOM     23  H   UNL     1       1.998   1.430  -1.946  0.00  0.00    -0.083 HD
ENDROOT
BRANCH   6  24
ATOM     24  C   UNL     1      -3.448   0.863   0.750  0.00  0.00    +0.044 A 
ATOM     25  C   UNL     1      -4.266  -0.186   0.354  0.00  0.00    +0.027 A 
ATOM     26  C   UNL     1      -5.612  -0.167   0.665  0.00  0.00    +0.040 A 
ATOM     27  C   UNL     1      -6.147   0.904   1.362  0.00  0.00    +0.124 A 
ATOM     28  C   UNL     1      -5.333   1.954   1.752  0.00  0.00    +0.040 A 
ATOM     29  C   UNL     1      -3.986   1.936   1.448  0.00  0.00    +0.027 A 
ATOM     30  F   UNL     1      -7.464   0.923   1.661  0.00  0.00    -0.205 F 
ENDBRANCH   6  24
BRANCH   1  31
ATOM     31  C   UNL     1       1.653   3.354  -0.416  0.00  0.00    +0.022 C 
BRANCH  31  38
ATOM     32  C   UNL     1       5.306   2.778  -3.295  0.00  0.00    +0.001 A 
ATOM     33  C   UNL     1       6.499   3.240  -2.755  0.00  0.00    +0.002 A 
ATOM     34  C   UNL     1       6.530   3.799  -1.496  0.00  0.00    +0.026 A 
ATOM     35  C   UNL     1       5.356   3.902  -0.757  0.00  0.00    +0.047 A 
ATOM     36  C   UNL     1       4.150   3.432  -1.309  0.00  0.00    +0.003 A 
ATOM     37  C   UNL     1       4.142   2.869  -2.587  0.00  0.00    +0.010 A 
ATOM     38  C   UNL     1       3.119   3.681  -0.299  0.00  0.00    -0.024 A 
ATOM     39  C   UNL     1       3.727   4.261   0.748  0.00  0.00    +0.087 A 
ATOM     40  N   UNL     1       5.064   4.396   0.495  0.00  0.00    -0.360 N 
ATOM     41  H   UNL     1       5.710   4.786   1.104  0.00  0.00    +0.165 HD
ENDBRANCH  31  38
ENDBRANCH   1  31
TORSDOF 3
