REMARK  Name = ZINC13401063
REMARK  7 active torsions:
REMARK  status: ('A' for Active; 'I' for Inactive)
REMARK    1  A    between atoms: C_1  and  C_2
REMARK    2  A    between atoms: C_6  and  O_27
REMARK    3  A    between atoms: C_14  and  O_23
REMARK    4  A    between atoms: C_14  and  O_25
REMARK    5  A    between atoms: C_17  and  C_22
REMARK    6  A    between atoms: O_23  and  C_24
REMARK    7  A    between atoms: O_25  and  C_26
REMARK                            x       y       z     vdW  Elec       q    Type
REMARK                         _______ _______ _______ _____ _____    ______ ____
ROOT
ATOM      1  C   UNL     1      -3.830   2.751   6.381  0.00  0.00    +0.014 C 
ATOM      2  C   UNL     1      -2.955   2.465   5.159  0.00  0.00    -0.003 C 
ATOM      3  C   UNL     1      -1.555   3.041   5.404  0.00  0.00    +0.009 C 
ATOM      4  C   UNL     1      -1.583   4.476   4.839  0.00  0.00    +0.003 C 
ATOM      5  C   UNL     1      -3.002   4.694   4.269  0.00  0.00    +0.035 C 
ATOM      6  C   UNL     1      -3.504   3.253   3.957  0.00  0.00    +0.075 C 
ATOM      7  C   UNL     1      -2.812   2.822   2.660  0.00  0.00    +0.025 C 
ATOM      8  C   UNL     1      -3.475   3.537   1.480  0.00  0.00    +0.007 C 
ATOM      9  C   UNL     1      -2.780   3.135   0.179  0.00  0.00    +0.004 C 
ATOM     10  C   UNL     1      -2.899   1.621  -0.012  0.00  0.00    +0.000 C 
ATOM     11  C   UNL     1      -2.211   1.217  -1.318  0.00  0.00    +0.069 C 
ATOM     12  C   UNL     1      -0.735   1.618  -1.261  0.00  0.00    +0.170 C 
ATOM     13  C   UNL     1      -0.059   0.908  -0.086  0.00  0.00    +0.065 C 
ATOM     14  C   UNL     1      -0.748   1.310   1.219  0.00  0.00    +0.012 C 
ATOM     15  C   UNL     1      -2.223   0.910   1.161  0.00  0.00    -0.026 C 
ATOM     16  C   UNL     1      -2.911   1.311   2.469  0.00  0.00    +0.001 C 
ATOM     17  C   UNL     1      -2.200   0.620   3.638  0.00  0.00    +0.005 C 
ATOM     18  C   UNL     1      -2.939   0.971   4.929  0.00  0.00    +0.010 C 
ATOM     19  C   UNL     1      -2.333  -0.605   0.972  0.00  0.00    +0.012 C 
ENDROOT
BRANCH  12  20
ATOM     20  O   UNL     1      -0.632   3.032  -1.085  0.00  0.00    -0.352 OA
ATOM     21  C   UNL     1      -1.118   3.793  -2.193  0.00  0.00    +0.197 C 
ENDBRANCH  12  20
BRANCH  12  22
ATOM     22  O   UNL     1      -0.092   1.241  -2.480  0.00  0.00    -0.352 OA
ATOM     23  C   UNL     1       1.296   1.579  -2.534  0.00  0.00    +0.197 C 
ENDBRANCH  12  22
BRANCH   6  24
ATOM     24  O   UNL     1      -4.928   3.184   3.854  0.00  0.00    -0.388 OA
ATOM     25  H   UNL     1      -5.394   3.451   4.659  0.00  0.00    +0.210 HD
ENDBRANCH   6  24
TORSDOF 3
