REMARK  Name = ZINC56074475
REMARK  7 active torsions:
REMARK  status: ('A' for Active; 'I' for Inactive)
REMARK    1  A    between atoms: C_1  and  O_2
REMARK    2  A    between atoms: O_2  and  C_3
REMARK    3  A    between atoms: N_5  and  C_6
REMARK    4  A    between atoms: C_9  and  C_12
REMARK    5  A    between atoms: C_12  and  N_13
REMARK    6  A    between atoms: N_13  and  S_14
REMARK    7  A    between atoms: S_14  and  C_17
REMARK                            x       y       z     vdW  Elec       q    Type
REMARK                         _______ _______ _______ _____ _____    ______ ____
ROOT
ATOM      1  N   UNL     1       4.925  -4.463  -5.025  0.00  0.00    -0.186 NA
ATOM      2  H   UNL     1       5.274  -4.025  -4.233  0.00  0.00    +0.148 HD
ENDROOT
BRANCH   1   3
ATOM      3  S   UNL     1       5.906  -5.449  -5.926  0.00  0.00    +0.059 S 
ATOM      4  O   UNL     1       7.184  -5.426  -5.305  0.00  0.00    -0.153 OA
ATOM      5  O   UNL     1       5.184  -6.654  -6.140  0.00  0.00    -0.153 OA
BRANCH   3   6
ATOM      6  C   UNL     1       6.098  -4.690  -7.504  0.00  0.00    +0.106 A 
ATOM      7  C   UNL     1       5.208  -4.979  -8.522  0.00  0.00    +0.030 A 
ATOM      8  C   UNL     1       5.356  -4.386  -9.761  0.00  0.00    +0.025 A 
ATOM      9  C   UNL     1       6.400  -3.498  -9.983  0.00  0.00    +0.037 A 
ATOM     10  C   UNL     1       7.292  -3.210  -8.959  0.00  0.00    -0.024 A 
ATOM     11  C   UNL     1       7.136  -3.802  -7.721  0.00  0.00    +0.034 A 
ATOM     12  C   UNL     1       8.424  -2.245  -9.200  0.00  0.00    +0.046 C 
ATOM     13  C   UNL     1       8.907  -2.375 -10.645  0.00  0.00    +0.101 C 
ATOM     14  C   UNL     1       7.731  -2.341 -11.583  0.00  0.00    +0.218 C 
ATOM     15  O   UNL     1       7.844  -1.808 -12.667  0.00  0.00    -0.275 OA
ATOM     16  N   UNL     1       6.555  -2.894 -11.234  0.00  0.00    -0.285 N 
ATOM     17  H   UNL     1       5.810  -2.874 -11.855  0.00  0.00    +0.155 HD
ENDBRANCH   3   6
ENDBRANCH   1   3
BRANCH   1  18
ATOM     18  C   UNL     1       3.531  -4.254  -5.425  0.00  0.00    +0.141 C 
BRANCH  18  22
ATOM     19  C   UNL     1       1.363  -2.516  -2.178  0.00  0.00    +0.036 A 
ATOM     20  C   UNL     1       1.996  -1.701  -3.107  0.00  0.00    +0.024 A 
ATOM     21  C   UNL     1       2.696  -2.266  -4.155  0.00  0.00    +0.007 A 
ATOM     22  C   UNL     1       2.767  -3.641  -4.280  0.00  0.00    -0.032 A 
ATOM     23  C   UNL     1       2.138  -4.455  -3.356  0.00  0.00    +0.007 A 
ATOM     24  C   UNL     1       1.441  -3.897  -2.302  0.00  0.00    +0.024 A 
BRANCH  19  27
ATOM     25  C   UNL     1       0.650  -2.547   0.092  0.00  0.00    +0.404 C 
ATOM     26  O   UNL     1       1.193  -3.625   0.236  0.00  0.00    -0.226 OA
ATOM     27  N   UNL     1       0.653  -1.946  -1.115  0.00  0.00    -0.251 N 
ATOM     28  H   UNL     1       0.163  -1.120  -1.246  0.00  0.00    +0.158 HD
BRANCH  25  30
ATOM     29  C   UNL     1       0.081  -2.646   2.387  0.00  0.00    +0.282 C 
ATOM     30  O   UNL     1       0.045  -1.953   1.138  0.00  0.00    -0.453 OA
ENDBRANCH  25  30
ENDBRANCH  19  27
ENDBRANCH  18  22
ENDBRANCH   1  18
TORSDOF 6
