REMARK  Name = ZINC58950277
REMARK  7 active torsions:
REMARK  status: ('A' for Active; 'I' for Inactive)
REMARK    1  A    between atoms: C_1  and  C_2
REMARK    2  A    between atoms: C_2  and  O_3
REMARK    3  A    between atoms: O_3  and  C_4
REMARK    4  A    between atoms: C_4  and  C_6
REMARK    5  A    between atoms: C_7  and  N_27
REMARK    6  A    between atoms: C_19  and  C_21
REMARK    7  A    between atoms: C_24  and  C_26
REMARK                            x       y       z     vdW  Elec       q    Type
REMARK                         _______ _______ _______ _____ _____    ______ ____
ROOT
ATOM      1  C   UNL     1       1.463  -2.349   2.421  0.00  0.00    +0.106 C 
ATOM      2  C   UNL     1       1.488  -3.694   2.607  0.00  0.00    +0.197 C 
ATOM      3  O   UNL     1       2.119  -4.248   3.655  0.00  0.00    -0.425 OA
ATOM      4  C   UNL     1       2.407  -3.505   4.741  0.00  0.00    +0.214 A 
ATOM      5  C   UNL     1       2.436  -2.147   4.678  0.00  0.00    +0.090 A 
ATOM      6  C   UNL     1       2.742  -1.412   5.839  0.00  0.00    +0.262 A 
ATOM      7  O   UNL     1       2.772  -0.194   5.804  0.00  0.00    -0.267 OA
ATOM      8  N   UNL     1       3.002  -2.063   6.990  0.00  0.00    -0.275 N 
ATOM      9  H   UNL     1       3.214  -1.561   7.792  0.00  0.00    +0.173 HD
ATOM     10  C   UNL     1       2.969  -3.408   7.032  0.00  0.00    +0.329 A 
ATOM     11  O   UNL     1       3.206  -3.980   8.079  0.00  0.00    -0.247 OA
ATOM     12  N   UNL     1       2.678  -4.129   5.935  0.00  0.00    -0.278 N 
ATOM     13  H   UNL     1       2.659  -5.097   5.987  0.00  0.00    +0.173 HD
ATOM     14  C   UNL     1       2.151  -1.425   3.388  0.00  0.00    +0.108 C 
ENDROOT
BRANCH  14  15
ATOM     15  C   UNL     1       3.444  -0.942   2.785  0.00  0.00    +0.003 A 
ATOM     16  C   UNL     1       3.839   0.326   2.512  0.00  0.00    +0.012 A 
ATOM     17  C   UNL     1       5.085   0.534   1.952  0.00  0.00    +0.011 A 
ATOM     18  C   UNL     1       5.876  -0.535   1.691  0.00  0.00    -0.013 A 
ATOM     19  S   UNL     1       4.859  -1.891   2.250  0.00  0.00    -0.097 S 
ATOM     20  C   UNL     1       7.258  -0.569   1.091  0.00  0.00    +0.051 C 
ENDBRANCH  14  15
BRANCH   2  21
ATOM     21  N   UNL     1       0.856  -4.505   1.703  0.00  0.00    -0.329 N 
ATOM     22  H   UNL     1       0.462  -4.124   0.902  0.00  0.00    +0.145 HD
ATOM     23  H   UNL     1       0.800  -5.460   1.864  0.00  0.00    +0.145 HD
ENDBRANCH   2  21
BRANCH   1  24
ATOM     24  C   UNL     1       0.793  -1.815   1.310  0.00  0.00    +0.341 C 
ATOM     25  O   UNL     1      -0.318  -1.333   1.443  0.00  0.00    -0.245 OA
BRANCH  24  26
ATOM     26  O   UNL     1       1.379  -1.836   0.094  0.00  0.00    -0.462 OA
BRANCH  26  28
ATOM     27  C   UNL     1       1.458  -1.389  -2.280  0.00  0.00    +0.048 C 
ATOM     28  C   UNL     1       0.639  -1.275  -0.993  0.00  0.00    +0.229 C 
ENDBRANCH  26  28
ENDBRANCH  24  26
ENDBRANCH   1  24
TORSDOF 5
