REMARK  Name = ZINC49012021
REMARK  5 active torsions:
REMARK  status: ('A' for Active; 'I' for Inactive)
REMARK    1  A    between atoms: C_1  and  C_2
REMARK    2  A    between atoms: C_7  and  N_10
REMARK    3  A    between atoms: N_10  and  C_11
REMARK    4  A    between atoms: C_15  and  C_18
REMARK    5  A    between atoms: N_19  and  O_20
REMARK                            x       y       z     vdW  Elec       q    Type
REMARK                         _______ _______ _______ _____ _____    ______ ____
ROOT
ATOM      1  N   UNL     1      -0.612  -2.548   1.244  0.00  0.00    -0.315 N 
ATOM      2  C   UNL     1      -1.640  -2.164   0.274  0.00  0.00    +0.131 C 
ATOM      3  C   UNL     1      -0.913  -3.450   2.253  0.00  0.00    +0.121 A 
ATOM      4  C   UNL     1      -0.009  -3.641   3.296  0.00  0.00    +0.044 A 
ATOM      5  C   UNL     1      -0.316  -4.540   4.297  0.00  0.00    +0.016 A 
ATOM      6  C   UNL     1      -1.533  -5.230   4.224  0.00  0.00    +0.036 A 
ATOM      7  C   UNL     1      -2.386  -4.985   3.149  0.00  0.00    +0.124 A 
ATOM      8  N   UNL     1      -2.058  -4.115   2.216  0.00  0.00    -0.240 NA
ENDROOT
BRANCH   1  14
ATOM      9  C   UNL     1       0.550  -0.851  -2.530  0.00  0.00    +0.007 C 
ATOM     10  C   UNL     1       0.482  -1.801  -1.332  0.00  0.00    -0.012 C 
ATOM     11  C   UNL     1       1.499  -2.929  -1.518  0.00  0.00    +0.003 C 
ATOM     12  C   UNL     1       1.431  -3.878  -0.320  0.00  0.00    +0.002 C 
ATOM     13  C   UNL     1       1.753  -3.107   0.962  0.00  0.00    +0.022 C 
ATOM     14  C   UNL     1       0.735  -1.979   1.147  0.00  0.00    +0.075 C 
ATOM     15  C   UNL     1       0.803  -1.030  -0.051  0.00  0.00    +0.025 C 
ENDBRANCH   1  14
BRANCH   6  16
ATOM     16  C   UNL     1      -1.908  -6.204   5.271  0.00  0.00    +0.164 C 
ATOM     17  N   UNL     1      -1.104  -6.426   6.271  0.00  0.00    -0.071 NA
ATOM     18  N   UNL     1      -3.113  -6.881   5.189  0.00  0.00    -0.340 N 
ATOM     19  H   UNL     1      -3.712  -6.715   4.444  0.00  0.00    +0.144 HD
ATOM     20  H   UNL     1      -3.359  -7.520   5.876  0.00  0.00    +0.144 HD
BRANCH  17  21
ATOM     21  O   UNL     1      -1.463  -7.359   7.274  0.00  0.00    -0.408 OA
ATOM     22  H   UNL     1      -0.804  -7.456   7.975  0.00  0.00    +0.328 HD
ENDBRANCH  17  21
ENDBRANCH   6  16
TORSDOF 3
