REMARK  Name = ZINC25224248
REMARK  6 active torsions:
REMARK  status: ('A' for Active; 'I' for Inactive)
REMARK    1  A    between atoms: C_1  and  C_2
REMARK    2  A    between atoms: C_2  and  C_20
REMARK    3  A    between atoms: N_5  and  C_9
REMARK    4  A    between atoms: C_9  and  C_10
REMARK    5  A    between atoms: C_10  and  C_12
REMARK    6  A    between atoms: C_10  and  O_19
REMARK                            x       y       z     vdW  Elec       q    Type
REMARK                         _______ _______ _______ _____ _____    ______ ____
ROOT
ATOM      1  C   UNL     1      -0.024   1.521  -0.112  0.00  0.00    +0.047 C 
ATOM      2  C   UNL     1       0.002  -0.004   0.002  0.00  0.00    +0.136 C 
ATOM      3  C   UNL     1       0.750  -0.614  -1.167  0.00  0.00    +0.251 C 
ATOM      4  O   UNL     1       0.464  -0.532  -2.342  0.00  0.00    -0.272 OA
ATOM      5  N   UNL     1       1.799  -1.266  -0.628  0.00  0.00    -0.221 N 
ATOM      6  C   UNL     1       1.818  -1.154   0.705  0.00  0.00    +0.310 C 
ATOM      7  O   UNL     1       2.668  -1.657   1.413  0.00  0.00    -0.252 OA
ATOM      8  N   UNL     1       0.791  -0.422   1.174  0.00  0.00    -0.281 N 
ATOM      9  H   UNL     1       0.606  -0.211   2.102  0.00  0.00    +0.152 HD
ENDROOT
BRANCH   2  10
ATOM     10  C   UNL     1      -1.399  -0.552   0.083  0.00  0.00    -0.008 A 
ATOM     11  C   UNL     1      -1.792  -1.269   1.172  0.00  0.00    +0.007 A 
ATOM     12  C   UNL     1      -3.083  -1.784   1.264  0.00  0.00    +0.001 A 
ATOM     13  C   UNL     1      -3.990  -1.585   0.269  0.00  0.00    +0.008 A 
ATOM     14  C   UNL     1      -3.622  -0.850  -0.870  0.00  0.00    -0.018 A 
ATOM     15  C   UNL     1      -2.310  -0.321  -0.962  0.00  0.00    -0.012 A 
ATOM     16  C   UNL     1      -1.943   0.420  -2.099  0.00  0.00    +0.009 A 
ATOM     17  C   UNL     1      -2.852   0.624  -3.091  0.00  0.00    +0.001 A 
ATOM     18  C   UNL     1      -4.144   0.109  -2.998  0.00  0.00    +0.001 A 
ATOM     19  C   UNL     1      -4.530  -0.624  -1.919  0.00  0.00    +0.008 A 
ENDBRANCH   2  10
BRANCH   5  20
ATOM     20  C   UNL     1       2.796  -2.006  -1.406  0.00  0.00    +0.154 C 
BRANCH  20  21
ATOM     21  C   UNL     1       3.943  -1.069  -1.790  0.00  0.00    +0.162 C 
BRANCH  21  22
ATOM     22  C   UNL     1       4.906  -1.797  -2.692  0.00  0.00    -0.017 A 
ATOM     23  C   UNL     1       5.835  -2.666  -2.152  0.00  0.00    +0.009 A 
ATOM     24  C   UNL     1       6.718  -3.335  -2.978  0.00  0.00    +0.039 A 
ATOM     25  C   UNL     1       6.673  -3.133  -4.347  0.00  0.00    +0.123 A 
ATOM     26  C   UNL     1       5.741  -2.262  -4.887  0.00  0.00    +0.039 A 
ATOM     27  C   UNL     1       4.856  -1.599  -4.059  0.00  0.00    +0.009 A 
ATOM     28  F   UNL     1       7.536  -3.785  -5.156  0.00  0.00    -0.205 F 
ENDBRANCH  21  22
BRANCH  21  29
ATOM     29  O   UNL     1       4.625  -0.644  -0.608  0.00  0.00    -0.386 OA
ATOM     30  H   UNL     1       5.008  -1.367  -0.093  0.00  0.00    +0.210 HD
ENDBRANCH  21  29
ENDBRANCH  20  21
ENDBRANCH   5  20
TORSDOF 5
