REMARK  Name = ZINC33741796
REMARK  12 active torsions:
REMARK  status: ('A' for Active; 'I' for Inactive)
REMARK    1  A    between atoms: C_1  and  C_2
REMARK    2  A    between atoms: C_2  and  C_4
REMARK    3  A    between atoms: C_2  and  N_17
REMARK    4  A    between atoms: N_14  and  C_15
REMARK    5  A    between atoms: N_17  and  C_18
REMARK    6  A    between atoms: C_18  and  C_19
REMARK    7  A    between atoms: C_19  and  C_20
REMARK    8  A    between atoms: C_20  and  C_21
REMARK    9  A    between atoms: C_21  and  C_22
REMARK   10  A    between atoms: C_22  and  C_23
REMARK   11  A    between atoms: C_23  and  N_24
REMARK   12  A    between atoms: C_25  and  C_27
REMARK                            x       y       z     vdW  Elec       q    Type
REMARK                         _______ _______ _______ _____ _____    ______ ____
ROOT
ATOM      1  N   UNL     1      -4.449  -0.476   0.256  0.00  0.00    -0.288 N 
ATOM      2  C   UNL     1      -3.941  -0.910   1.427  0.00  0.00    +0.248 C 
ATOM      3  O   UNL     1      -3.796  -0.134   2.352  0.00  0.00    -0.270 OA
ENDROOT
BRANCH   2   4
ATOM      4  C   UNL     1      -3.560  -2.325   1.586  0.00  0.00    +0.045 A 
ATOM      5  C   UNL     1      -4.497  -3.330   1.391  0.00  0.00    +0.014 A 
ATOM      6  C   UNL     1      -4.144  -4.665   1.534  0.00  0.00    +0.001 A 
ATOM      7  C   UNL     1      -2.876  -5.027   1.879  0.00  0.00    +0.008 A 
ATOM      8  C   UNL     1      -1.895  -4.043   2.093  0.00  0.00    -0.017 A 
ATOM      9  C   UNL     1      -2.235  -2.676   1.946  0.00  0.00    -0.006 A 
ATOM     10  C   UNL     1      -1.256  -1.695   2.160  0.00  0.00    +0.009 A 
ATOM     11  C   UNL     1       0.008  -2.068   2.506  0.00  0.00    +0.001 A 
ATOM     12  C   UNL     1       0.344  -3.412   2.650  0.00  0.00    +0.001 A 
ATOM     13  C   UNL     1      -0.581  -4.390   2.450  0.00  0.00    +0.008 A 
ENDBRANCH   2   4
BRANCH   1  15
ATOM     14  C   UNL     1      -5.663   1.438   1.175  0.00  0.00    +0.036 C 
ATOM     15  C   UNL     1      -4.732   0.948   0.064  0.00  0.00    +0.139 C 
BRANCH  15  16
ATOM     16  C   UNL     1      -3.443   1.728   0.109  0.00  0.00    +0.133 A 
ATOM     17  N   UNL     1      -2.784   1.764   1.227  0.00  0.00    -0.232 NA
ATOM     18  C   UNL     1      -1.613   2.440   1.341  0.00  0.00    +0.080 A 
ATOM     19  C   UNL     1      -0.907   2.487   2.544  0.00  0.00    +0.048 A 
ATOM     20  C   UNL     1       0.274   3.194   2.611  0.00  0.00    +0.043 A 
ATOM     21  C   UNL     1       0.766   3.865   1.497  0.00  0.00    +0.021 A 
ATOM     22  C   UNL     1       0.089   3.837   0.310  0.00  0.00    +0.017 A 
ATOM     23  C   UNL     1      -1.108   3.130   0.216  0.00  0.00    +0.065 A 
ATOM     24  C   UNL     1      -1.879   3.068  -1.034  0.00  0.00    +0.262 A 
ATOM     25  O   UNL     1      -1.497   3.636  -2.041  0.00  0.00    -0.267 OA
ATOM     26  N   UNL     1      -3.029   2.356  -1.023  0.00  0.00    -0.298 N 
ATOM     27  C   UNL     1      -3.836   2.260  -2.242  0.00  0.00    +0.154 C 
ATOM     28 CL   UNL     1       1.158   3.247   4.104  0.00  0.00    -0.083 Cl
ENDBRANCH  15  16
ENDBRANCH   1  15
BRANCH   1  29
ATOM     29  C   UNL     1      -4.718  -1.429  -0.823  0.00  0.00    +0.109 C 
BRANCH  29  30
ATOM     30  C   UNL     1      -3.475  -1.564  -1.706  0.00  0.00    +0.019 C 
BRANCH  30  31
ATOM     31  C   UNL     1      -3.756  -2.559  -2.834  0.00  0.00    +0.001 C 
BRANCH  31  32
ATOM     32  C   UNL     1      -2.514  -2.694  -3.716  0.00  0.00    -0.002 C 
BRANCH  32  33
ATOM     33  C   UNL     1      -2.795  -3.689  -4.844  0.00  0.00    -0.020 C 
BRANCH  33  34
ATOM     34  C   UNL     1      -1.553  -3.824  -5.727  0.00  0.00    -0.086 C 
BRANCH  34  35
ATOM     35  N   UNL     1      -1.823  -4.779  -6.809  0.00  0.00    +0.378 N 
ATOM     36  H   UNL     1      -0.929  -4.876  -7.444  0.00  0.00    -0.090 HD
ATOM     37  H   UNL     1      -2.666  -4.417  -7.416  0.00  0.00    -0.090 HD
ATOM     38  H   UNL     1      -2.074  -5.760  -6.379  0.00  0.00    -0.090 HD
ENDBRANCH  34  35
ENDBRANCH  33  34
ENDBRANCH  32  33
ENDBRANCH  31  32
ENDBRANCH  30  31
ENDBRANCH  29  30
ENDBRANCH   1  29
TORSDOF 10
