REMARK  Name = ZINC10019752
REMARK  11 active torsions:
REMARK  status: ('A' for Active; 'I' for Inactive)
REMARK    1  A    between atoms: C_1  and  C_2
REMARK    2  A    between atoms: C_5  and  C_8
REMARK    3  A    between atoms: C_8  and  C_10
REMARK    4  A    between atoms: C_8  and  N_54
REMARK    5  A    between atoms: C_10  and  N_11
REMARK    6  A    between atoms: C_12  and  C_14
REMARK    7  A    between atoms: N_16  and  C_17
REMARK    8  A    between atoms: C_20  and  N_23
REMARK    9  A    between atoms: C_24  and  C_26
REMARK   10  A    between atoms: C_27  and  N_54
REMARK   11  A    between atoms: C_28  and  N_54
REMARK                            x       y       z     vdW  Elec       q    Type
REMARK                         _______ _______ _______ _____ _____    ______ ____
ROOT
ATOM      1  N   UNL     1       1.008  10.533  -1.027  0.00  0.00    -0.309 N 
ATOM      2  C   UNL     1      -0.139   9.856  -0.827  0.00  0.00    +0.299 C 
ATOM      3  O   UNL     1      -1.198  10.449  -0.801  0.00  0.00    -0.265 OA
ATOM      4  H   UNL     1       1.854  10.059  -1.047  0.00  0.00    +0.149 HD
ENDROOT
BRANCH   2   5
ATOM      5  C   UNL     1      -0.109   8.375  -0.635  0.00  0.00    +0.303 C 
ATOM      6  O   UNL     1       0.950   7.782  -0.661  0.00  0.00    -0.265 OA
ATOM      7  N   UNL     1      -1.256   7.698  -0.435  0.00  0.00    -0.278 N 
ATOM      8  H   UNL     1      -2.095   8.178  -0.348  0.00  0.00    +0.155 HD
BRANCH   7   9
ATOM      9  C   UNL     1      -1.239   6.302  -0.352  0.00  0.00    +0.034 A 
ATOM     10  C   UNL     1      -0.161   5.654   0.239  0.00  0.00    +0.025 A 
ATOM     11  C   UNL     1      -0.144   4.277   0.322  0.00  0.00    +0.025 A 
ATOM     12  C   UNL     1      -1.205   3.538  -0.185  0.00  0.00    +0.033 A 
ATOM     13  C   UNL     1      -2.280   4.184  -0.781  0.00  0.00    +0.025 A 
ATOM     14  C   UNL     1      -2.300   5.562  -0.859  0.00  0.00    +0.025 A 
BRANCH  12  15
ATOM     15  N   UNL     1      -1.188   2.140  -0.101  0.00  0.00    -0.286 N 
ATOM     16  C   UNL     1      -2.347   1.452  -0.082  0.00  0.00    +0.214 C 
ATOM     17  O   UNL     1      -3.403   2.045  -0.026  0.00  0.00    -0.276 OA
ATOM     18  C   UNL     1      -2.329  -0.054  -0.123  0.00  0.00    +0.109 C 
ATOM     19  H   UNL     1      -0.342   1.667  -0.056  0.00  0.00    +0.155 HD
ENDBRANCH  12  15
ENDBRANCH   7   9
ENDBRANCH   2   5
BRANCH   1  20
ATOM     20  C   UNL     1       0.978  11.986  -1.215  0.00  0.00    +0.094 C 
BRANCH  20  21
ATOM     21  C   UNL     1       2.386  12.487  -1.544  0.00  0.00    -0.021 C 
BRANCH  21  26
ATOM     22  C   UNL     1       5.943  11.255   2.840  0.00  0.00    +0.044 C 
ATOM     23  C   UNL     1       5.016  11.576   1.697  0.00  0.00    -0.050 A 
ATOM     24  C   UNL     1       5.001  10.773   0.572  0.00  0.00    +0.003 A 
ATOM     25  C   UNL     1       4.150  11.068  -0.477  0.00  0.00    +0.002 A 
ATOM     26  C   UNL     1       3.313  12.166  -0.400  0.00  0.00    -0.059 A 
ATOM     27  C   UNL     1       3.332  12.972   0.722  0.00  0.00    +0.002 A 
ATOM     28  C   UNL     1       4.179  12.674   1.773  0.00  0.00    +0.003 A 
ENDBRANCH  21  26
BRANCH  21  31
ATOM     29  C   UNL     1       3.664  14.441  -2.184  0.00  0.00    -0.096 C 
ATOM     30  C   UNL     1       1.305  14.310  -2.715  0.00  0.00    -0.096 C 
ATOM     31  N   UNL     1       2.345  13.953  -1.728  0.00  0.00    +0.382 N 
ATOM     32  H   UNL     1       2.119  14.396  -0.830  0.00  0.00    -0.082 HD
ENDBRANCH  21  31
ENDBRANCH  20  21
ENDBRANCH   1  20
TORSDOF 7
