REMARK  Name = ZINC13671347
REMARK  7 active torsions:
REMARK  status: ('A' for Active; 'I' for Inactive)
REMARK    1  A    between atoms: C_1  and  C_2
REMARK    2  A    between atoms: C_7  and  N_8
REMARK    3  A    between atoms: N_8  and  C_9
REMARK    4  A    between atoms: N_8  and  S_23
REMARK    5  A    between atoms: C_9  and  C_10
REMARK    6  A    between atoms: C_20  and  C_22
REMARK    7  A    between atoms: S_23  and  C_26
REMARK                            x       y       z     vdW  Elec       q    Type
REMARK                         _______ _______ _______ _____ _____    ______ ____
ROOT
ATOM      1  N   UNL     1      -0.920   1.782  -1.339  0.00  0.00    -0.194 N 
ENDROOT
BRANCH   1   8
ATOM      2  C   UNL     1      -3.650   1.942  -0.554  0.00  0.00    +0.046 C 
ATOM      3  C   UNL     1      -3.181   0.986  -1.621  0.00  0.00    -0.028 A 
ATOM      4  C   UNL     1      -4.087   0.157  -2.252  0.00  0.00    +0.005 A 
ATOM      5  C   UNL     1      -3.657  -0.725  -3.227  0.00  0.00    +0.000 A 
ATOM      6  C   UNL     1      -2.320  -0.775  -3.577  0.00  0.00    +0.002 A 
ATOM      7  C   UNL     1      -1.410   0.055  -2.953  0.00  0.00    +0.025 A 
ATOM      8  C   UNL     1      -1.838   0.942  -1.973  0.00  0.00    +0.055 A 
ENDBRANCH   1   8
BRANCH   1   9
ATOM      9  S   UNL     1      -0.199   1.306   0.073  0.00  0.00    +0.075 S 
ATOM     10  O   UNL     1      -0.403  -0.097   0.180  0.00  0.00    -0.150 OA
ATOM     11  O   UNL     1       1.095   1.891   0.086  0.00  0.00    -0.150 OA
BRANCH   9  12
ATOM     12  C   UNL     1      -1.100   2.047   1.394  0.00  0.00    +0.109 A 
ATOM     13  C   UNL     1      -0.825   3.348   1.773  0.00  0.00    +0.029 A 
ATOM     14  C   UNL     1      -1.534   3.931   2.807  0.00  0.00    +0.002 A 
ATOM     15  C   UNL     1      -2.513   3.210   3.466  0.00  0.00    +0.000 A 
ATOM     16  C   UNL     1      -2.784   1.908   3.090  0.00  0.00    +0.002 A 
ATOM     17  C   UNL     1      -2.077   1.326   2.054  0.00  0.00    +0.029 A 
ENDBRANCH   9  12
ENDBRANCH   1   9
BRANCH   1  18
ATOM     18  C   UNL     1      -0.595   3.086  -1.925  0.00  0.00    +0.227 C 
BRANCH  18  19
ATOM     19  C   UNL     1       0.490   2.916  -2.956  0.00  0.00    +0.239 C 
ATOM     20  O   UNL     1       0.948   1.816  -3.180  0.00  0.00    -0.273 OA
ATOM     21  N   UNL     1       0.953   3.988  -3.629  0.00  0.00    -0.267 N 
ATOM     22  C   UNL     1       0.498   5.300  -3.459  0.00  0.00    +0.040 A 
ATOM     23  C   UNL     1      -0.479   5.792  -2.591  0.00  0.00    +0.024 A 
ATOM     24  C   UNL     1      -0.778   7.137  -2.572  0.00  0.00    +0.002 A 
ATOM     25  C   UNL     1      -0.107   8.011  -3.409  0.00  0.00    +0.000 A 
ATOM     26  C   UNL     1       0.865   7.532  -4.266  0.00  0.00    +0.005 A 
ATOM     27  C   UNL     1       1.168   6.184  -4.288  0.00  0.00    -0.024 A 
ATOM     28  C   UNL     1       2.170   5.407  -5.113  0.00  0.00    +0.059 C 
ATOM     29  C   UNL     1       2.002   3.950  -4.651  0.00  0.00    +0.083 C 
ATOM     30  C   UNL     1       3.310   3.430  -4.050  0.00  0.00    +0.029 C 
ENDBRANCH  18  19
ENDBRANCH   1  18
TORSDOF 5
