REMARK  Name = ZINC20064516
REMARK  3 active torsions:
REMARK  status: ('A' for Active; 'I' for Inactive)
REMARK    1  A    between atoms: C_1  and  N_2
REMARK    2  A    between atoms: C_13  and  C_16
REMARK    3  A    between atoms: C_19  and  C_21
REMARK                            x       y       z     vdW  Elec       q    Type
REMARK                         _______ _______ _______ _____ _____    ______ ____
ROOT
ATOM      1  C   UNL     1       6.641   0.433   0.853  0.00  0.00    -0.096 C 
ATOM      2  N   UNL     1       5.222   0.814   0.838  0.00  0.00    +0.381 N 
ATOM      3  C   UNL     1       4.420  -0.171   0.098  0.00  0.00    -0.074 C 
ATOM      4  C   UNL     1       2.933   0.026   0.403  0.00  0.00    +0.018 C 
ATOM      5  C   UNL     1       2.588   1.493   0.175  0.00  0.00    -0.027 A 
ATOM      6  C   UNL     1       3.575   2.418   0.122  0.00  0.00    -0.021 A 
ATOM      7  S   UNL     1       2.744   3.958  -0.157  0.00  0.00    -0.080 S 
ATOM      8  C   UNL     1       1.130   3.387  -0.197  0.00  0.00    +0.080 A 
ATOM      9  C   UNL     1       1.240   2.001   0.001  0.00  0.00    +0.068 A 
ATOM     10  C   UNL     1      -0.014   1.213   0.009  0.00  0.00    +0.248 C 
ATOM     11  O   UNL     1       0.002  -0.004   0.002  0.00  0.00    -0.270 OA
ATOM     12  N   UNL     1      -1.176   1.900   0.018  0.00  0.00    -0.287 N 
ATOM     13  C   UNL     1      -1.259   3.347   0.192  0.00  0.00    +0.227 C 
ATOM     14  N   UNL     1      -0.073   4.021  -0.368  0.00  0.00    -0.314 N 
ATOM     15  C   UNL     1       5.042   2.164   0.271  0.00  0.00    -0.036 C 
ATOM     16  H   UNL     1      -2.094   1.309  -0.116  0.00  0.00    +0.151 HD
ATOM     17  H   UNL     1      -0.183   4.982  -0.891  0.00  0.00    +0.149 HD
ATOM     18  H   UNL     1       4.869   0.826   1.880  0.00  0.00    -0.082 HD
ENDROOT
BRANCH  13  19
ATOM     19  C   UNL     1      -1.359   3.665   1.662  0.00  0.00    +0.144 A 
ATOM     20  C   UNL     1      -1.892   2.864   2.604  0.00  0.00    +0.049 A 
ATOM     21  C   UNL     1      -1.783   3.544   3.834  0.00  0.00    +0.050 A 
ATOM     22  C   UNL     1      -1.184   4.736   3.571  0.00  0.00    +0.137 A 
ATOM     23  O   UNL     1      -0.927   4.793   2.250  0.00  0.00    -0.456 OA
BRANCH  22  24
ATOM     24  C   UNL     1      -0.864   5.784   4.562  0.00  0.00    +0.037 A 
ATOM     25  C   UNL     1      -1.843   6.229   5.452  0.00  0.00    +0.013 A 
ATOM     26  C   UNL     1      -1.538   7.205   6.378  0.00  0.00    +0.002 A 
ATOM     27  C   UNL     1      -0.267   7.749   6.422  0.00  0.00    +0.021 A 
ATOM     28  C   UNL     1       0.709   7.316   5.540  0.00  0.00    +0.060 A 
ATOM     29  C   UNL     1       0.417   6.336   4.610  0.00  0.00    +0.070 A 
ATOM     30 CL   UNL     1       1.641   5.794   3.505  0.00  0.00    -0.081 Cl
ATOM     31 CL   UNL     1       2.301   8.005   5.603  0.00  0.00    -0.082 Cl
ENDBRANCH  22  24
ENDBRANCH  13  19
TORSDOF 2
