REMARK  Name = ZINC09299606
REMARK  13 active torsions:
REMARK  status: ('A' for Active; 'I' for Inactive)
REMARK    1  A    between atoms: C_1  and  C_2
REMARK    2  A    between atoms: C_2  and  C_3
REMARK    3  A    between atoms: C_3  and  N_4
REMARK    4  A    between atoms: C_8  and  S_30
REMARK    5  A    between atoms: N_13  and  C_14
REMARK    6  A    between atoms: C_14  and  C_16
REMARK    7  A    between atoms: C_19  and  S_22
REMARK    8  A    between atoms: S_22  and  N_25
REMARK    9  A    between atoms: N_25  and  C_26
REMARK   10  A    between atoms: N_25  and  C_28
REMARK   11  A    between atoms: C_26  and  C_27
REMARK   12  A    between atoms: C_28  and  C_29
REMARK   13  A    between atoms: S_30  and  N_33
REMARK                            x       y       z     vdW  Elec       q    Type
REMARK                         _______ _______ _______ _____ _____    ______ ____
ROOT
ATOM      1  N   UNL     1      -0.675   1.545   3.712  0.00  0.00    -0.321 N 
ATOM      2  C   UNL     1      -0.316   2.752   4.282  0.00  0.00    +0.058 A 
ATOM      3  C   UNL     1       0.662   3.662   3.850  0.00  0.00    +0.029 A 
ATOM      4  C   UNL     1       0.887   4.831   4.539  0.00  0.00    +0.030 A 
ATOM      5  C   UNL     1       0.157   5.149   5.672  0.00  0.00    +0.106 A 
ATOM      6  C   UNL     1      -0.817   4.272   6.116  0.00  0.00    +0.045 A 
ATOM      7  C   UNL     1      -1.043   3.103   5.428  0.00  0.00    +0.041 A 
ATOM      8  S   UNL     1      -2.156   1.737   5.639  0.00  0.00    -0.052 S 
ATOM      9  C   UNL     1      -1.659   0.792   4.272  0.00  0.00    +0.167 A 
ATOM     10  N   UNL     1      -2.128  -0.384   3.869  0.00  0.00    -0.152 NA
ENDROOT
BRANCH   5  11
ATOM     11  S   UNL     1       0.464   6.652   6.537  0.00  0.00    +0.056 S 
ATOM     12  O   UNL     1       1.050   7.547   5.601  0.00  0.00    -0.153 OA
ATOM     13  O   UNL     1      -0.728   6.964   7.245  0.00  0.00    -0.153 OA
BRANCH  11  14
ATOM     14  N   UNL     1       1.623   6.334   7.677  0.00  0.00    -0.204 NA
ATOM     15  H   UNL     1       2.237   7.032   7.952  0.00  0.00    +0.144 HD
ATOM     16  H   UNL     1       1.687   5.449   8.069  0.00  0.00    +0.144 HD
ENDBRANCH  11  14
ENDBRANCH   5  11
BRANCH  10  17
ATOM     17  C   UNL     1      -3.110  -0.982   4.551  0.00  0.00    +0.269 C 
ATOM     18  O   UNL     1      -3.574  -0.448   5.544  0.00  0.00    -0.268 OA
BRANCH  17  19
ATOM     19  C   UNL     1      -3.633  -2.293   4.102  0.00  0.00    +0.039 A 
ATOM     20  C   UNL     1      -3.107  -2.903   2.963  0.00  0.00    +0.015 A 
ATOM     21  C   UNL     1      -3.595  -4.126   2.552  0.00  0.00    +0.029 A 
ATOM     22  C   UNL     1      -4.611  -4.743   3.261  0.00  0.00    +0.106 A 
ATOM     23  C   UNL     1      -5.140  -4.140   4.388  0.00  0.00    +0.029 A 
ATOM     24  C   UNL     1      -4.657  -2.919   4.812  0.00  0.00    +0.015 A 
BRANCH  22  25
ATOM     25  S   UNL     1      -5.233  -6.302   2.726  0.00  0.00    +0.061 S 
ATOM     26  O   UNL     1      -4.201  -6.911   1.962  0.00  0.00    -0.153 OA
ATOM     27  O   UNL     1      -5.804  -6.925   3.868  0.00  0.00    -0.153 OA
BRANCH  25  28
ATOM     28  N   UNL     1      -6.480  -5.998   1.679  0.00  0.00    -0.177 NA
BRANCH  28  29
ATOM     29  C   UNL     1      -6.215  -5.856   0.245  0.00  0.00    +0.106 C 
ATOM     30  C   UNL     1      -6.441  -7.200  -0.451  0.00  0.00    +0.022 C 
ENDBRANCH  28  29
BRANCH  28  31
ATOM     31  C   UNL     1      -7.848  -5.871   2.187  0.00  0.00    +0.106 C 
ATOM     32  C   UNL     1      -8.170  -4.394   2.422  0.00  0.00    +0.022 C 
ENDBRANCH  28  31
ENDBRANCH  25  28
ENDBRANCH  22  25
ENDBRANCH  17  19
ENDBRANCH  10  17
BRANCH   1  33
ATOM     33  C   UNL     1       0.011   1.072   2.506  0.00  0.00    +0.124 C 
BRANCH  33  35
ATOM     34  C   UNL     1      -0.013   1.086   0.008  0.00  0.00    +0.005 C 
ATOM     35  C   UNL     1      -0.729   1.579   1.267  0.00  0.00    +0.018 C 
ENDBRANCH  33  35
ENDBRANCH   1  33
TORSDOF 10
