REMARK  Name = ZINC09883823
REMARK  8 active torsions:
REMARK  status: ('A' for Active; 'I' for Inactive)
REMARK    1  A    between atoms: C_6  and  S_7
REMARK    2  A    between atoms: S_7  and  C_8
REMARK    3  A    between atoms: C_8  and  C_9
REMARK    4  A    between atoms: C_9  and  N_10
REMARK    5  A    between atoms: N_10  and  C_11
REMARK    6  A    between atoms: C_14  and  S_20
REMARK    7  A    between atoms: C_16  and  N_17
REMARK    8  A    between atoms: S_20  and  N_23
REMARK                            x       y       z     vdW  Elec       q    Type
REMARK                         _______ _______ _______ _____ _____    ______ ____
ROOT
ATOM      1  C   UNL     1       3.681   5.482  -0.260  0.00  0.00    +0.058 A 
ATOM      2  C   UNL     1       2.706   6.468  -0.349  0.00  0.00    +0.027 A 
ATOM      3  C   UNL     1       3.032   7.784  -0.090  0.00  0.00    +0.030 A 
ATOM      4  C   UNL     1       4.327   8.122   0.259  0.00  0.00    +0.107 A 
ATOM      5  C   UNL     1       5.300   7.143   0.349  0.00  0.00    +0.063 A 
ATOM      6  C   UNL     1       4.979   5.824   0.096  0.00  0.00    +0.149 A 
ENDROOT
BRANCH   6   7
ATOM      7  N   UNL     1       6.019   4.776   0.199  0.00  0.00    +0.058 N 
ATOM      8  O   UNL     1       5.738   3.680   0.649  0.00  0.00    -0.126 OA
ATOM      9  O   UNL     1       7.157   5.010  -0.167  0.00  0.00    -0.126 OA
ENDBRANCH   6   7
BRANCH   4  10
ATOM     10  S   UNL     1       4.738   9.803   0.589  0.00  0.00    +0.056 S 
ATOM     11  O   UNL     1       6.135   9.931   0.362  0.00  0.00    -0.153 OA
ATOM     12  O   UNL     1       3.779  10.598  -0.095  0.00  0.00    -0.153 OA
BRANCH  10  13
ATOM     13  N   UNL     1       4.497  10.058   2.208  0.00  0.00    -0.204 NA
ATOM     14  H   UNL     1       4.183   9.333   2.771  0.00  0.00    +0.144 HD
ATOM     15  H   UNL     1       4.670  10.931   2.592  0.00  0.00    +0.144 HD
ENDBRANCH  10  13
ENDBRANCH   4  10
BRANCH   1  16
ATOM     16  N   UNL     1       3.355   4.149  -0.522  0.00  0.00    -0.341 N 
ATOM     17  H   UNL     1       4.051   3.474  -0.543  0.00  0.00    +0.146 HD
BRANCH  16  18
ATOM     18  C   UNL     1       1.961   3.770  -0.765  0.00  0.00    +0.112 C 
BRANCH  18  19
ATOM     19  C   UNL     1       1.879   2.265  -1.024  0.00  0.00    +0.093 C 
BRANCH  19  20
ATOM     20  S   UNL     1       0.153   1.796  -1.325  0.00  0.00    -0.124 S 
BRANCH  20  26
ATOM     21  C   UNL     1       1.447  -0.604  -1.559  0.00  0.00    +0.016 A 
ATOM     22  C   UNL     1       1.500  -1.968  -1.772  0.00  0.00    +0.016 A 
ATOM     23  C   UNL     1       0.340  -2.673  -2.039  0.00  0.00    +0.018 A 
ATOM     24  C   UNL     1      -0.877  -2.017  -2.088  0.00  0.00    +0.016 A 
ATOM     25  C   UNL     1      -0.938  -0.654  -1.871  0.00  0.00    +0.016 A 
ATOM     26  C   UNL     1       0.226   0.057  -1.603  0.00  0.00    +0.008 A 
ATOM     27 BR   UNL     1       0.418  -4.539  -2.337  0.00  0.00    -0.050 Br
ENDBRANCH  20  26
ENDBRANCH  19  20
ENDBRANCH  18  19
ENDBRANCH  16  18
ENDBRANCH   1  16
TORSDOF 8
