REMARK  Name = ZINC63831403
REMARK  8 active torsions:
REMARK  status: ('A' for Active; 'I' for Inactive)
REMARK    1  A    between atoms: C_1  and  C_2
REMARK    2  A    between atoms: C_4  and  N_17
REMARK    3  A    between atoms: N_8  and  C_11
REMARK    4  A    between atoms: N_9  and  C_10
REMARK    5  A    between atoms: C_18  and  C_20
REMARK    6  A    between atoms: C_20  and  N_21
REMARK    7  A    between atoms: C_24  and  C_29
REMARK    8  A    between atoms: C_29  and  C_30
REMARK                            x       y       z     vdW  Elec       q    Type
REMARK                         _______ _______ _______ _____ _____    ______ ____
ROOT
ATOM      1  C   UNL     1       0.224  -3.029  -3.917  0.00  0.00    +0.213 C 
ENDROOT
BRANCH   1   2
ATOM      2  N   UNL     1       0.570  -2.930  -5.337  0.00  0.00    -0.216 N 
ATOM      3  C   UNL     1      -0.253  -2.438  -6.284  0.00  0.00    +0.244 C 
ATOM      4  O   UNL     1      -1.377  -2.011  -6.128  0.00  0.00    -0.273 OA
ATOM      5  C   UNL     1       0.519  -2.529  -7.585  0.00  0.00    +0.165 C 
ATOM      6  N   UNL     1       1.808  -3.116  -7.183  0.00  0.00    -0.287 N 
ATOM      7  C   UNL     1       1.744  -3.310  -5.853  0.00  0.00    +0.310 C 
ATOM      8  O   UNL     1       2.651  -3.780  -5.194  0.00  0.00    -0.252 OA
ATOM      9  H   UNL     1       2.558  -3.321  -7.763  0.00  0.00    +0.151 HD
BRANCH   5  10
ATOM     10  C   UNL     1      -0.205  -3.441  -8.578  0.00  0.00    +0.065 C 
BRANCH  10  11
ATOM     11  C   UNL     1       0.517  -3.416  -9.901  0.00  0.00    -0.039 C 
ATOM     12  C   UNL     1       1.448  -4.295 -10.335  0.00  0.00    -0.001 A 
ATOM     13  C   UNL     1       2.047  -5.491  -9.729  0.00  0.00    +0.010 A 
ATOM     14  C   UNL     1       2.978  -6.182 -10.424  0.00  0.00    +0.001 A 
ATOM     15  C   UNL     1       3.386  -5.787 -11.706  0.00  0.00    +0.002 A 
ATOM     16  C   UNL     1       2.882  -4.700 -12.328  0.00  0.00    +0.026 A 
ATOM     17  C   UNL     1       1.896  -3.899 -11.690  0.00  0.00    +0.043 A 
ATOM     18  N   UNL     1       1.265  -2.817 -12.077  0.00  0.00    -0.380 N 
ATOM     19  C   UNL     1       0.341  -2.408 -11.014  0.00  0.00    +0.144 C 
ATOM     20  H   UNL     1       1.387  -2.365 -12.927  0.00  0.00    +0.160 HD
ENDBRANCH  10  11
ENDBRANCH   5  10
ENDBRANCH   1   2
BRANCH   1  22
ATOM     21  N   UNL     1       0.401  -1.623  -1.890  0.00  0.00    -0.301 N 
ATOM     22  C   UNL     1       0.624  -1.759  -3.212  0.00  0.00    +0.232 C 
ATOM     23  O   UNL     1       1.147  -0.859  -3.834  0.00  0.00    -0.274 OA
ATOM     24  H   UNL     1      -0.018  -2.343  -1.392  0.00  0.00    +0.150 HD
BRANCH  21  27
ATOM     25  C   UNL     1      -0.288   1.320   0.329  0.00  0.00    +0.028 C 
ATOM     26  C   UNL     1      -0.066  -0.171   0.067  0.00  0.00    +0.102 C 
ATOM     27  C   UNL     1       0.789  -0.388  -1.204  0.00  0.00    +0.179 C 
ATOM     28  C   UNL     1       2.192  -0.501  -0.633  0.00  0.00    +0.256 C 
ATOM     29  O   UNL     1       3.226  -0.426  -1.261  0.00  0.00    -0.272 OA
ATOM     30  N   UNL     1       2.083  -0.697   0.694  0.00  0.00    -0.201 N 
ATOM     31  N   UNL     1       0.788  -0.771   1.117  0.00  0.00    -0.218 NA
ATOM     32  C   UNL     1       0.399  -2.163   1.381  0.00  0.00    +0.128 C 
BRANCH  30  33
ATOM     33  C   UNL     1       3.184  -0.814   1.550  0.00  0.00    +0.053 A 
ATOM     34  C   UNL     1       4.245  -1.643   1.211  0.00  0.00    +0.025 A 
ATOM     35  C   UNL     1       5.330  -1.757   2.058  0.00  0.00    +0.002 A 
ATOM     36  C   UNL     1       5.360  -1.045   3.244  0.00  0.00    +0.000 A 
ATOM     37  C   UNL     1       4.305  -0.219   3.585  0.00  0.00    +0.002 A 
ATOM     38  C   UNL     1       3.220  -0.097   2.739  0.00  0.00    +0.025 A 
ENDBRANCH  30  33
ENDBRANCH  21  27
ENDBRANCH   1  22
TORSDOF 6
