REMARK  Name = ZINC05075357
REMARK  6 active torsions:
REMARK  status: ('A' for Active; 'I' for Inactive)
REMARK    1  A    between atoms: C_1  and  O_2
REMARK    2  A    between atoms: O_2  and  C_3
REMARK    3  A    between atoms: C_3  and  C_4
REMARK    4  A    between atoms: C_11  and  N_24
REMARK    5  A    between atoms: C_12  and  C_22
REMARK    6  A    between atoms: C_13  and  C_15
REMARK                            x       y       z     vdW  Elec       q    Type
REMARK                         _______ _______ _______ _____ _____    ______ ____
ROOT
ATOM      1  C   UNL     1       0.633  -2.085   1.012  0.00  0.00    +0.096 A 
ATOM      2  C   UNL     1      -0.359  -2.913   1.519  0.00  0.00    +0.052 A 
ATOM      3  C   UNL     1      -0.031  -4.204   1.211  0.00  0.00    +0.223 A 
ATOM      4  N   UNL     1       1.129  -4.178   0.535  0.00  0.00    -0.246 N 
ATOM      5  H   UNL     1       1.606  -4.949   0.189  0.00  0.00    +0.192 HD
ATOM      6  N   UNL     1       1.527  -2.837   0.416  0.00  0.00    -0.173 NA
ATOM      7  O   UNL     1      -0.804  -5.261   1.565  0.00  0.00    -0.423 OA
ATOM      8  C   UNL     1      -2.055  -5.002   1.996  0.00  0.00    +0.200 C 
ATOM      9  C   UNL     1      -2.493  -3.771   2.342  0.00  0.00    +0.098 C 
ATOM     10  C   UNL     1      -1.607  -2.551   2.282  0.00  0.00    +0.104 C 
ENDROOT
BRANCH  10  11
ATOM     11  C   UNL     1      -1.241  -2.120   3.679  0.00  0.00    +0.001 A 
ATOM     12  C   UNL     1      -0.575  -2.991   4.520  0.00  0.00    +0.007 A 
ATOM     13  C   UNL     1      -0.239  -2.596   5.801  0.00  0.00    +0.000 A 
ATOM     14  C   UNL     1      -0.569  -1.328   6.243  0.00  0.00    +0.003 A 
ATOM     15  C   UNL     1      -1.235  -0.454   5.404  0.00  0.00    +0.038 A 
ATOM     16  C   UNL     1      -1.567  -0.848   4.118  0.00  0.00    +0.127 A 
ATOM     17  F   UNL     1      -2.213   0.007   3.296  0.00  0.00    -0.205 F 
ENDBRANCH  10  11
BRANCH   8  18
ATOM     18  N   UNL     1      -2.937  -6.050   2.089  0.00  0.00    -0.328 N 
ATOM     19  H   UNL     1      -2.653  -6.946   1.847  0.00  0.00    +0.145 HD
ATOM     20  H   UNL     1      -3.844  -5.896   2.396  0.00  0.00    +0.145 HD
ENDBRANCH   8  18
BRANCH   9  21
ATOM     21  C   UNL     1      -3.847  -3.618   2.781  0.00  0.00    +0.101 C 
ATOM     22  N   UNL     1      -4.921  -3.497   3.130  0.00  0.00    -0.191 NA
ENDBRANCH   9  21
BRANCH   1  23
ATOM     23  C   UNL     1       0.673  -0.582   1.123  0.00  0.00    +0.217 C 
BRANCH  23  25
ATOM     24  C   UNL     1      -0.017   1.425   0.010  0.00  0.00    +0.194 C 
ATOM     25  O   UNL     1       0.002  -0.004   0.002  0.00  0.00    -0.377 OA
ENDBRANCH  23  25
ENDBRANCH   1  23
TORSDOF 5
