REMARK  Name = ZINC36586164
REMARK  14 active torsions:
REMARK  status: ('A' for Active; 'I' for Inactive)
REMARK    1  A    between atoms: C_1  and  C_2
REMARK    2  A    between atoms: C_2  and  C_3
REMARK    3  A    between atoms: C_2  and  C_4
REMARK    4  A    between atoms: C_2  and  N_5
REMARK    5  A    between atoms: C_6  and  C_8
REMARK    6  A    between atoms: C_8  and  C_10
REMARK    7  A    between atoms: C_8  and  N_20
REMARK    8  A    between atoms: C_12  and  N_17
REMARK    9  A    between atoms: N_20  and  C_31
REMARK   10  A    between atoms: C_21  and  C_23
REMARK   11  A    between atoms: C_24  and  C_25
REMARK   12  A    between atoms: C_31  and  C_32
REMARK   13  A    between atoms: C_31  and  C_33
REMARK   14  A    between atoms: C_31  and  C_34
REMARK                            x       y       z     vdW  Elec       q    Type
REMARK                         _______ _______ _______ _____ _____    ______ ____
ROOT
ATOM      1  C   UNL     1       2.603  -0.887  -2.746  0.00  0.00    +0.195 C 
ENDROOT
BRANCH   1   2
ATOM      2  C   UNL     1       2.046  -0.482  -4.087  0.00  0.00    +0.002 A 
ATOM      3  C   UNL     1       1.160   0.575  -4.178  0.00  0.00    +0.040 A 
ATOM      4  C   UNL     1       0.649   0.946  -5.407  0.00  0.00    +0.127 A 
ATOM      5  C   UNL     1       1.025   0.260  -6.548  0.00  0.00    +0.034 A 
ATOM      6  C   UNL     1       1.911  -0.797  -6.459  0.00  0.00    +0.022 A 
ATOM      7  C   UNL     1       2.427  -1.165  -5.229  0.00  0.00    +0.047 A 
ATOM      8 CL   UNL     1       3.546  -2.487  -5.117  0.00  0.00    -0.083 Cl
BRANCH   4   9
ATOM      9  N   UNL     1      -0.300   2.077  -5.503  0.00  0.00    +0.056 N 
ATOM     10  O   UNL     1      -0.629   2.676  -4.506  0.00  0.00    -0.126 OA
ATOM     11  O   UNL     1      -0.747   2.401  -6.579  0.00  0.00    -0.126 OA
ENDBRANCH   4   9
ENDBRANCH   1   2
BRANCH   1  13
ATOM     12  N   UNL     1       0.472  -0.741  -1.498  0.00  0.00    -0.309 N 
ATOM     13  C   UNL     1       1.741  -0.313  -1.651  0.00  0.00    +0.239 C 
ATOM     14  O   UNL     1       2.190   0.534  -0.908  0.00  0.00    -0.273 OA
ATOM     15  H   UNL     1       0.090  -1.364  -2.135  0.00  0.00    +0.149 HD
BRANCH  12  17
ATOM     16  C   UNL     1      -0.459   1.259  -0.442  0.00  0.00    +0.031 C 
ATOM     17  C   UNL     1      -0.330  -0.264  -0.369  0.00  0.00    +0.026 C 
ATOM     18  C   UNL     1       0.353  -0.655   0.943  0.00  0.00    +0.031 C 
ATOM     19  C   UNL     1      -1.721  -0.898  -0.428  0.00  0.00    +0.031 C 
ENDBRANCH  12  17
ENDBRANCH   1  13
BRANCH   1  20
ATOM     20  N   UNL     1       3.969  -0.377  -2.611  0.00  0.00    -0.270 N 
ATOM     21  C   UNL     1       4.223   0.932  -2.805  0.00  0.00    +0.293 C 
ATOM     22  O   UNL     1       3.304   1.708  -2.995  0.00  0.00    -0.260 OA
BRANCH  20  23
ATOM     23  C   UNL     1       5.061  -1.290  -2.264  0.00  0.00    +0.031 C 
ATOM     24  C   UNL     1       4.498  -2.694  -2.033  0.00  0.00    +0.031 C 
ATOM     25  C   UNL     1       6.076  -1.330  -3.407  0.00  0.00    +0.031 C 
ATOM     26  C   UNL     1       5.749  -0.801  -0.987  0.00  0.00    +0.031 C 
ENDBRANCH  20  23
BRANCH  21  27
ATOM     27  C   UNL     1       5.572   1.411  -2.788  0.00  0.00    -0.003 C 
ATOM     28  C   UNL     1       6.678   1.803  -2.775  0.00  0.00    -0.057 C 
BRANCH  28  29
ATOM     29  C   UNL     1       8.028   2.282  -2.758  0.00  0.00    +0.025 A 
ATOM     30  C   UNL     1       9.086   1.393  -2.546  0.00  0.00    +0.017 A 
ATOM     31  C   UNL     1      10.383   1.861  -2.532  0.00  0.00    +0.001 A 
ATOM     32  C   UNL     1      10.639   3.208  -2.726  0.00  0.00    +0.000 A 
ATOM     33  C   UNL     1       9.596   4.094  -2.936  0.00  0.00    +0.001 A 
ATOM     34  C   UNL     1       8.295   3.640  -2.959  0.00  0.00    +0.017 A 
ENDBRANCH  28  29
ENDBRANCH  21  27
ENDBRANCH   1  20
TORSDOF 8
