REMARK  Name = ZINC43218929
REMARK  8 active torsions:
REMARK  status: ('A' for Active; 'I' for Inactive)
REMARK    1  A    between atoms: C_1  and  C_2
REMARK    2  A    between atoms: C_2  and  C_3
REMARK    3  A    between atoms: C_3  and  C_4
REMARK    4  A    between atoms: C_4  and  N_5
REMARK    5  A    between atoms: C_10  and  C_27
REMARK    6  A    between atoms: C_13  and  C_18
REMARK    7  A    between atoms: C_13  and  C_24
REMARK    8  A    between atoms: C_32  and  O_33
REMARK                            x       y       z     vdW  Elec       q    Type
REMARK                         _______ _______ _______ _____ _____    ______ ____
ROOT
ATOM      1  N   UNL     1       1.767  -2.564  -2.251  0.00  0.00    -0.242 N 
ATOM      2  C   UNL     1       0.996  -2.769  -3.369  0.00  0.00    +0.224 C 
ATOM      3  O   UNL     1      -0.154  -2.431  -3.547  0.00  0.00    -0.275 OA
ATOM      4  C   UNL     1       1.858  -3.474  -4.285  0.00  0.00    +0.077 C 
ATOM      5  C   UNL     1       1.995  -3.765  -5.723  0.00  0.00    -0.023 C 
ATOM      6  N   UNL     1       3.364  -4.382  -5.791  0.00  0.00    +0.398 N 
ATOM      7  C   UNL     1       4.135  -3.916  -4.599  0.00  0.00    +0.074 C 
ATOM      8  C   UNL     1       3.261  -2.821  -3.968  0.00  0.00    +0.090 C 
ATOM      9  C   UNL     1       3.094  -2.801  -2.474  0.00  0.00    +0.225 C 
ATOM     10  O   UNL     1       3.957  -2.966  -1.639  0.00  0.00    -0.275 OA
ATOM     11  H   UNL     1       3.287  -5.388  -5.776  0.00  0.00    -0.083 HD
ATOM     12  H   UNL     1       3.831  -4.086  -6.635  0.00  0.00    -0.083 HD
ENDROOT
BRANCH   5  13
ATOM     13  C   UNL     1       0.941  -4.742  -6.177  0.00  0.00    -0.018 A 
ATOM     14  C   UNL     1       0.224  -5.467  -5.246  0.00  0.00    +0.020 A 
ATOM     15  C   UNL     1      -0.744  -6.364  -5.662  0.00  0.00    +0.018 A 
ATOM     16  C   UNL     1      -0.995  -6.536  -7.012  0.00  0.00    +0.019 A 
ATOM     17  C   UNL     1      -0.281  -5.812  -7.946  0.00  0.00    +0.047 A 
ATOM     18  C   UNL     1       0.686  -4.908  -7.530  0.00  0.00    +0.119 A 
ATOM     19 BR   UNL     1      -1.723  -7.357  -4.385  0.00  0.00    -0.050 Br
BRANCH  18  20
ATOM     20  O   UNL     1       1.387  -4.191  -8.448  0.00  0.00    -0.507 OA
ATOM     21  H   UNL     1       2.198  -4.624  -8.749  0.00  0.00    +0.292 HD
ENDBRANCH  18  20
ENDBRANCH   5  13
BRANCH   7  22
ATOM     22  C   UNL     1       4.354  -5.059  -3.641  0.00  0.00    -0.047 A 
ATOM     23  C   UNL     1       5.385  -5.002  -2.722  0.00  0.00    +0.003 A 
ATOM     24  C   UNL     1       5.587  -6.050  -1.843  0.00  0.00    +0.000 A 
ATOM     25  C   UNL     1       4.757  -7.155  -1.883  0.00  0.00    +0.000 A 
ATOM     26  C   UNL     1       3.725  -7.212  -2.802  0.00  0.00    +0.000 A 
ATOM     27  C   UNL     1       3.521  -6.162  -3.678  0.00  0.00    +0.003 A 
ENDBRANCH   7  22
BRANCH   7  28
ATOM     28  C   UNL     1       5.456  -3.332  -5.027  0.00  0.00    +0.350 C 
ATOM     29  O   UNL     1       5.763  -3.319  -6.207  0.00  0.00    -0.248 OA
ATOM     30  O   UNL     1       6.218  -2.872  -4.193  0.00  0.00    -0.248 OA
ENDBRANCH   7  28
BRANCH   1  31
ATOM     31  C   UNL     1       1.225  -2.130  -0.961  0.00  0.00    +0.116 C 
BRANCH  31  32
ATOM     32  C   UNL     1       1.219  -0.602  -0.898  0.00  0.00    +0.019 C 
BRANCH  32  34
ATOM     33  C   UNL     1       0.647   1.380   0.512  0.00  0.00    +0.004 C 
ATOM     34  C   UNL     1       0.653  -0.149   0.450  0.00  0.00    -0.002 C 
ENDBRANCH  32  34
ENDBRANCH  31  32
ENDBRANCH   1  31
TORSDOF 7
