REMARK  Name = ZINC40988480
REMARK  8 active torsions:
REMARK  status: ('A' for Active; 'I' for Inactive)
REMARK    1  A    between atoms: C_1  and  N_2
REMARK    2  A    between atoms: N_2  and  C_3
REMARK    3  A    between atoms: N_2  and  C_4
REMARK    4  A    between atoms: C_4  and  C_6
REMARK    5  A    between atoms: C_4  and  C_27
REMARK    6  A    between atoms: C_6  and  N_7
REMARK    7  A    between atoms: C_8  and  C_10
REMARK    8  A    between atoms: N_13  and  C_15
REMARK                            x       y       z     vdW  Elec       q    Type
REMARK                         _______ _______ _______ _____ _____    ______ ____
ROOT
ATOM      1  N   UNL     1      -1.702   1.302  -1.405  0.00  0.00    -0.311 N 
ATOM      2  C   UNL     1      -2.076   1.923  -2.541  0.00  0.00    +0.264 C 
ATOM      3  O   UNL     1      -2.646   1.300  -3.415  0.00  0.00    -0.268 OA
ATOM      4  H   UNL     1      -1.246   1.799  -0.708  0.00  0.00    +0.149 HD
ENDROOT
BRANCH   2   5
ATOM      5  C   UNL     1      -1.792   3.361  -2.724  0.00  0.00    +0.150 A 
ATOM      6  C   UNL     1      -2.122   4.146  -3.841  0.00  0.00    +0.006 A 
ATOM      7  C   UNL     1      -1.669   5.394  -3.567  0.00  0.00    +0.044 A 
ATOM      8  N   UNL     1      -1.102   5.353  -2.350  0.00  0.00    -0.263 N 
ATOM      9  N   UNL     1      -1.184   4.162  -1.865  0.00  0.00    -0.166 NA
ATOM     10  C   UNL     1      -1.808   6.564  -4.506  0.00  0.00    +0.055 C 
ATOM     11  C   UNL     1      -2.137   6.024  -5.904  0.00  0.00    +0.006 C 
ATOM     12  C   UNL     1      -3.301   5.034  -5.813  0.00  0.00    +0.005 C 
ATOM     13  C   UNL     1      -2.831   3.754  -5.108  0.00  0.00    +0.039 C 
BRANCH   8  14
ATOM     14  C   UNL     1      -0.485   6.495  -1.671  0.00  0.00    +0.130 C 
ATOM     15  C   UNL     1      -1.207   6.747  -0.338  0.00  0.00    +0.051 C 
ATOM     16  C   UNL     1      -0.351   7.742   0.496  0.00  0.00    +0.168 C 
ATOM     17  S   UNL     1       1.342   7.102   0.151  0.00  0.00    -0.029 S 
ATOM     18  O   UNL     1       1.698   6.168   1.162  0.00  0.00    -0.174 OA
ATOM     19  O   UNL     1       2.204   8.198  -0.123  0.00  0.00    -0.174 OA
ATOM     20  C   UNL     1       1.010   6.192  -1.411  0.00  0.00    +0.192 C 
ENDBRANCH   8  14
ENDBRANCH   2   5
BRANCH   1  21
ATOM     21  C   UNL     1      -1.983  -0.125  -1.224  0.00  0.00    +0.094 C 
BRANCH  21  22
ATOM     22  C   UNL     1      -1.353  -0.606   0.085  0.00  0.00    -0.020 C 
BRANCH  22  23
ATOM     23  C   UNL     1       0.147  -0.502  -0.012  0.00  0.00    -0.041 A 
ATOM     24  C   UNL     1       0.805   0.566   0.570  0.00  0.00    +0.003 A 
ATOM     25  C   UNL     1       2.181   0.661   0.481  0.00  0.00    +0.000 A 
ATOM     26  C   UNL     1       2.901  -0.311  -0.189  0.00  0.00    +0.001 A 
ATOM     27  C   UNL     1       2.244  -1.379  -0.770  0.00  0.00    +0.020 A 
ATOM     28  C   UNL     1       0.868  -1.478  -0.677  0.00  0.00    +0.043 A 
ATOM     29 CL   UNL     1       0.043  -2.823  -1.402  0.00  0.00    -0.083 Cl
ENDBRANCH  22  23
BRANCH  22  31
ATOM     30  C   UNL     1      -3.300   0.231   1.207  0.00  0.00    -0.096 C 
ATOM     31  N   UNL     1      -1.831   0.228   1.195  0.00  0.00    +0.382 N 
ATOM     32  C   UNL     1      -1.332  -0.314   2.465  0.00  0.00    -0.096 C 
ATOM     33  H   UNL     1      -1.494   1.172   1.076  0.00  0.00    -0.082 HD
ENDBRANCH  22  31
ENDBRANCH  21  22
ENDBRANCH   1  21
TORSDOF 6
