REMARK  Name = ZINC58530463
REMARK  7 active torsions:
REMARK  status: ('A' for Active; 'I' for Inactive)
REMARK    1  A    between atoms: C_1  and  C_2
REMARK    2  A    between atoms: C_6  and  C_26
REMARK    3  A    between atoms: C_8  and  O_11
REMARK    4  A    between atoms: O_11  and  C_12
REMARK    5  A    between atoms: C_12  and  C_14
REMARK    6  A    between atoms: C_26  and  C_27
REMARK    7  A    between atoms: C_26  and  C_28
REMARK                            x       y       z     vdW  Elec       q    Type
REMARK                         _______ _______ _______ _____ _____    ______ ____
ROOT
ATOM      1  C   UNL     1       1.304   2.036   2.995  0.00  0.00    +0.315 C 
ATOM      2  O   UNL     1       2.236   1.388   3.411  0.00  0.00    -0.250 OA
ENDROOT
BRANCH   1   3
ATOM      3  C   UNL     1       1.356   3.541   3.036  0.00  0.00    +0.138 C 
ATOM      4  C   UNL     1       1.232   4.093   1.616  0.00  0.00    +0.115 C 
ATOM      5  C   UNL     1       2.501   3.821   0.852  0.00  0.00    +0.218 C 
ATOM      6  O   UNL     1       2.443   3.521  -0.322  0.00  0.00    -0.275 OA
ATOM      7  N   UNL     1       3.697   3.908   1.459  0.00  0.00    -0.285 N 
ATOM      8  C   UNL     1       3.785   4.141   2.834  0.00  0.00    +0.037 A 
ATOM      9  C   UNL     1       2.665   3.982   3.639  0.00  0.00    -0.012 A 
ATOM     10  C   UNL     1       2.752   4.228   4.995  0.00  0.00    +0.006 A 
ATOM     11  C   UNL     1       3.957   4.613   5.554  0.00  0.00    +0.000 A 
ATOM     12  C   UNL     1       5.079   4.747   4.758  0.00  0.00    +0.002 A 
ATOM     13  C   UNL     1       4.997   4.508   3.403  0.00  0.00    +0.023 A 
ATOM     14  H   UNL     1       4.509   3.808   0.937  0.00  0.00    +0.155 HD
ENDBRANCH   1   3
BRANCH   1  15
ATOM     15  O   UNL     1       0.224   1.414   2.497  0.00  0.00    -0.461 OA
BRANCH  15  21
ATOM     16  C   UNL     1      -0.019   1.526   0.010  0.00  0.00    +0.007 C 
ATOM     17  C   UNL     1       0.002  -0.004   0.002  0.00  0.00    -0.011 C 
ATOM     18  C   UNL     1      -1.427  -0.534   0.139  0.00  0.00    +0.004 C 
ATOM     19  C   UNL     1      -2.031  -0.040   1.454  0.00  0.00    +0.007 C 
ATOM     20  C   UNL     1      -1.185  -0.545   2.625  0.00  0.00    +0.032 C 
ATOM     21  C   UNL     1       0.244  -0.015   2.489  0.00  0.00    +0.180 C 
ATOM     22  C   UNL     1       0.848  -0.509   1.173  0.00  0.00    +0.048 C 
BRANCH  20  23
ATOM     23  C   UNL     1      -1.789  -0.050   3.941  0.00  0.00    -0.011 C 
ATOM     24  C   UNL     1      -3.218  -0.580   4.078  0.00  0.00    +0.007 C 
ATOM     25  C   UNL     1      -0.944  -0.555   5.112  0.00  0.00    +0.007 C 
ENDBRANCH  20  23
ENDBRANCH  15  21
ENDBRANCH   1  15
TORSDOF 4
