REMARK  Name = ZINC02773629
REMARK  4 active torsions:
REMARK  status: ('A' for Active; 'I' for Inactive)
REMARK    1  A    between atoms: C_3  and  N_9
REMARK    2  A    between atoms: C_10  and  C_12
REMARK    3  A    between atoms: C_12  and  C_23
REMARK    4  A    between atoms: C_13  and  C_14
REMARK                            x       y       z     vdW  Elec       q    Type
REMARK                         _______ _______ _______ _____ _____    ______ ____
ROOT
ATOM      1  C   UNL     1       4.932  -2.713   0.109  0.00  0.00    +0.114 C 
ATOM      2  C   UNL     1       4.949  -4.084   0.247  0.00  0.00    +0.032 C 
ENDROOT
BRANCH   2   3
ATOM      3  C   UNL     1       6.219  -4.783   0.451  0.00  0.00    -0.020 A 
ATOM      4  C   UNL     1       6.360  -6.119   0.047  0.00  0.00    +0.012 A 
ATOM      5  C   UNL     1       7.557  -6.771   0.236  0.00  0.00    +0.050 A 
ATOM      6  C   UNL     1       8.625  -6.115   0.836  0.00  0.00    +0.166 A 
ATOM      7  C   UNL     1       8.492  -4.787   1.246  0.00  0.00    +0.167 A 
ATOM      8  C   UNL     1       7.298  -4.122   1.057  0.00  0.00    +0.057 A 
ATOM      9  O   UNL     1       9.672  -4.381   1.799  0.00  0.00    -0.453 OA
ATOM     10  C   UNL     1      10.653  -5.337   1.353  0.00  0.00    +0.466 C 
ATOM     11  O   UNL     1       9.887  -6.537   1.134  0.00  0.00    -0.453 OA
ENDBRANCH   2   3
BRANCH   1  13
ATOM     12  N   UNL     1       3.633  -0.651  -0.055  0.00  0.00    -0.280 N 
ATOM     13  C   UNL     1       3.650  -1.992   0.080  0.00  0.00    +0.259 C 
ATOM     14  O   UNL     1       2.604  -2.607   0.177  0.00  0.00    -0.269 OA
ATOM     15  H   UNL     1       4.460  -0.170  -0.212  0.00  0.00    +0.155 HD
BRANCH  12  18
ATOM     16  C   UNL     1       0.160   0.190   0.813  0.00  0.00    +0.003 A 
ATOM     17  C   UNL     1       1.355  -0.500   0.730  0.00  0.00    +0.025 A 
ATOM     18  C   UNL     1       2.423   0.045   0.031  0.00  0.00    +0.054 A 
ATOM     19  C   UNL     1       2.287   1.284  -0.585  0.00  0.00    +0.080 A 
ATOM     20  C   UNL     1       1.089   1.969  -0.498  0.00  0.00    +0.061 A 
ATOM     21  C   UNL     1       0.027   1.422   0.201  0.00  0.00    +0.021 A 
ATOM     22 CL   UNL     1       0.917   3.517  -1.266  0.00  0.00    -0.082 Cl
ATOM     23 CL   UNL     1       3.620   1.970  -1.461  0.00  0.00    -0.080 Cl
ENDBRANCH  12  18
ENDBRANCH   1  13
BRANCH   1  24
ATOM     24  C   UNL     1       6.162  -1.989  -0.005  0.00  0.00    +0.104 C 
ATOM     25  N   UNL     1       7.139  -1.415  -0.096  0.00  0.00    -0.191 NA
ENDBRANCH   1  24
TORSDOF 4
