REMARK  Name = ZINC16648217
REMARK  13 active torsions:
REMARK  status: ('A' for Active; 'I' for Inactive)
REMARK    1  A    between atoms: C_1  and  C_2
REMARK    2  A    between atoms: C_5  and  C_8
REMARK    3  A    between atoms: C_8  and  N_9
REMARK    4  A    between atoms: N_9  and  C_10
REMARK    5  A    between atoms: C_10  and  C_11
REMARK    6  A    between atoms: C_11  and  C_12
REMARK    7  A    between atoms: C_22  and  C_24
REMARK    8  A    between atoms: C_24  and  N_25
REMARK    9  A    between atoms: N_25  and  C_26
REMARK   10  A    between atoms: C_26  and  C_27
REMARK   11  A    between atoms: C_27  and  C_28
REMARK   12  A    between atoms: C_27  and  C_29
REMARK   13  A    between atoms: C_30  and  C_32
REMARK                            x       y       z     vdW  Elec       q    Type
REMARK                         _______ _______ _______ _____ _____    ______ ____
ROOT
ATOM      1  N   UNL     1       7.916  -0.885   5.256  0.00  0.00    -0.296 N 
ATOM      2  C   UNL     1       6.765  -1.268   4.667  0.00  0.00    +0.233 C 
ATOM      3  O   UNL     1       5.708  -1.102   5.236  0.00  0.00    -0.274 OA
ENDROOT
BRANCH   1   4
ATOM      4  C   UNL     1       9.181  -0.981   4.524  0.00  0.00    +0.143 C 
BRANCH   4   9
ATOM      5  C   UNL     1      10.435   4.145   2.168  0.00  0.00    +0.044 C 
ATOM      6  C   UNL     1      10.108   2.808   2.783  0.00  0.00    -0.050 A 
ATOM      7  C   UNL     1      10.605   2.481   4.030  0.00  0.00    +0.003 A 
ATOM      8  C   UNL     1      10.305   1.254   4.594  0.00  0.00    +0.005 A 
ATOM      9  C   UNL     1       9.508   0.356   3.910  0.00  0.00    -0.030 A 
ATOM     10  C   UNL     1       9.015   0.681   2.660  0.00  0.00    +0.005 A 
ATOM     11  C   UNL     1       9.312   1.909   2.098  0.00  0.00    +0.003 A 
ENDBRANCH   4   9
ENDBRANCH   1   4
BRANCH   1  12
ATOM     12  C   UNL     1       7.901  -0.374   6.629  0.00  0.00    +0.113 C 
BRANCH  12  13
ATOM     13  C   UNL     1       8.084  -1.536   7.608  0.00  0.00    +0.056 C 
BRANCH  13  14
ATOM     14  C   UNL     1       8.069  -1.010   9.020  0.00  0.00    -0.021 A 
ATOM     15  C   UNL     1       9.139  -0.688   9.764  0.00  0.00    +0.087 A 
ATOM     16  N   UNL     1       8.735  -0.244  10.994  0.00  0.00    -0.360 N 
ATOM     17  H   UNL     1       9.329   0.048  11.703  0.00  0.00    +0.165 HD
ATOM     18  C   UNL     1       7.361  -0.277  11.076  0.00  0.00    +0.047 A 
ATOM     19  C   UNL     1       6.883  -0.759   9.843  0.00  0.00    +0.003 A 
ATOM     20  C   UNL     1       5.510  -0.899   9.635  0.00  0.00    +0.010 A 
ATOM     21  C   UNL     1       4.636  -0.569  10.632  0.00  0.00    +0.001 A 
ATOM     22  C   UNL     1       5.102  -0.094  11.850  0.00  0.00    +0.002 A 
ATOM     23  C   UNL     1       6.453   0.053  12.076  0.00  0.00    +0.026 A 
ENDBRANCH  13  14
ENDBRANCH  12  13
ENDBRANCH   1  12
BRANCH   2  24
ATOM     24  C   UNL     1       6.794  -1.902   3.300  0.00  0.00    +0.204 C 
BRANCH  24  25
ATOM     25  N   UNL     1       5.422  -2.128   2.838  0.00  0.00    -0.288 N 
ATOM     26  C   UNL     1       4.782  -1.174   2.134  0.00  0.00    +0.247 C 
ATOM     27  O   UNL     1       5.381  -0.178   1.776  0.00  0.00    -0.270 OA
BRANCH  26  28
ATOM     28  C   UNL     1       3.354  -1.337   1.797  0.00  0.00    +0.041 A 
ATOM     29  C   UNL     1       2.885  -2.561   1.313  0.00  0.00    +0.017 A 
ATOM     30  C   UNL     1       1.552  -2.712   1.000  0.00  0.00    +0.050 A 
ATOM     31  C   UNL     1       0.671  -1.651   1.163  0.00  0.00    +0.166 A 
ATOM     32  C   UNL     1       1.133  -0.426   1.647  0.00  0.00    +0.167 A 
ATOM     33  C   UNL     1       2.469  -0.269   1.962  0.00  0.00    +0.062 A 
ATOM     34  O   UNL     1       0.081   0.441   1.714  0.00  0.00    -0.453 OA
ATOM     35  C   UNL     1      -1.099  -0.383   1.658  0.00  0.00    +0.466 C 
ATOM     36  O   UNL     1      -0.669  -1.548   0.929  0.00  0.00    -0.453 OA
ENDBRANCH  26  28
BRANCH  25  37
ATOM     37  C   UNL     1       4.746  -3.392   3.141  0.00  0.00    +0.111 C 
BRANCH  37  38
ATOM     38  C   UNL     1       5.165  -4.452   2.121  0.00  0.00    +0.000 C 
ATOM     39  C   UNL     1       6.646  -4.785   2.310  0.00  0.00    +0.009 C 
ATOM     40  C   UNL     1       4.328  -5.717   2.327  0.00  0.00    +0.009 C 
ENDBRANCH  37  38
ENDBRANCH  25  37
ENDBRANCH  24  25
ENDBRANCH   2  24
TORSDOF 10
