REMARK  Name = ZINC12870120
REMARK  10 active torsions:
REMARK  status: ('A' for Active; 'I' for Inactive)
REMARK    1  A    between atoms: C_1  and  C_2
REMARK    2  A    between atoms: C_6  and  C_31
REMARK    3  A    between atoms: C_7  and  C_13
REMARK    4  A    between atoms: C_13  and  C_14
REMARK    5  A    between atoms: C_14  and  C_15
REMARK    6  A    between atoms: N_17  and  C_18
REMARK    7  A    between atoms: C_18  and  C_20
REMARK    8  A    between atoms: C_18  and  C_21
REMARK    9  A    between atoms: C_25  and  S_27
REMARK   10  A    between atoms: S_27  and  N_30
REMARK                            x       y       z     vdW  Elec       q    Type
REMARK                         _______ _______ _______ _____ _____    ______ ____
ROOT
ATOM      1  C   UNL     1      -1.415   0.964   4.268  0.00  0.00    +0.214 C 
ATOM      2  O   UNL     1      -0.364   1.269   4.790  0.00  0.00    -0.276 OA
ATOM      3  N   UNL     1      -2.581   1.270   4.870  0.00  0.00    -0.309 N 
ATOM      4  H   UNL     1      -3.421   1.026   4.452  0.00  0.00    +0.149 HD
ENDROOT
BRANCH   3   5
ATOM      5  C   UNL     1      -2.579   1.974   6.155  0.00  0.00    +0.100 C 
ATOM      6  C   UNL     1      -2.476   3.481   5.912  0.00  0.00    +0.033 C 
BRANCH   5   7
ATOM      7  C   UNL     1      -3.855   1.670   6.896  0.00  0.00    -0.026 A 
ATOM      8  C   UNL     1      -5.055   1.611   6.210  0.00  0.00    +0.005 A 
ATOM      9  C   UNL     1      -6.225   1.328   6.889  0.00  0.00    +0.002 A 
ATOM     10  C   UNL     1      -6.198   1.113   8.255  0.00  0.00    +0.028 A 
ATOM     11  C   UNL     1      -5.000   1.177   8.940  0.00  0.00    +0.105 A 
ATOM     12  C   UNL     1      -3.828   1.456   8.261  0.00  0.00    +0.034 A 
BRANCH  11  13
ATOM     13  S   UNL     1      -4.965   0.904  10.681  0.00  0.00    +0.056 S 
ATOM     14  O   UNL     1      -6.111   0.125  10.993  0.00  0.00    -0.153 OA
ATOM     15  O   UNL     1      -3.646   0.481  10.999  0.00  0.00    -0.153 OA
BRANCH  13  16
ATOM     16  N   UNL     1      -5.179   2.375  11.411  0.00  0.00    -0.204 NA
ATOM     17  H   UNL     1      -5.614   2.428  12.277  0.00  0.00    +0.144 HD
ATOM     18  H   UNL     1      -4.870   3.184  10.973  0.00  0.00    +0.144 HD
ENDBRANCH  13  16
ENDBRANCH  11  13
ENDBRANCH   5   7
ENDBRANCH   3   5
BRANCH   1  19
ATOM     19  C   UNL     1      -1.417   0.240   2.945  0.00  0.00    +0.100 C 
BRANCH  19  20
ATOM     20  C   UNL     1       0.025   0.016   2.485  0.00  0.00    +0.052 C 
BRANCH  20  27
ATOM     21  C   UNL     1      -0.004  -2.975  -4.906  0.00  0.00    +0.044 C 
ATOM     22  C   UNL     1      -0.002  -2.196  -3.616  0.00  0.00    -0.047 A 
ATOM     23  C   UNL     1      -0.021  -0.809  -3.650  0.00  0.00    +0.004 A 
ATOM     24  C   UNL     1      -0.021  -0.087  -2.490  0.00  0.00    +0.012 A 
ATOM     25  C   UNL     1      -0.006  -0.750  -1.260  0.00  0.00    +0.021 A 
ATOM     26  C   UNL     1       0.002  -0.004   0.002  0.00  0.00    -0.030 A 
ATOM     27  C   UNL     1       0.023  -0.707   1.162  0.00  0.00    +0.041 A 
ATOM     28  C   UNL     1       0.042  -2.119   1.127  0.00  0.00    +0.341 A 
ATOM     29  O   UNL     1       0.059  -2.738   2.175  0.00  0.00    -0.245 OA
ATOM     30  O   UNL     1       0.040  -2.795  -0.032  0.00  0.00    -0.422 OA
ATOM     31  C   UNL     1       0.020  -2.155  -1.221  0.00  0.00    +0.140 A 
ATOM     32  C   UNL     1       0.018  -2.870  -2.412  0.00  0.00    +0.050 A 
ATOM     33  C   UNL     1      -0.018   1.503   0.010  0.00  0.00    +0.045 C 
ENDBRANCH  20  27
ENDBRANCH  19  20
ENDBRANCH   1  19
TORSDOF 7
