REMARK  Name = ZINC38583825
REMARK  6 active torsions:
REMARK  status: ('A' for Active; 'I' for Inactive)
REMARK    1  A    between atoms: C_1  and  O_2
REMARK    2  A    between atoms: O_2  and  C_3
REMARK    3  A    between atoms: C_6  and  C_9
REMARK    4  A    between atoms: C_9  and  C_10
REMARK    5  A    between atoms: N_16  and  N_17
REMARK    6  A    between atoms: C_18  and  C_19
REMARK                            x       y       z     vdW  Elec       q    Type
REMARK                         _______ _______ _______ _____ _____    ______ ____
ROOT
ATOM      1  C   UNL     1       1.577  -2.808   5.431  0.00  0.00    +0.144 C 
ATOM      2  C   UNL     1       2.228  -3.520   6.608  0.00  0.00    +0.232 C 
ATOM      3  O   UNL     1       2.721  -4.624   6.530  0.00  0.00    -0.274 OA
ATOM      4  N   UNL     1       2.201  -2.809   7.727  0.00  0.00    -0.263 N 
ATOM      5  C   UNL     1       1.641  -1.566   7.792  0.00  0.00    +0.183 C 
ATOM      6  N   UNL     1       1.563  -0.776   8.860  0.00  0.00    -0.127 NA
ATOM      7  S   UNL     1       1.067  -1.239   6.244  0.00  0.00    -0.075 S 
ATOM      8  H   UNL     1       2.594  -3.187   8.529  0.00  0.00    +0.157 HD
ENDROOT
BRANCH   6   9
ATOM      9  N   UNL     1       2.050  -1.167   9.989  0.00  0.00    -0.155 NA
ATOM     10  C   UNL     1       1.972  -0.382  11.050  0.00  0.00    +0.141 C 
BRANCH  10  11
ATOM     11  C   UNL     1       2.497  -0.802  12.265  0.00  0.00    +0.000 C 
ATOM     12  C   UNL     1       2.494  -0.101  13.478  0.00  0.00    +0.004 A 
ATOM     13  C   UNL     1       1.996   1.165  13.844  0.00  0.00    +0.010 A 
ATOM     14  C   UNL     1       2.135   1.600  15.125  0.00  0.00    +0.001 A 
ATOM     15  C   UNL     1       2.764   0.820  16.096  0.00  0.00    +0.002 A 
ATOM     16  C   UNL     1       3.265  -0.408  15.812  0.00  0.00    +0.026 A 
ATOM     17  C   UNL     1       3.156  -0.928  14.498  0.00  0.00    +0.043 A 
ATOM     18  N   UNL     1       3.554  -2.074  13.976  0.00  0.00    -0.380 N 
ATOM     19  C   UNL     1       3.187  -2.117  12.558  0.00  0.00    +0.150 C 
ATOM     20  H   UNL     1       4.015  -2.779  14.458  0.00  0.00    +0.160 HD
ENDBRANCH  10  11
ENDBRANCH   6   9
BRANCH   1  21
ATOM     21  C   UNL     1       2.587  -2.550   4.310  0.00  0.00    +0.059 C 
BRANCH  21  25
ATOM     22  C   UNL     1       0.626  -0.618   1.042  0.00  0.00    +0.120 A 
ATOM     23  C   UNL     1       1.202   0.138   2.051  0.00  0.00    +0.046 A 
ATOM     24  C   UNL     1       1.835  -0.488   3.107  0.00  0.00    +0.007 A 
ATOM     25  C   UNL     1       1.895  -1.869   3.158  0.00  0.00    -0.046 A 
ATOM     26  C   UNL     1       1.322  -2.625   2.152  0.00  0.00    +0.007 A 
ATOM     27  C   UNL     1       0.682  -2.003   1.098  0.00  0.00    +0.046 A 
BRANCH  22  29
ATOM     28  C   UNL     1      -0.017   1.425   0.010  0.00  0.00    +0.277 C 
ATOM     29  O   UNL     1       0.002  -0.004   0.002  0.00  0.00    -0.495 OA
ENDBRANCH  22  29
ENDBRANCH  21  25
ENDBRANCH   1  21
TORSDOF 5
