REMARK  Name = ZINC66829572
REMARK  5 active torsions:
REMARK  status: ('A' for Active; 'I' for Inactive)
REMARK    1  A    between atoms: C_1  and  C_2
REMARK    2  A    between atoms: C_2  and  N_3
REMARK    3  A    between atoms: N_6  and  N_7
REMARK    4  A    between atoms: C_8  and  C_10
REMARK    5  A    between atoms: C_13  and  C_15
REMARK                            x       y       z     vdW  Elec       q    Type
REMARK                         _______ _______ _______ _____ _____    ______ ____
ROOT
ATOM      1  C   UNL     1      -6.339  -0.935   0.058  0.00  0.00    +0.135 A 
ATOM      2  C   UNL     1      -7.627  -1.399   0.073  0.00  0.00    +0.080 A 
ATOM      3  S   UNL     1      -8.526   0.024   0.087  0.00  0.00    -0.075 S 
ATOM      4  C   UNL     1      -7.169   1.183   0.073  0.00  0.00    +0.109 A 
ATOM      5  N   UNL     1      -6.125   0.374   0.063  0.00  0.00    -0.234 NA
ENDROOT
BRANCH   4   6
ATOM      6  C   UNL     1      -7.205   2.661   0.076  0.00  0.00    +0.011 A 
ATOM      7  C   UNL     1      -6.014   3.389   0.057  0.00  0.00    +0.014 A 
ATOM      8  C   UNL     1      -6.051   4.767   0.062  0.00  0.00    +0.050 A 
ATOM      9  C   UNL     1      -7.268   5.436   0.085  0.00  0.00    +0.162 A 
ATOM     10  C   UNL     1      -8.458   4.715   0.102  0.00  0.00    +0.163 A 
ATOM     11  C   UNL     1      -8.428   3.331   0.093  0.00  0.00    +0.060 A 
ATOM     12  O   UNL     1      -9.659   5.355   0.117  0.00  0.00    -0.485 OA
ATOM     13  C   UNL     1      -9.649   6.736   0.495  0.00  0.00    +0.270 C 
ATOM     14  C   UNL     1      -8.511   7.432  -0.264  0.00  0.00    +0.270 C 
ATOM     15  O   UNL     1      -7.279   6.796   0.093  0.00  0.00    -0.485 OA
ENDBRANCH   4   6
BRANCH   1  17
ATOM     16  N   UNL     1      -3.942  -1.410   0.032  0.00  0.00    -0.228 N 
ATOM     17  C   UNL     1      -5.207  -1.877   0.042  0.00  0.00    +0.279 C 
ATOM     18  O   UNL     1      -5.412  -3.075   0.037  0.00  0.00    -0.267 OA
ATOM     19  H   UNL     1      -3.778  -0.454   0.036  0.00  0.00    +0.173 HD
BRANCH  16  23
ATOM     20  N   UNL     1      -1.372  -0.511   0.012  0.00  0.00    -0.298 N 
ATOM     21  C   UNL     1      -1.601  -1.839   0.007  0.00  0.00    +0.316 C 
ATOM     22  O   UNL     1      -0.666  -2.617  -0.006  0.00  0.00    -0.251 OA
ATOM     23  N   UNL     1      -2.865  -2.306   0.017  0.00  0.00    -0.218 N 
ATOM     24  H   UNL     1      -2.118   0.109   0.023  0.00  0.00    +0.150 HD
ATOM     25  H   UNL     1      -3.029  -3.262   0.013  0.00  0.00    +0.174 HD
BRANCH  20  27
ATOM     26  C   UNL     1      -0.019   1.526   0.010  0.00  0.00    +0.024 C 
ATOM     27  C   UNL     1       0.002  -0.004   0.002  0.00  0.00    +0.102 C 
ENDBRANCH  20  27
ENDBRANCH  16  23
ENDBRANCH   1  17
TORSDOF 4
