REMARK  Name = ZINC02444632
REMARK  11 active torsions:
REMARK  status: ('A' for Active; 'I' for Inactive)
REMARK    1  A    between atoms: C_1  and  C_2
REMARK    2  A    between atoms: C_2  and  C_3
REMARK    3  A    between atoms: C_2  and  C_4
REMARK    4  A    between atoms: C_2  and  C_5
REMARK    5  A    between atoms: C_8  and  C_11
REMARK    6  A    between atoms: C_14  and  S_19
REMARK    7  A    between atoms: N_15  and  C_16
REMARK    8  A    between atoms: C_16  and  C_17
REMARK    9  A    between atoms: S_19  and  C_20
REMARK   10  A    between atoms: C_20  and  C_21
REMARK   11  A    between atoms: N_23  and  C_24
REMARK                            x       y       z     vdW  Elec       q    Type
REMARK                         _______ _______ _______ _____ _____    ______ ____
ROOT
ATOM      1  C   UNL     1      -0.130   0.277  -0.013  0.00  0.00    +0.165 A 
ATOM      2  N   UNL     1       1.027  -0.320   0.156  0.00  0.00    -0.128 NA
ATOM      3  N   UNL     1       0.888  -1.591   0.024  0.00  0.00    -0.122 NA
ATOM      4  C   UNL     1      -0.366  -1.883  -0.238  0.00  0.00    +0.193 A 
ATOM      5  N   UNL     1      -1.058  -0.706  -0.265  0.00  0.00    -0.298 N 
ENDROOT
BRANCH   1   9
ATOM      6  C   UNL     1      -0.869   4.454   0.197  0.00  0.00    -0.042 A 
ATOM      7  C   UNL     1       0.294   3.933   0.735  0.00  0.00    +0.005 A 
ATOM      8  C   UNL     1       0.540   2.577   0.670  0.00  0.00    +0.012 A 
ATOM      9  C   UNL     1      -0.387   1.731   0.060  0.00  0.00    +0.019 A 
ATOM     10  C   UNL     1      -1.555   2.264  -0.487  0.00  0.00    +0.012 A 
ATOM     11  C   UNL     1      -1.792   3.621  -0.410  0.00  0.00    +0.005 A 
BRANCH   6  13
ATOM     12  C   UNL     1      -0.015   6.689  -0.455  0.00  0.00    +0.015 C 
ATOM     13  C   UNL     1      -1.131   5.936   0.272  0.00  0.00    -0.013 C 
ATOM     14  C   UNL     1      -2.474   6.251  -0.391  0.00  0.00    +0.015 C 
ATOM     15  C   UNL     1      -1.171   6.374   1.737  0.00  0.00    +0.015 C 
ENDBRANCH   6  13
ENDBRANCH   1   9
BRANCH   5  16
ATOM     16  C   UNL     1      -2.491  -0.528  -0.514  0.00  0.00    +0.152 C 
BRANCH  16  17
ATOM     17  C   UNL     1      -2.724  -0.326  -1.989  0.00  0.00    -0.013 C 
ATOM     18  C   UNL     1      -3.560  -1.103  -2.632  0.00  0.00    +0.005 C 
ENDBRANCH  16  17
ENDBRANCH   5  16
BRANCH   4  19
ATOM     19  S   UNL     1      -1.032  -3.494  -0.497  0.00  0.00    -0.077 S 
BRANCH  19  20
ATOM     20  C   UNL     1       0.466  -4.489  -0.298  0.00  0.00    +0.173 C 
BRANCH  20  21
ATOM     21  C   UNL     1       0.130  -5.947  -0.482  0.00  0.00    +0.227 C 
ATOM     22  O   UNL     1      -1.011  -6.279  -0.725  0.00  0.00    -0.275 OA
ATOM     23  N   UNL     1       1.096  -6.880  -0.378  0.00  0.00    -0.285 N 
ATOM     24  H   UNL     1       1.992  -6.622  -0.110  0.00  0.00    +0.155 HD
BRANCH  23  25
ATOM     25  C   UNL     1       0.807  -8.222  -0.655  0.00  0.00    +0.036 A 
ATOM     26  C   UNL     1       1.442  -9.231   0.055  0.00  0.00    +0.026 A 
ATOM     27  C   UNL     1       1.152 -10.554  -0.216  0.00  0.00    +0.043 A 
ATOM     28  C   UNL     1       0.236 -10.876  -1.203  0.00  0.00    +0.159 A 
ATOM     29  C   UNL     1      -0.396  -9.870  -1.918  0.00  0.00    +0.160 A 
ATOM     30  C   UNL     1      -0.112  -8.544  -1.645  0.00  0.00    +0.064 A 
ATOM     31  F   UNL     1      -1.290 -10.185  -2.881  0.00  0.00    -0.202 F 
ATOM     32  F   UNL     1      -0.042 -12.170  -1.469  0.00  0.00    -0.202 F 
ENDBRANCH  23  25
ENDBRANCH  20  21
ENDBRANCH  19  20
ENDBRANCH   4  19
TORSDOF 8
