REMARK  Name = ZINC43254745
REMARK  7 active torsions:
REMARK  status: ('A' for Active; 'I' for Inactive)
REMARK    1  A    between atoms: C_1  and  C_2
REMARK    2  A    between atoms: C_2  and  C_3
REMARK    3  A    between atoms: C_3  and  C_5
REMARK    4  A    between atoms: C_3  and  N_22
REMARK    5  A    between atoms: C_5  and  C_7
REMARK    6  A    between atoms: C_5  and  O_13
REMARK    7  A    between atoms: O_13  and  C_14
REMARK                            x       y       z     vdW  Elec       q    Type
REMARK                         _______ _______ _______ _____ _____    ______ ____
ROOT
ATOM      1  C   UNL     1       0.849  -2.034  -1.200  0.00  0.00    +0.196 C 
ENDROOT
BRANCH   1   2
ATOM      2  C   UNL     1       1.620  -2.482   0.015  0.00  0.00    +0.030 A 
ATOM      3  C   UNL     1       1.153  -2.962   1.193  0.00  0.00    +0.016 A 
ATOM      4  C   UNL     1       2.056  -3.315   2.179  0.00  0.00    +0.028 A 
ATOM      5  C   UNL     1       3.383  -3.171   1.937  0.00  0.00    +0.078 A 
ATOM      6  S   UNL     1       3.386  -2.526   0.272  0.00  0.00    -0.078 S 
ATOM      7 CL   UNL     1       4.728  -3.527   2.974  0.00  0.00    -0.076 Cl
ENDBRANCH   1   2
BRANCH   1   8
ATOM      8  C   UNL     1       0.760  -0.506  -1.213  0.00  0.00    -0.029 C 
BRANCH   8   9
ATOM      9  N   UNL     1       0.009  -0.069  -2.397  0.00  0.00    +0.383 N 
ATOM     10  H   UNL     1      -0.050   0.938  -2.405  0.00  0.00    -0.089 HD
ATOM     11  H   UNL     1       0.481  -0.386  -3.231  0.00  0.00    -0.089 HD
ATOM     12  H   UNL     1      -0.921  -0.460  -2.368  0.00  0.00    -0.089 HD
ENDBRANCH   8   9
BRANCH   8  14
ATOM     13  C   UNL     1       0.065   1.502   0.100  0.00  0.00    +0.002 C 
ATOM     14  C   UNL     1       0.044  -0.027   0.051  0.00  0.00    -0.016 C 
ENDBRANCH   8  14
ENDBRANCH   1   8
BRANCH   1  15
ATOM     15  O   UNL     1       1.518  -2.482  -2.381  0.00  0.00    -0.484 OA
BRANCH  15  16
ATOM     16  C   UNL     1       0.737  -2.891  -3.415  0.00  0.00    +0.135 A 
ATOM     17  C   UNL     1      -0.641  -2.753  -3.341  0.00  0.00    +0.049 A 
ATOM     18  C   UNL     1      -1.435  -3.168  -4.393  0.00  0.00    +0.042 A 
ATOM     19  C   UNL     1      -0.855  -3.723  -5.521  0.00  0.00    +0.125 A 
ATOM     20  C   UNL     1       0.520  -3.862  -5.597  0.00  0.00    +0.057 A 
ATOM     21  C   UNL     1       1.317  -3.442  -4.549  0.00  0.00    +0.062 A 
ATOM     22 BR   UNL     1       3.196  -3.624  -4.656  0.00  0.00    -0.046 Br
ATOM     23  F   UNL     1      -1.632  -4.129  -6.549  0.00  0.00    -0.205 F 
ENDBRANCH  15  16
ENDBRANCH   1  15
TORSDOF 6
