REMARK  Name = ZINC12167962
REMARK  5 active torsions:
REMARK  status: ('A' for Active; 'I' for Inactive)
REMARK    1  A    between atoms: C_8  and  C_10
REMARK    2  A    between atoms: C_14  and  O_16
REMARK    3  A    between atoms: O_16  and  C_17
REMARK    4  A    between atoms: C_27  and  C_28
REMARK    5  A    between atoms: C_27  and  N_59
REMARK                            x       y       z     vdW  Elec       q    Type
REMARK                         _______ _______ _______ _____ _____    ______ ____
ROOT
ATOM      1  C   UNL     1       4.975   1.665  -0.338  0.00  0.00    +0.011 A 
ATOM      2  C   UNL     1       5.322   0.328  -0.132  0.00  0.00    +0.016 A 
ATOM      3  C   UNL     1       6.637  -0.006   0.103  0.00  0.00    -0.018 A 
ATOM      4  C   UNL     1       7.616   0.969   0.144  0.00  0.00    +0.163 A 
ATOM      5  C   UNL     1       7.281   2.304  -0.074  0.00  0.00    +0.163 A 
ATOM      6  C   UNL     1       5.964   2.651  -0.318  0.00  0.00    +0.060 A 
ATOM      7  O   UNL     1       8.906   0.627   0.415  0.00  0.00    -0.490 OA
ATOM      8  C   UNL     1       9.153   0.180   1.754  0.00  0.00    +0.211 C 
ATOM      9  C   UNL     1       8.870  -1.301   1.885  0.00  0.00    -0.036 C 
ATOM     10  C   UNL     1       7.029  -1.459   0.299  0.00  0.00    -0.039 C 
ATOM     11  N   UNL     1       7.439  -1.631   1.713  0.00  0.00    +0.387 N 
ATOM     12  H   UNL     1       6.881  -0.997   2.297  0.00  0.00    -0.081 HD
ENDROOT
BRANCH   1  20
ATOM     13  C   UNL     1      -1.120   1.654  -1.214  0.00  0.00    +0.002 A 
ATOM     14  C   UNL     1      -1.179   3.031  -1.378  0.00  0.00    +0.001 A 
ATOM     15  C   UNL     1      -0.016   3.774  -1.299  0.00  0.00    +0.017 A 
ATOM     16  C   UNL     1       1.176   3.137  -1.054  0.00  0.00    +0.040 A 
ATOM     17  C   UNL     1       1.269   1.736  -0.877  0.00  0.00    +0.079 A 
ATOM     18  C   UNL     1       0.054   1.015  -0.966  0.00  0.00    +0.029 A 
ATOM     19  N   UNL     1       2.506   1.258  -0.644  0.00  0.00    -0.239 NA
ATOM     20  C   UNL     1       3.566   2.036  -0.583  0.00  0.00    +0.110 A 
ATOM     21  S   UNL     1       2.866   3.655  -0.873  0.00  0.00    -0.067 S 
ENDBRANCH   1  20
BRANCH   5  22
ATOM     22  O   UNL     1       8.245   3.263  -0.052  0.00  0.00    -0.483 OA
BRANCH  22  23
ATOM     23  C   UNL     1       7.814   4.620  -0.172  0.00  0.00    +0.201 C 
ATOM     24  C   UNL     1       8.923   5.596   0.309  0.00  0.00    +0.075 C 
ATOM     25  C   UNL     1       8.594   6.853  -0.535  0.00  0.00    +0.163 C 
ATOM     26  O   UNL     1       8.155   6.347  -1.806  0.00  0.00    -0.376 OA
ATOM     27  C   UNL     1       7.650   5.016  -1.655  0.00  0.00    +0.204 C 
ENDBRANCH  22  23
ENDBRANCH   5  22
BRANCH  11  28
ATOM     28  C   UNL     1       7.191  -3.017   2.143  0.00  0.00    -0.042 C 
BRANCH  28  29
ATOM     29  C   UNL     1       7.866  -3.248   3.471  0.00  0.00    -0.061 A 
ATOM     30  C   UNL     1       9.156  -3.745   3.513  0.00  0.00    +0.005 A 
ATOM     31  C   UNL     1       9.779  -3.954   4.729  0.00  0.00    +0.041 A 
ATOM     32  C   UNL     1       9.107  -3.675   5.907  0.00  0.00    +0.158 A 
ATOM     33  C   UNL     1       7.812  -3.181   5.865  0.00  0.00    +0.159 A 
ATOM     34  C   UNL     1       7.193  -2.969   4.645  0.00  0.00    +0.043 A 
ATOM     35  F   UNL     1       7.155  -2.909   7.013  0.00  0.00    -0.202 F 
ATOM     36  F   UNL     1       9.714  -3.884   7.096  0.00  0.00    -0.202 F 
ENDBRANCH  28  29
ENDBRANCH  11  28
TORSDOF 5
