REMARK  Name = ZINC06379419
REMARK  3 active torsions:
REMARK  status: ('A' for Active; 'I' for Inactive)
REMARK    1  A    between atoms: C_1  and  N_2
REMARK    2  A    between atoms: C_3  and  C_5
REMARK    3  A    between atoms: C_5  and  N_6
REMARK                            x       y       z     vdW  Elec       q    Type
REMARK                         _______ _______ _______ _____ _____    ______ ____
ROOT
ATOM      1  N   UNL     1      -0.016   1.343   0.009  0.00  0.00    -0.215 N 
ATOM      2  C   UNL     1       0.002  -0.004   0.002  0.00  0.00    +0.247 C 
ATOM      3  O   UNL     1      -0.955  -0.748   0.009  0.00  0.00    -0.273 OA
ATOM      4  C   UNL     1       1.469  -0.399  -0.017  0.00  0.00    +0.113 C 
ATOM      5  C   UNL     1       1.758  -1.087  -1.371  0.00  0.00    +0.035 C 
ATOM      6  C   UNL     1       3.224  -0.959  -1.675  0.00  0.00    +0.003 C 
ATOM      7  C   UNL     1       4.037  -2.182  -1.206  0.00  0.00    +0.000 C 
ATOM      8  C   UNL     1       3.605  -2.690   0.183  0.00  0.00    +0.000 C 
ATOM      9  C   UNL     1       3.344  -1.564   1.147  0.00  0.00    +0.003 C 
ATOM     10  C   UNL     1       1.839  -1.236   1.117  0.00  0.00    +0.035 C 
ATOM     11  N   UNL     1       2.169   0.902  -0.014  0.00  0.00    -0.285 N 
ATOM     12  C   UNL     1       1.220   1.853   0.000  0.00  0.00    +0.310 C 
ATOM     13  O   UNL     1       1.458   3.045   0.004  0.00  0.00    -0.252 OA
ATOM     14  H   UNL     1       3.129   1.042  -0.021  0.00  0.00    +0.151 HD
ENDROOT
BRANCH   1  15
ATOM     15  C   UNL     1      -1.239   2.149   0.020  0.00  0.00    +0.213 C 
BRANCH  15  18
ATOM     16  C   UNL     1      -3.158   3.406   3.084  0.00  0.00    +0.128 C 
ATOM     17  N   UNL     1      -2.757   3.145   1.700  0.00  0.00    -0.317 N 
ATOM     18  C   UNL     1      -1.652   2.417   1.444  0.00  0.00    +0.231 C 
ATOM     19  O   UNL     1      -0.989   1.979   2.360  0.00  0.00    -0.274 OA
ATOM     20  H   UNL     1      -3.287   3.496   0.967  0.00  0.00    +0.148 HD
ENDBRANCH  15  18
ENDBRANCH   1  15
TORSDOF 2
