REMARK  Name = ZINC59640243
REMARK  4 active torsions:
REMARK  status: ('A' for Active; 'I' for Inactive)
REMARK    1  A    between atoms: C_1  and  N_2
REMARK    2  A    between atoms: N_9  and  N_10
REMARK    3  A    between atoms: C_11  and  C_12
REMARK    4  A    between atoms: C_17  and  O_18
REMARK                            x       y       z     vdW  Elec       q    Type
REMARK                         _______ _______ _______ _____ _____    ______ ____
ROOT
ATOM      1  C   UNL     1       2.713   1.474  -0.955  0.00  0.00    +0.127 C 
ATOM      2  N   UNL     1       2.368   0.052  -0.899  0.00  0.00    -0.330 N 
ATOM      3  C   UNL     1       2.444  -0.633   0.305  0.00  0.00    +0.159 A 
ATOM      4  C   UNL     1       2.122  -1.993   0.369  0.00  0.00    +0.181 A 
ATOM      5  C   UNL     1       2.212  -2.634   1.590  0.00  0.00    +0.156 A 
ATOM      6  N   UNL     1       2.598  -1.947   2.656  0.00  0.00    -0.219 NA
ATOM      7  C   UNL     1       2.896  -0.659   2.565  0.00  0.00    +0.237 A 
ATOM      8  N   UNL     1       2.827  -0.009   1.413  0.00  0.00    -0.195 NA
ATOM      9  N   UNL     1       3.294   0.023   3.703  0.00  0.00    -0.205 N 
ATOM     10  F   UNL     1       1.733  -2.664  -0.737  0.00  0.00    -0.200 F 
ATOM     11  H   UNL     1       2.087  -0.411  -1.703  0.00  0.00    +0.147 HD
ATOM     12  H   UNL     1       3.515   0.966   3.651  0.00  0.00    +0.177 HD
ENDROOT
BRANCH   9  13
ATOM     13  N   UNL     1       3.378  -0.649   4.930  0.00  0.00    -0.187 NA
ATOM     14  C   UNL     1       3.646   0.012   6.014  0.00  0.00    +0.142 C 
BRANCH  14  15
ATOM     15  C   UNL     1       3.611   1.485   6.008  0.00  0.00    +0.038 A 
ATOM     16  C   UNL     1       2.811   2.164   5.086  0.00  0.00    +0.028 A 
ATOM     17  C   UNL     1       2.783   3.544   5.085  0.00  0.00    +0.020 A 
ATOM     18  C   UNL     1       3.544   4.259   5.995  0.00  0.00    +0.033 A 
ATOM     19  C   UNL     1       4.339   3.597   6.913  0.00  0.00    +0.056 A 
ATOM     20  C   UNL     1       4.375   2.212   6.931  0.00  0.00    +0.139 A 
ATOM     21  I   UNL     1       5.486   4.691   8.283  0.00  0.00    -0.040 I 
ATOM     22 BR   UNL     1       1.701   4.463   3.835  0.00  0.00    -0.050 Br
BRANCH  20  23
ATOM     23  O   UNL     1       5.151   1.562   7.836  0.00  0.00    -0.505 OA
ATOM     24  H   UNL     1       6.026   1.319   7.502  0.00  0.00    +0.292 HD
ENDBRANCH  20  23
ENDBRANCH  14  15
ENDBRANCH   9  13
TORSDOF 3
