REMARK  Name = ZINC35523029
REMARK  7 active torsions:
REMARK  status: ('A' for Active; 'I' for Inactive)
REMARK    1  A    between atoms: C_4  and  C_7
REMARK    2  A    between atoms: C_7  and  C_8
REMARK    3  A    between atoms: C_8  and  C_10
REMARK    4  A    between atoms: C_8  and  N_16
REMARK    5  A    between atoms: C_17  and  C_19
REMARK    6  A    between atoms: C_19  and  N_20
REMARK    7  A    between atoms: C_28  and  C_30
REMARK                            x       y       z     vdW  Elec       q    Type
REMARK                         _______ _______ _______ _____ _____    ______ ____
ROOT
ATOM      1  N   UNL     1       3.229  -1.870   2.059  0.00  0.00    -0.310 N 
ATOM      2  C   UNL     1       3.109  -1.856   3.402  0.00  0.00    +0.197 C 
ATOM      3  O   UNL     1       3.781  -1.094   4.063  0.00  0.00    -0.278 OA
ATOM      4  H   UNL     1       2.691  -2.480   1.530  0.00  0.00    +0.149 HD
ENDROOT
BRANCH   1   5
ATOM      5  C   UNL     1       4.171  -0.963   1.399  0.00  0.00    +0.107 C 
BRANCH   5   6
ATOM      6  C   UNL     1       5.543  -1.588   1.383  0.00  0.00    -0.027 A 
ATOM      7  C   UNL     1       5.683  -2.940   1.128  0.00  0.00    +0.005 A 
ATOM      8  C   UNL     1       6.941  -3.513   1.114  0.00  0.00    +0.000 A 
ATOM      9  C   UNL     1       8.058  -2.735   1.354  0.00  0.00    +0.000 A 
ATOM     10  C   UNL     1       7.917  -1.384   1.608  0.00  0.00    +0.000 A 
ATOM     11  C   UNL     1       6.660  -0.809   1.618  0.00  0.00    +0.005 A 
ENDBRANCH   5   6
BRANCH   5  12
ATOM     12  C   UNL     1       3.711  -0.707  -0.038  0.00  0.00    +0.062 C 
BRANCH  12  16
ATOM     13  C   UNL     1      -0.017   1.378   0.010  0.00  0.00    +0.000 A 
ATOM     14  C   UNL     1       1.171   2.086   0.002  0.00  0.00    +0.000 A 
ATOM     15  C   UNL     1       2.377   1.411  -0.013  0.00  0.00    +0.004 A 
ATOM     16  C   UNL     1       2.396   0.029  -0.020  0.00  0.00    -0.045 A 
ATOM     17  C   UNL     1       1.208  -0.679  -0.012  0.00  0.00    +0.004 A 
ATOM     18  C   UNL     1       0.002  -0.004   0.002  0.00  0.00    +0.000 A 
ENDBRANCH  12  16
ENDBRANCH   5  12
ENDBRANCH   1   5
BRANCH   2  19
ATOM     19  C   UNL     1       2.139  -2.789   4.081  0.00  0.00    +0.020 C 
BRANCH  19  20
ATOM     20  N   UNL     1       2.197  -2.581   5.534  0.00  0.00    +0.395 N 
ATOM     21  C   UNL     1       1.734  -1.224   5.851  0.00  0.00    -0.055 C 
ATOM     22  C   UNL     1       2.080  -0.882   7.306  0.00  0.00    +0.103 C 
ATOM     23  N   UNL     1       1.596  -1.976   8.157  0.00  0.00    -0.353 N 
ATOM     24  C   UNL     1       1.411  -1.975   9.501  0.00  0.00    +0.086 A 
ATOM     25  C   UNL     1       0.947  -3.192   9.862  0.00  0.00    +0.019 A 
ATOM     26  C   UNL     1       0.846  -3.972   8.691  0.00  0.00    +0.021 A 
ATOM     27  C   UNL     1       1.250  -3.208   7.665  0.00  0.00    +0.009 A 
ATOM     28  C   UNL     1       1.339  -3.573   6.204  0.00  0.00    +0.012 C 
ATOM     29  H   UNL     1       3.148  -2.692   5.851  0.00  0.00    -0.080 HD
BRANCH  28  30
ATOM     30  C   UNL     1       1.942  -4.947   6.059  0.00  0.00    -0.037 A 
ATOM     31  C   UNL     1       3.304  -5.088   5.867  0.00  0.00    +0.004 A 
ATOM     32  C   UNL     1       3.857  -6.347   5.734  0.00  0.00    +0.000 A 
ATOM     33  C   UNL     1       3.048  -7.468   5.794  0.00  0.00    +0.001 A 
ATOM     34  C   UNL     1       1.687  -7.328   5.986  0.00  0.00    +0.020 A 
ATOM     35  C   UNL     1       1.133  -6.068   6.125  0.00  0.00    +0.043 A 
ATOM     36 CL   UNL     1      -0.576  -5.892   6.373  0.00  0.00    -0.083 Cl
ENDBRANCH  28  30
ENDBRANCH  19  20
ENDBRANCH   2  19
TORSDOF 7
