REMARK  Name = ZINC10999820
REMARK  10 active torsions:
REMARK  status: ('A' for Active; 'I' for Inactive)
REMARK    1  A    between atoms: C_1  and  C_2
REMARK    2  A    between atoms: C_6  and  O_8
REMARK    3  A    between atoms: O_8  and  C_9
REMARK    4  A    between atoms: C_9  and  C_10
REMARK    5  A    between atoms: C_10  and  N_11
REMARK    6  A    between atoms: N_11  and  C_12
REMARK    7  A    between atoms: C_13  and  C_15
REMARK    8  A    between atoms: C_18  and  S_21
REMARK    9  A    between atoms: S_21  and  N_24
REMARK   10  A    between atoms: N_24  and  C_25
REMARK                            x       y       z     vdW  Elec       q    Type
REMARK                         _______ _______ _______ _____ _____    ______ ____
ROOT
ATOM      1  C   UNL     1      -4.558   1.050   1.800  0.00  0.00    +0.037 A 
ATOM      2  C   UNL     1      -4.872  -0.131   2.474  0.00  0.00    +0.015 A 
ATOM      3  C   UNL     1      -6.153  -0.639   2.408  0.00  0.00    +0.029 A 
ATOM      4  C   UNL     1      -7.122   0.014   1.668  0.00  0.00    +0.109 A 
ATOM      5  C   UNL     1      -6.816   1.182   0.993  0.00  0.00    +0.029 A 
ATOM      6  C   UNL     1      -5.540   1.704   1.055  0.00  0.00    +0.015 A 
ENDROOT
BRANCH   1   9
ATOM      7  N   UNL     1      -2.151   0.798   2.172  0.00  0.00    -0.297 N 
ATOM      8  C   UNL     1      -2.365  -0.642   2.335  0.00  0.00    +0.132 C 
ATOM      9  C   UNL     1      -3.188   1.603   1.870  0.00  0.00    +0.246 C 
ATOM     10  O   UNL     1      -2.998   2.784   1.655  0.00  0.00    -0.270 OA
BRANCH   7  11
ATOM     11  C   UNL     1      -0.809   1.362   2.338  0.00  0.00    +0.148 C 
BRANCH  11  12
ATOM     12  C   UNL     1      -0.085   1.362   0.991  0.00  0.00    +0.248 C 
BRANCH  12  13
ATOM     13  O   UNL     1      -0.757   2.243   0.088  0.00  0.00    -0.490 OA
BRANCH  13  19
ATOM     14  C   UNL     1      -0.965   4.223  -4.368  0.00  0.00    +0.044 C 
ATOM     15  C   UNL     1      -0.312   3.313  -3.360  0.00  0.00    -0.047 A 
ATOM     16  C   UNL     1       0.818   2.595  -3.708  0.00  0.00    +0.003 A 
ATOM     17  C   UNL     1       1.420   1.760  -2.786  0.00  0.00    +0.004 A 
ATOM     18  C   UNL     1       0.897   1.644  -1.512  0.00  0.00    +0.045 A 
ATOM     19  C   UNL     1      -0.239   2.359  -1.162  0.00  0.00    +0.121 A 
ATOM     20  C   UNL     1      -0.841   3.197  -2.090  0.00  0.00    +0.049 A 
ENDBRANCH  13  19
ENDBRANCH  12  13
ENDBRANCH  11  12
ENDBRANCH   7  11
ENDBRANCH   1   9
BRANCH   4  21
ATOM     21  S   UNL     1      -8.754  -0.645   1.584  0.00  0.00    +0.072 S 
ATOM     22  O   UNL     1      -8.928  -1.448   2.744  0.00  0.00    -0.150 OA
ATOM     23  O   UNL     1      -9.616   0.442   1.275  0.00  0.00    -0.150 OA
BRANCH  21  24
ATOM     24  N   UNL     1      -8.802  -1.671   0.286  0.00  0.00    -0.213 N 
ATOM     25  H   UNL     1      -9.401  -1.488  -0.455  0.00  0.00    +0.174 HD
BRANCH  24  26
ATOM     26  C   UNL     1      -7.980  -2.802   0.257  0.00  0.00    +0.083 A 
ATOM     27  C   UNL     1      -7.605  -3.420   1.443  0.00  0.00    +0.027 A 
ATOM     28  C   UNL     1      -6.796  -4.539   1.411  0.00  0.00    +0.002 A 
ATOM     29  C   UNL     1      -6.351  -5.040   0.202  0.00  0.00    +0.003 A 
ATOM     30  C   UNL     1      -6.718  -4.425  -0.982  0.00  0.00    +0.040 A 
ATOM     31  C   UNL     1      -7.531  -3.307  -0.958  0.00  0.00    +0.146 A 
ATOM     32  F   UNL     1      -7.888  -2.706  -2.114  0.00  0.00    -0.204 F 
ENDBRANCH  24  26
ENDBRANCH  21  24
ENDBRANCH   4  21
TORSDOF 8
