REMARK  Name = ZINC40916998
REMARK  13 active torsions:
REMARK  status: ('A' for Active; 'I' for Inactive)
REMARK    1  A    between atoms: C_1  and  C_2
REMARK    2  A    between atoms: C_2  and  O_3
REMARK    3  A    between atoms: O_3  and  C_4
REMARK    4  A    between atoms: C_4  and  C_6
REMARK    5  A    between atoms: C_7  and  C_35
REMARK    6  A    between atoms: C_14  and  C_16
REMARK    7  A    between atoms: C_21  and  O_22
REMARK    8  A    between atoms: O_22  and  C_23
REMARK    9  A    between atoms: C_23  and  C_24
REMARK   10  A    between atoms: C_27  and  C_30
REMARK   11  A    between atoms: C_30  and  C_31
REMARK   12  A    between atoms: C_30  and  C_32
REMARK   13  A    between atoms: C_30  and  C_33
REMARK                            x       y       z     vdW  Elec       q    Type
REMARK                         _______ _______ _______ _____ _____    ______ ____
ROOT
ATOM      1  C   UNL     1      -4.020  -0.555  -0.797  0.00  0.00    +0.024 A 
ATOM      2  C   UNL     1      -4.152  -1.048  -2.081  0.00  0.00    +0.025 A 
ATOM      3  C   UNL     1      -4.195  -0.178  -3.155  0.00  0.00    +0.018 A 
ATOM      4  C   UNL     1      -4.107   1.187  -2.947  0.00  0.00    +0.019 A 
ATOM      5  C   UNL     1      -3.975   1.683  -1.665  0.00  0.00    +0.047 A 
ATOM      6  C   UNL     1      -3.937   0.813  -0.585  0.00  0.00    +0.127 A 
ATOM      7 BR   UNL     1      -4.375  -0.856  -4.912  0.00  0.00    -0.050 Br
ENDROOT
BRANCH   1  16
ATOM      8  C   UNL     1      -2.795  -2.429   0.223  0.00  0.00    +0.082 C 
ATOM      9  C   UNL     1      -2.920  -3.729  -0.087  0.00  0.00    +0.020 C 
ATOM     10  N   UNL     1      -4.142  -4.320  -0.286  0.00  0.00    -0.287 N 
ATOM     11  C   UNL     1      -5.268  -3.603   0.097  0.00  0.00    +0.218 A 
ATOM     12  N   UNL     1      -6.507  -3.989   0.230  0.00  0.00    -0.201 NA
ATOM     13  C   UNL     1      -7.257  -2.956   0.628  0.00  0.00    +0.247 A 
ATOM     14  N   UNL     1      -6.498  -1.895   0.752  0.00  0.00    -0.156 NA
ATOM     15  N   UNL     1      -5.204  -2.285   0.411  0.00  0.00    -0.221 N 
ATOM     16  C   UNL     1      -3.972  -1.504   0.374  0.00  0.00    +0.182 C 
ATOM     17  C   UNL     1      -1.675  -4.568  -0.222  0.00  0.00    +0.061 C 
ATOM     18  H   UNL     1      -4.218  -5.203  -0.678  0.00  0.00    +0.155 HD
BRANCH   8  19
ATOM     19  C   UNL     1      -1.498  -1.906   0.422  0.00  0.00    +0.339 C 
ATOM     20  O   UNL     1      -1.065  -1.766   1.551  0.00  0.00    -0.245 OA
BRANCH  19  21
ATOM     21  O   UNL     1      -0.738  -1.562  -0.639  0.00  0.00    -0.462 OA
BRANCH  21  23
ATOM     22  C   UNL     1       1.269  -0.708  -1.680  0.00  0.00    +0.048 C 
ATOM     23  C   UNL     1       0.563  -1.039  -0.364  0.00  0.00    +0.229 C 
ENDBRANCH  21  23
ENDBRANCH  19  21
ENDBRANCH   8  19
ENDBRANCH   1  16
BRANCH   6  24
ATOM     24  O   UNL     1      -3.812   1.300   0.677  0.00  0.00    -0.487 OA
BRANCH  24  25
ATOM     25  C   UNL     1      -3.732   2.720   0.820  0.00  0.00    +0.264 C 
BRANCH  25  26
ATOM     26  C   UNL     1      -3.598   3.071   2.280  0.00  0.00    -0.010 A 
ATOM     27  C   UNL     1      -4.729   3.284   3.046  0.00  0.00    +0.007 A 
ATOM     28  C   UNL     1      -4.607   3.606   4.384  0.00  0.00    +0.004 A 
ATOM     29  C   UNL     1      -3.353   3.715   4.957  0.00  0.00    -0.042 A 
ATOM     30  C   UNL     1      -2.222   3.501   4.191  0.00  0.00    +0.004 A 
ATOM     31  C   UNL     1      -2.345   3.174   2.854  0.00  0.00    +0.007 A 
BRANCH  29  32
ATOM     32  C   UNL     1      -3.219   4.067   6.416  0.00  0.00    -0.013 C 
ATOM     33  C   UNL     1      -3.922   3.005   7.264  0.00  0.00    +0.015 C 
ATOM     34  C   UNL     1      -1.738   4.123   6.794  0.00  0.00    +0.015 C 
ATOM     35  C   UNL     1      -3.862   5.432   6.672  0.00  0.00    +0.015 C 
ENDBRANCH  29  32
ENDBRANCH  25  26
ENDBRANCH  24  25
ENDBRANCH   6  24
TORSDOF 8
