REMARK  Name = ZINC33618480
REMARK  14 active torsions:
REMARK  status: ('A' for Active; 'I' for Inactive)
REMARK    1  A    between atoms: C_1  and  C_2
REMARK    2  A    between atoms: C_7  and  C_8
REMARK    3  A    between atoms: C_9  and  N_25
REMARK    4  A    between atoms: C_14  and  O_17
REMARK    5  A    between atoms: O_17  and  C_18
REMARK    6  A    between atoms: C_18  and  C_19
REMARK    7  A    between atoms: N_25  and  C_26
REMARK    8  A    between atoms: C_26  and  C_27
REMARK    9  A    between atoms: C_26  and  C_28
REMARK   10  A    between atoms: C_26  and  C_29
REMARK   11  A    between atoms: C_29  and  C_30
REMARK   12  A    between atoms: C_30  and  C_31
REMARK   13  A    between atoms: C_30  and  C_32
REMARK   14  A    between atoms: C_30  and  C_33
REMARK                            x       y       z     vdW  Elec       q    Type
REMARK                         _______ _______ _______ _____ _____    ______ ____
ROOT
ATOM      1  C   UNL     1       6.171  -0.814  -4.230  0.00  0.00    +0.087 A 
ATOM      2  C   UNL     1       7.321  -1.565  -4.109  0.00  0.00    +0.129 A 
ATOM      3  N   UNL     1       7.741  -1.439  -2.814  0.00  0.00    -0.286 N 
ATOM      4  C   UNL     1       8.814  -1.959  -2.137  0.00  0.00    +0.094 A 
ATOM      5  C   UNL     1       9.008  -1.676  -0.834  0.00  0.00    +0.022 A 
ATOM      6  C   UNL     1       8.113  -0.836  -0.147  0.00  0.00    +0.051 A 
ATOM      7  C   UNL     1       7.037  -0.313  -0.802  0.00  0.00    +0.162 A 
ATOM      8  C   UNL     1       6.844  -0.618  -2.171  0.00  0.00    +0.160 A 
ATOM      9  N   UNL     1       5.912  -0.254  -3.035  0.00  0.00    -0.335 N 
ATOM     10  H   UNL     1       5.030   0.392  -2.909  0.00  0.00    +0.167 HD
ENDROOT
BRANCH   1  17
ATOM     11  C   UNL     1       3.869   0.940  -4.213  0.00  0.00    +0.044 C 
ATOM     12  C   UNL     1       4.251   0.190  -5.463  0.00  0.00    -0.041 A 
ATOM     13  C   UNL     1       3.504   0.340  -6.614  0.00  0.00    +0.004 A 
ATOM     14  C   UNL     1       3.849  -0.352  -7.761  0.00  0.00    +0.000 A 
ATOM     15  C   UNL     1       4.948  -1.194  -7.763  0.00  0.00    +0.001 A 
ATOM     16  C   UNL     1       5.705  -1.347  -6.620  0.00  0.00    +0.010 A 
ATOM     17  C   UNL     1       5.362  -0.652  -5.461  0.00  0.00    +0.005 A 
ENDBRANCH   1  17
BRANCH   2  18
ATOM     18  N   UNL     1       7.938  -2.310  -5.114  0.00  0.00    -0.323 N 
ATOM     19  H   UNL     1       7.582  -2.527  -6.132  0.00  0.00    +0.148 HD
BRANCH  18  20
ATOM     20  C   UNL     1       9.233  -2.836  -4.661  0.00  0.00    +0.028 C 
ATOM     21  C   UNL     1      10.058  -1.701  -4.050  0.00  0.00    +0.031 C 
ATOM     22  C   UNL     1       9.002  -3.922  -3.608  0.00  0.00    +0.031 C 
BRANCH  20  23
ATOM     23  C   UNL     1       9.987  -3.431  -5.851  0.00  0.00    +0.031 C 
BRANCH  23  24
ATOM     24  C   UNL     1      11.250  -4.136  -5.354  0.00  0.00    -0.036 C 
ATOM     25  C   UNL     1      10.870  -5.467  -4.704  0.00  0.00    +0.010 C 
ATOM     26  C   UNL     1      12.188  -4.395  -6.535  0.00  0.00    +0.010 C 
ATOM     27  C   UNL     1      11.958  -3.250  -4.327  0.00  0.00    +0.010 C 
ENDBRANCH  23  24
ENDBRANCH  20  23
ENDBRANCH  18  20
ENDBRANCH   2  18
BRANCH   7  28
ATOM     28  O   UNL     1       6.162   0.496  -0.149  0.00  0.00    -0.484 OA
BRANCH  28  29
ATOM     29  C   UNL     1       6.426   0.756   1.231  0.00  0.00    +0.264 C 
BRANCH  29  30
ATOM     30  C   UNL     1       5.358   1.666   1.784  0.00  0.00    -0.010 A 
ATOM     31  C   UNL     1       4.214   1.128   2.342  0.00  0.00    +0.007 A 
ATOM     32  C   UNL     1       3.235   1.962   2.848  0.00  0.00    +0.000 A 
ATOM     33  C   UNL     1       3.400   3.334   2.797  0.00  0.00    +0.000 A 
ATOM     34  C   UNL     1       4.545   3.871   2.239  0.00  0.00    +0.000 A 
ATOM     35  C   UNL     1       5.524   3.037   1.732  0.00  0.00    +0.007 A 
ENDBRANCH  29  30
ENDBRANCH  28  29
ENDBRANCH   7  28
TORSDOF 8
