REMARK  Name = ZINC66699543
REMARK  8 active torsions:
REMARK  status: ('A' for Active; 'I' for Inactive)
REMARK    1  A    between atoms: C_1  and  C_2
REMARK    2  A    between atoms: C_5  and  C_28
REMARK    3  A    between atoms: N_8  and  C_10
REMARK    4  A    between atoms: C_10  and  C_11
REMARK    5  A    between atoms: C_11  and  N_12
REMARK    6  A    between atoms: N_15  and  C_16
REMARK    7  A    between atoms: C_16  and  C_17
REMARK    8  A    between atoms: C_21  and  C_23
REMARK                            x       y       z     vdW  Elec       q    Type
REMARK                         _______ _______ _______ _____ _____    ______ ____
ROOT
ATOM      1  N   UNL     1       2.819  -0.203   4.893  0.00  0.00    -0.301 N 
ATOM      2  C   UNL     1       2.398   0.248   6.091  0.00  0.00    +0.300 C 
ATOM      3  O   UNL     1       1.450   1.007   6.155  0.00  0.00    -0.253 OA
ATOM      4  N   UNL     1       3.026  -0.142   7.217  0.00  0.00    -0.292 N 
ATOM      5  H   UNL     1       3.575  -0.809   4.842  0.00  0.00    +0.150 HD
ATOM      6  H   UNL     1       3.782  -0.748   7.166  0.00  0.00    +0.151 HD
ENDROOT
BRANCH   1   7
ATOM      7  C   UNL     1       2.136   0.221   3.668  0.00  0.00    +0.087 C 
BRANCH   7   8
ATOM      8  C   UNL     1       2.808  -0.431   2.458  0.00  0.00    -0.060 C 
BRANCH   8  14
ATOM      9  C   UNL     1      -0.019   1.526   0.010  0.00  0.00    +0.005 C 
ATOM     10  C   UNL     1       0.002  -0.004   0.002  0.00  0.00    -0.031 C 
ATOM     11  C   UNL     1       0.721  -0.499  -1.257  0.00  0.00    +0.003 C 
ATOM     12  C   UNL     1       2.177  -0.027  -1.220  0.00  0.00    -0.031 C 
ATOM     13  C   UNL     1       2.839  -0.534   0.063  0.00  0.00    -0.076 C 
ATOM     14  N   UNL     1       2.123  -0.005   1.230  0.00  0.00    +0.381 N 
ATOM     15  C   UNL     1       0.744  -0.512   1.240  0.00  0.00    -0.076 C 
ATOM     16  C   UNL     1       2.924  -0.581  -2.434  0.00  0.00    +0.005 C 
ATOM     17  H   UNL     1       2.109   1.003   1.187  0.00  0.00    -0.082 HD
ENDBRANCH   8  14
ENDBRANCH   7   8
ENDBRANCH   1   7
BRANCH   4  18
ATOM     18  C   UNL     1       2.568   0.348   8.519  0.00  0.00    +0.184 C 
BRANCH  18  19
ATOM     19  C   UNL     1       3.433  -0.233   9.608  0.00  0.00    +0.168 A 
ATOM     20  N   UNL     1       3.207  -1.360  10.231  0.00  0.00    -0.156 NA
ATOM     21  H   UNL     1       4.359  -2.273  11.777  0.00  0.00    +0.191 HD
ATOM     22  N   UNL     1       4.244  -1.532  11.163  0.00  0.00    -0.258 N 
ATOM     23  C   UNL     1       5.056  -0.448  11.029  0.00  0.00    +0.163 A 
ATOM     24  N   UNL     1       4.547   0.318  10.081  0.00  0.00    -0.209 NA
BRANCH  23  25
ATOM     25  C   UNL     1       6.282  -0.181  11.798  0.00  0.00    +0.056 A 
ATOM     26  C   UNL     1       7.138   0.889  11.716  0.00  0.00    +0.019 A 
ATOM     27  C   UNL     1       8.234   0.923  12.547  0.00  0.00    +0.008 A 
ATOM     28  C   UNL     1       8.436  -0.100  13.420  0.00  0.00    +0.046 A 
ATOM     29  S   UNL     1       7.040  -1.160  13.085  0.00  0.00    -0.094 S 
ENDBRANCH  23  25
ENDBRANCH  18  19
ENDBRANCH   4  18
TORSDOF 6
