REMARK  Name = ZINC40375563
REMARK  6 active torsions:
REMARK  status: ('A' for Active; 'I' for Inactive)
REMARK    1  A    between atoms: C_1  and  C_2
REMARK    2  A    between atoms: C_2  and  C_3
REMARK    3  A    between atoms: C_3  and  N_4
REMARK    4  A    between atoms: N_7  and  C_8
REMARK    5  A    between atoms: C_8  and  C_16
REMARK    6  A    between atoms: N_17  and  O_18
REMARK                            x       y       z     vdW  Elec       q    Type
REMARK                         _______ _______ _______ _____ _____    ______ ____
ROOT
ATOM      1  C   UNL     1       1.963  -4.806   3.304  0.00  0.00    +0.094 C 
ATOM      2  C   UNL     1       1.503  -4.471   4.700  0.00  0.00    +0.033 C 
ATOM      3  C   UNL     1       0.105  -4.867   5.135  0.00  0.00    +0.002 C 
ATOM      4  C   UNL     1      -0.981  -4.398   4.163  0.00  0.00    +0.000 C 
ATOM      5  C   UNL     1      -1.593  -5.633   3.477  0.00  0.00    +0.000 C 
ATOM      6  C   UNL     1      -0.629  -6.186   2.427  0.00  0.00    +0.000 C 
ATOM      7  C   UNL     1       0.509  -6.922   3.130  0.00  0.00    +0.002 C 
ATOM      8  C   UNL     1       1.852  -6.263   2.905  0.00  0.00    +0.033 C 
ENDROOT
BRANCH   1  12
ATOM      9  N   UNL     1       1.145  -3.257   0.073  0.00  0.00    -0.299 N 
ATOM     10  C   UNL     1       1.764  -3.997   1.014  0.00  0.00    +0.300 C 
ATOM     11  O   UNL     1       2.682  -4.732   0.704  0.00  0.00    -0.253 OA
ATOM     12  N   UNL     1       1.366  -3.922   2.300  0.00  0.00    -0.287 N 
ATOM     13  H   UNL     1       0.413  -2.671   0.320  0.00  0.00    +0.150 HD
ATOM     14  H   UNL     1       0.684  -3.283   2.560  0.00  0.00    +0.151 HD
BRANCH   9  15
ATOM     15  C   UNL     1       1.578  -3.339  -1.325  0.00  0.00    +0.105 C 
BRANCH  15  17
ATOM     16  C   UNL     1       1.169  -2.492  -3.639  0.00  0.00    +0.005 C 
ATOM     17  C   UNL     1       0.717  -2.407  -2.180  0.00  0.00    +0.015 C 
ENDBRANCH  15  17
ENDBRANCH   9  15
ENDBRANCH   1  12
BRANCH   1  18
ATOM     18  C   UNL     1       3.467  -4.480   3.266  0.00  0.00    +0.155 C 
ATOM     19  N   UNL     1       4.320  -5.399   2.956  0.00  0.00    -0.075 NA
ATOM     20  N   UNL     1       3.904  -3.208   3.563  0.00  0.00    -0.342 N 
ATOM     21  H   UNL     1       3.261  -2.500   3.723  0.00  0.00    +0.144 HD
ATOM     22  H   UNL     1       4.854  -3.021   3.612  0.00  0.00    +0.144 HD
BRANCH  19  23
ATOM     23  O   UNL     1       5.703  -5.100   2.921  0.00  0.00    -0.408 OA
ATOM     24  H   UNL     1       6.262  -5.850   2.678  0.00  0.00    +0.328 HD
ENDBRANCH  19  23
ENDBRANCH   1  18
TORSDOF 5
