REMARK  Name = ZINC12542668
REMARK  18 active torsions:
REMARK  status: ('A' for Active; 'I' for Inactive)
REMARK    1  A    between atoms: C_1  and  C_2
REMARK    2  A    between atoms: C_2  and  C_3
REMARK    3  A    between atoms: C_2  and  C_4
REMARK    4  A    between atoms: C_4  and  N_5
REMARK    5  A    between atoms: C_6  and  N_36
REMARK    6  A    between atoms: C_7  and  N_14
REMARK    7  A    between atoms: N_14  and  C_15
REMARK    8  A    between atoms: C_15  and  C_16
REMARK    9  A    between atoms: C_16  and  C_17
REMARK   10  A    between atoms: C_16  and  C_18
REMARK   11  A    between atoms: C_19  and  C_21
REMARK   12  A    between atoms: C_21  and  N_71
REMARK   13  A    between atoms: C_22  and  N_71
REMARK   14  A    between atoms: C_23  and  C_24
REMARK   15  A    between atoms: C_23  and  N_71
REMARK   16  A    between atoms: N_26  and  C_27
REMARK   17  A    between atoms: C_32  and  O_33
REMARK   18  A    between atoms: O_33  and  C_34
REMARK                            x       y       z     vdW  Elec       q    Type
REMARK                         _______ _______ _______ _____ _____    ______ ____
ROOT
ATOM      1  N   UNL     1       5.386  10.709   0.104  0.00  0.00    -0.266 N 
ATOM      2  C   UNL     1       4.209  10.055   0.019  0.00  0.00    +0.203 C 
ATOM      3  O   UNL     1       3.171  10.644   0.238  0.00  0.00    -0.277 OA
ENDROOT
BRANCH   1   6
ATOM      4  N   UNL     1       4.877  14.346   0.221  0.00  0.00    -0.280 N 
ATOM      5  C   UNL     1       4.831  13.046  -0.224  0.00  0.00    +0.127 A 
ATOM      6  C   UNL     1       5.418  12.053   0.534  0.00  0.00    +0.140 A 
ATOM      7  C   UNL     1       6.043  12.403   1.745  0.00  0.00    +0.277 A 
ATOM      8  O   UNL     1       6.565  11.545   2.436  0.00  0.00    -0.266 OA
ATOM      9  N   UNL     1       6.065  13.693   2.133  0.00  0.00    -0.273 N 
ATOM     10  H   UNL     1       6.516  13.944   2.990  0.00  0.00    +0.173 HD
ATOM     11  C   UNL     1       5.488  14.647   1.381  0.00  0.00    +0.331 A 
ATOM     12  O   UNL     1       5.518  15.803   1.757  0.00  0.00    -0.246 OA
BRANCH   5  13
ATOM     13  N   UNL     1       4.207  12.738  -1.410  0.00  0.00    -0.343 N 
ATOM     14  H   UNL     1       4.119  11.813  -1.686  0.00  0.00    +0.144 HD
ATOM     15  H   UNL     1       3.855  13.447  -1.971  0.00  0.00    +0.144 HD
ENDBRANCH   5  13
BRANCH   4  16
ATOM     16  C   UNL     1       4.258  15.410  -0.573  0.00  0.00    +0.131 C 
BRANCH  16  18
ATOM     17  C   UNL     1       2.188  16.775  -0.884  0.00  0.00    +0.009 C 
ATOM     18  C   UNL     1       2.799  15.584  -0.144  0.00  0.00    +0.003 C 
ATOM     19  C   UNL     1       2.014  14.315  -0.484  0.00  0.00    +0.009 C 
ENDBRANCH  16  18
ENDBRANCH   4  16
ENDBRANCH   1   6
BRANCH   1  20
ATOM     20  C   UNL     1       6.632  10.024  -0.249  0.00  0.00    +0.117 C 
BRANCH  20  21
ATOM     21  C   UNL     1       6.871  10.145  -1.755  0.00  0.00    +0.001 C 
ATOM     22  C   UNL     1       7.135  11.609  -2.114  0.00  0.00    +0.009 C 
ATOM     23  C   UNL     1       8.083   9.298  -2.149  0.00  0.00    +0.009 C 
ENDBRANCH  20  21
ENDBRANCH   1  20
BRANCH   2  24
ATOM     24  C   UNL     1       4.184   8.594  -0.347  0.00  0.00    +0.019 C 
BRANCH  24  26
ATOM     25  C   UNL     1       2.037   8.765  -1.454  0.00  0.00    -0.095 C 
ATOM     26  N   UNL     1       2.781   8.127  -0.348  0.00  0.00    +0.389 N 
ATOM     27  H   UNL     1       2.343   8.388   0.543  0.00  0.00    -0.081 HD
BRANCH  26  28
ATOM     28  C   UNL     1       2.739   6.657  -0.492  0.00  0.00    +0.019 C 
BRANCH  28  29
ATOM     29  C   UNL     1       1.324   6.187  -0.269  0.00  0.00    +0.201 C 
ATOM     30  O   UNL     1       0.448   6.992  -0.034  0.00  0.00    -0.278 OA
ATOM     31  N   UNL     1       1.032   4.873  -0.331  0.00  0.00    -0.284 N 
ATOM     32  H   UNL     1       1.742   4.224  -0.459  0.00  0.00    +0.155 HD
BRANCH  31  33
ATOM     33  C   UNL     1      -0.296   4.443  -0.210  0.00  0.00    +0.077 A 
ATOM     34  C   UNL     1      -1.192   5.166   0.564  0.00  0.00    +0.047 A 
ATOM     35  C   UNL     1      -2.503   4.740   0.681  0.00  0.00    +0.043 A 
ATOM     36  C   UNL     1      -2.924   3.597   0.024  0.00  0.00    +0.024 A 
ATOM     37  C   UNL     1      -2.033   2.869  -0.743  0.00  0.00    +0.049 A 
ATOM     38  C   UNL     1      -0.719   3.289  -0.866  0.00  0.00    +0.141 A 
ATOM     39 CL   UNL     1      -3.624   5.645   1.649  0.00  0.00    -0.083 Cl
BRANCH  38  40
ATOM     40  O   UNL     1       0.156   2.578  -1.625  0.00  0.00    -0.493 OA
ATOM     41  C   UNL     1      -0.348   1.406  -2.269  0.00  0.00    +0.277 C 
ENDBRANCH  38  40
ENDBRANCH  31  33
ENDBRANCH  28  29
ENDBRANCH  26  28
ENDBRANCH  24  26
ENDBRANCH   2  24
TORSDOF 12
