REMARK  Name = ZINC35292274
REMARK  9 active torsions:
REMARK  status: ('A' for Active; 'I' for Inactive)
REMARK    1  A    between atoms: C_1  and  C_2
REMARK    2  A    between atoms: C_5  and  C_7
REMARK    3  A    between atoms: C_7  and  C_9
REMARK    4  A    between atoms: C_7  and  N_19
REMARK    5  A    between atoms: N_11  and  C_12
REMARK    6  A    between atoms: C_12  and  C_13
REMARK    7  A    between atoms: N_19  and  C_20
REMARK    8  A    between atoms: C_20  and  C_21
REMARK    9  A    between atoms: C_27  and  C_29
REMARK                            x       y       z     vdW  Elec       q    Type
REMARK                         _______ _______ _______ _____ _____    ______ ____
ROOT
ATOM      1  C   UNL     1       1.698  -3.260  -0.012  0.00  0.00    +0.229 C 
ENDROOT
BRANCH   1   6
ATOM      2  C   UNL     1       0.072   1.494  -0.449  0.00  0.00    +0.086 C 
ATOM      3  C   UNL     1       0.121   0.033  -0.086  0.00  0.00    +0.102 A 
ATOM      4  C   UNL     1      -0.832  -0.646   0.577  0.00  0.00    +0.045 A 
ATOM      5  C   UNL     1      -0.376  -1.979   0.700  0.00  0.00    +0.047 A 
ATOM      6  C   UNL     1       0.828  -2.035   0.103  0.00  0.00    +0.135 A 
ATOM      7  O   UNL     1       1.122  -0.815  -0.376  0.00  0.00    -0.462 OA
ENDBRANCH   1   6
BRANCH   1   8
ATOM      8  C   UNL     1       2.321  -3.562   1.326  0.00  0.00    +0.241 C 
ATOM      9  O   UNL     1       3.528  -3.574   1.445  0.00  0.00    -0.273 OA
ATOM     10  N   UNL     1       1.536  -3.819   2.392  0.00  0.00    -0.309 N 
ATOM     11  H   UNL     1       0.571  -3.810   2.297  0.00  0.00    +0.149 HD
BRANCH  10  12
ATOM     12  C   UNL     1       2.142  -4.113   3.693  0.00  0.00    +0.139 C 
BRANCH  12  13
ATOM     13  C   UNL     1       1.055  -4.362   4.707  0.00  0.00    -0.030 A 
ATOM     14  C   UNL     1       0.538  -3.310   5.439  0.00  0.00    +0.005 A 
ATOM     15  C   UNL     1      -0.458  -3.538   6.370  0.00  0.00    +0.000 A 
ATOM     16  C   UNL     1      -0.938  -4.819   6.568  0.00  0.00    +0.000 A 
ATOM     17  C   UNL     1      -0.421  -5.872   5.836  0.00  0.00    +0.000 A 
ATOM     18  C   UNL     1       0.572  -5.643   4.902  0.00  0.00    +0.005 A 
ENDBRANCH  12  13
ENDBRANCH  10  12
ENDBRANCH   1   8
BRANCH   1  19
ATOM     19  N   UNL     1       2.754  -3.018  -0.999  0.00  0.00    -0.274 N 
ATOM     20  C   UNL     1       3.623  -2.004  -0.820  0.00  0.00    +0.269 C 
ATOM     21  O   UNL     1       4.442  -1.746  -1.681  0.00  0.00    -0.268 OA
BRANCH  20  22
ATOM     22  C   UNL     1       3.581  -1.206   0.420  0.00  0.00    +0.156 A 
ATOM     23  C   UNL     1       4.509  -0.222   0.713  0.00  0.00    +0.101 A 
ATOM     24  S   UNL     1       3.972   0.327   2.206  0.00  0.00    +0.029 S 
ATOM     25  N   UNL     1       2.685  -0.631   2.403  0.00  0.00    -0.110 NA
ATOM     26  N   UNL     1       2.646  -1.366   1.348  0.00  0.00    -0.136 NA
ENDBRANCH  20  22
BRANCH  19  27
ATOM     27  C   UNL     1       2.865  -3.878  -2.179  0.00  0.00    +0.144 C 
BRANCH  27  28
ATOM     28  C   UNL     1       2.036  -3.304  -3.299  0.00  0.00    -0.030 A 
ATOM     29  C   UNL     1       0.710  -3.671  -3.436  0.00  0.00    +0.005 A 
ATOM     30  C   UNL     1      -0.050  -3.144  -4.463  0.00  0.00    +0.000 A 
ATOM     31  C   UNL     1       0.515  -2.250  -5.353  0.00  0.00    +0.000 A 
ATOM     32  C   UNL     1       1.840  -1.883  -5.216  0.00  0.00    +0.000 A 
ATOM     33  C   UNL     1       2.600  -2.406  -4.186  0.00  0.00    +0.005 A 
ENDBRANCH  27  28
ENDBRANCH  19  27
ENDBRANCH   1  19
TORSDOF 8
