REMARK  Name = ZINC09882619
REMARK  4 active torsions:
REMARK  status: ('A' for Active; 'I' for Inactive)
REMARK    1  A    between atoms: C_4  and  C_7
REMARK    2  A    between atoms: C_7  and  C_24
REMARK    3  A    between atoms: N_10  and  N_14
REMARK    4  A    between atoms: C_15  and  C_17
REMARK                            x       y       z     vdW  Elec       q    Type
REMARK                         _______ _______ _______ _____ _____    ______ ____
ROOT
ATOM      1  C   UNL     1       1.389   1.782  -0.002  0.00  0.00    +0.165 C 
ATOM      2  C   UNL     1       2.525   1.123  -0.759  0.00  0.00    +0.272 C 
ATOM      3  O   UNL     1       3.457   1.673  -1.306  0.00  0.00    -0.270 OA
ATOM      4  N   UNL     1       2.284  -0.202  -0.699  0.00  0.00    -0.137 N 
ATOM      5  C   UNL     1       1.165  -0.469  -0.015  0.00  0.00    +0.327 C 
ATOM      6  O   UNL     1       0.741  -1.592   0.174  0.00  0.00    -0.251 OA
ATOM      7  N   UNL     1       0.562   0.645   0.439  0.00  0.00    -0.276 N 
ATOM      8  H   UNL     1      -0.259   0.691   0.953  0.00  0.00    +0.152 HD
ENDROOT
BRANCH   1  12
ATOM      9  C   UNL     1      -0.843   4.355  -2.579  0.00  0.00    +0.000 A 
ATOM     10  C   UNL     1       0.536   4.444  -2.538  0.00  0.00    +0.000 A 
ATOM     11  C   UNL     1       1.258   3.612  -1.704  0.00  0.00    +0.006 A 
ATOM     12  C   UNL     1       0.602   2.689  -0.911  0.00  0.00    -0.011 A 
ATOM     13  C   UNL     1      -0.777   2.596  -0.956  0.00  0.00    +0.006 A 
ATOM     14  C   UNL     1      -1.499   3.432  -1.786  0.00  0.00    +0.000 A 
ENDBRANCH   1  12
BRANCH   1  15
ATOM     15  C   UNL     1       1.917   2.546   1.186  0.00  0.00    -0.011 A 
ATOM     16  C   UNL     1       2.923   3.478   1.016  0.00  0.00    +0.006 A 
ATOM     17  C   UNL     1       3.404   4.182   2.104  0.00  0.00    +0.000 A 
ATOM     18  C   UNL     1       2.885   3.947   3.364  0.00  0.00    +0.000 A 
ATOM     19  C   UNL     1       1.882   3.011   3.534  0.00  0.00    +0.000 A 
ATOM     20  C   UNL     1       1.398   2.310   2.445  0.00  0.00    +0.006 A 
ENDBRANCH   1  15
BRANCH   4  21
ATOM     21  N   UNL     1       3.103  -1.178  -1.280  0.00  0.00    -0.223 N 
ATOM     22  C   UNL     1       2.713  -1.798  -2.412  0.00  0.00    +0.233 C 
ATOM     23  O   UNL     1       1.653  -1.510  -2.926  0.00  0.00    -0.274 OA
ATOM     24  H   UNL     1       3.950  -1.408  -0.869  0.00  0.00    +0.174 HD
BRANCH  22  25
ATOM     25  C   UNL     1       3.594  -2.849  -3.038  0.00  0.00    +0.080 C 
ATOM     26  C   UNL     1       2.913  -3.413  -4.291  0.00  0.00    +0.017 C 
ATOM     27  C   UNL     1       3.900  -4.341  -5.002  0.00  0.00    +0.027 C 
ATOM     28  C   UNL     1       4.492  -5.312  -4.023  0.00  0.00    -0.031 C 
ATOM     29  C   UNL     1       4.457  -5.160  -2.738  0.00  0.00    -0.030 C 
ATOM     30  C   UNL     1       3.810  -3.995  -2.047  0.00  0.00    +0.039 C 
ENDBRANCH  22  25
ENDBRANCH   4  21
TORSDOF 4
