REMARK  Name = ZINC04959415
REMARK  4 active torsions:
REMARK  status: ('A' for Active; 'I' for Inactive)
REMARK    1  A    between atoms: C_1  and  O_2
REMARK    2  A    between atoms: O_2  and  C_3
REMARK    3  A    between atoms: C_8  and  C_9
REMARK    4  A    between atoms: C_20  and  N_25
REMARK                            x       y       z     vdW  Elec       q    Type
REMARK                         _______ _______ _______ _____ _____    ______ ____
ROOT
ATOM      1  C   UNL     1       1.655  -1.787   0.288  0.00  0.00    +0.108 C 
ATOM      2  C   UNL     1       1.356  -0.346   0.693  0.00  0.00    +0.029 C 
ATOM      3  C   UNL     1       2.205   0.740   0.020  0.00  0.00    +0.033 C 
ATOM      4  C   UNL     1       1.234   1.922   0.001  0.00  0.00    -0.030 C 
ATOM      5  C   UNL     1      -0.018   1.481   0.010  0.00  0.00    -0.023 C 
ATOM      6  C   UNL     1       0.002  -0.004   0.002  0.00  0.00    +0.049 C 
ATOM      7  C   UNL     1      -1.044  -0.804   0.675  0.00  0.00    -0.017 A 
ATOM      8  C   UNL     1      -2.323  -0.331   0.876  0.00  0.00    +0.038 A 
ATOM      9  C   UNL     1      -3.269  -1.122   1.500  0.00  0.00    +0.127 A 
ATOM     10  C   UNL     1      -2.935  -2.395   1.924  0.00  0.00    +0.034 A 
ATOM     11  C   UNL     1      -1.657  -2.876   1.732  0.00  0.00    +0.025 A 
ATOM     12  C   UNL     1      -0.696  -2.087   1.111  0.00  0.00    +0.032 A 
ATOM     13  N   UNL     1       0.601  -2.590   0.946  0.00  0.00    -0.336 N 
ATOM     14  H   UNL     1       0.811  -3.480   1.268  0.00  0.00    +0.147 HD
ENDROOT
BRANCH   1  20
ATOM     15  C   UNL     1       4.147  -1.910   0.045  0.00  0.00    +0.125 A 
ATOM     16  C   UNL     1       5.398  -2.287   0.512  0.00  0.00    +0.047 A 
ATOM     17  C   UNL     1       5.511  -2.962   1.712  0.00  0.00    +0.019 A 
ATOM     18  C   UNL     1       4.379  -3.257   2.451  0.00  0.00    +0.018 A 
ATOM     19  C   UNL     1       3.132  -2.877   1.990  0.00  0.00    +0.024 A 
ATOM     20  C   UNL     1       3.014  -2.201   0.790  0.00  0.00    +0.016 A 
ATOM     21 BR   UNL     1       4.537  -4.181   4.093  0.00  0.00    -0.050 Br
BRANCH  15  23
ATOM     22  C   UNL     1       5.242  -0.985  -1.852  0.00  0.00    +0.277 C 
ATOM     23  O   UNL     1       4.033  -1.251  -1.138  0.00  0.00    -0.495 OA
ENDBRANCH  15  23
ENDBRANCH   1  20
BRANCH   9  24
ATOM     24  N   UNL     1      -4.640  -0.606   1.714  0.00  0.00    +0.056 N 
ATOM     25  O   UNL     1      -5.474  -1.304   2.263  0.00  0.00    -0.126 OA
ATOM     26  O   UNL     1      -4.934   0.515   1.340  0.00  0.00    -0.126 OA
ENDBRANCH   9  24
TORSDOF 3
