REMARK  Name = ZINC08578655
REMARK  11 active torsions:
REMARK  status: ('A' for Active; 'I' for Inactive)
REMARK    1  A    between atoms: C_1  and  C_2
REMARK    2  A    between atoms: C_2  and  O_3
REMARK    3  A    between atoms: O_3  and  C_4
REMARK    4  A    between atoms: C_6  and  C_11
REMARK    5  A    between atoms: C_9  and  O_10
REMARK    6  A    between atoms: C_13  and  C_25
REMARK    7  A    between atoms: C_15  and  C_20
REMARK    8  A    between atoms: C_15  and  O_24
REMARK    9  A    between atoms: C_25  and  O_27
REMARK   10  A    between atoms: O_27  and  C_28
REMARK   11  A    between atoms: C_28  and  C_29
REMARK                            x       y       z     vdW  Elec       q    Type
REMARK                         _______ _______ _______ _____ _____    ______ ____
ROOT
ATOM      1  C   UNL     1      -0.784  -4.144   0.405  0.00  0.00    +0.121 C 
ATOM      2  C   UNL     1      -1.711  -5.222  -0.166  0.00  0.00    +0.181 C 
ATOM      3  C   UNL     1      -0.852  -6.292  -0.849  0.00  0.00    +0.244 C 
ATOM      4  N   UNL     1       0.128  -6.805   0.109  0.00  0.00    -0.291 N 
ATOM      5  C   UNL     1       0.596  -6.039   1.106  0.00  0.00    +0.133 C 
ATOM      6  N   UNL     1       0.193  -4.772   1.296  0.00  0.00    -0.319 N 
ATOM      7  S   UNL     1       1.753  -6.702   2.179  0.00  0.00    -0.019 S 
ATOM      8  H   UNL     1       0.447  -7.717   0.021  0.00  0.00    +0.151 HD
ATOM      9  H   UNL     1       0.555  -4.263   2.038  0.00  0.00    +0.148 HD
ENDROOT
BRANCH   1  12
ATOM     10  C   UNL     1      -0.025  -1.782  -2.443  0.00  0.00    +0.162 A 
ATOM     11  C   UNL     1      -0.685  -2.421  -1.406  0.00  0.00    +0.055 A 
ATOM     12  C   UNL     1      -0.065  -3.450  -0.722  0.00  0.00    -0.023 A 
ATOM     13  C   UNL     1       1.215  -3.842  -1.069  0.00  0.00    +0.009 A 
ATOM     14  C   UNL     1       1.880  -3.208  -2.102  0.00  0.00    +0.049 A 
ATOM     15  C   UNL     1       1.261  -2.180  -2.796  0.00  0.00    +0.158 A 
BRANCH  15  16
ATOM     16  O   UNL     1       1.911  -1.559  -3.816  0.00  0.00    -0.503 OA
ATOM     17  H   UNL     1       2.437  -0.796  -3.541  0.00  0.00    +0.292 HD
ENDBRANCH  15  16
BRANCH  10  18
ATOM     18  O   UNL     1      -0.634  -0.770  -3.118  0.00  0.00    -0.489 OA
BRANCH  18  20
ATOM     19  C   UNL     1      -2.471   0.734  -3.570  0.00  0.00    +0.048 C 
ATOM     20  C   UNL     1      -1.953  -0.414  -2.701  0.00  0.00    +0.226 C 
ENDBRANCH  18  20
ENDBRANCH  10  18
ENDBRANCH   1  12
BRANCH   3  21
ATOM     21  C   UNL     1      -1.747  -7.437  -1.328  0.00  0.00    +0.436 C 
ATOM     22  F   UNL     1      -2.780  -6.923  -2.119  0.00  0.00    -0.166 F 
ATOM     23  F   UNL     1      -0.987  -8.339  -2.081  0.00  0.00    -0.166 F 
ATOM     24  F   UNL     1      -2.291  -8.097  -0.221  0.00  0.00    -0.166 F 
ENDBRANCH   3  21
BRANCH   3  25
ATOM     25  O   UNL     1      -0.172  -5.717  -1.967  0.00  0.00    -0.364 OA
ATOM     26  H   UNL     1       0.391  -6.339  -2.447  0.00  0.00    +0.212 HD
ENDBRANCH   3  25
BRANCH   2  27
ATOM     27  C   UNL     1      -2.510  -5.846   0.949  0.00  0.00    +0.317 C 
ATOM     28  O   UNL     1      -2.072  -5.854   2.075  0.00  0.00    -0.250 OA
BRANCH  27  29
ATOM     29  O   UNL     1      -3.709  -6.392   0.691  0.00  0.00    -0.465 OA
BRANCH  29  30
ATOM     30  C   UNL     1      -4.412  -6.965   1.796  0.00  0.00    +0.229 C 
ATOM     31  C   UNL     1      -5.747  -7.533   1.312  0.00  0.00    +0.048 C 
ENDBRANCH  29  30
ENDBRANCH  27  29
ENDBRANCH   2  27
TORSDOF 9
