REMARK  Name = ZINC46752309
REMARK  9 active torsions:
REMARK  status: ('A' for Active; 'I' for Inactive)
REMARK    1  A    between atoms: C_1  and  C_2
REMARK    2  A    between atoms: N_7  and  C_9
REMARK    3  A    between atoms: C_9  and  C_10
REMARK    4  A    between atoms: C_10  and  C_11
REMARK    5  A    between atoms: C_11  and  C_12
REMARK    6  A    between atoms: C_12  and  N_13
REMARK    7  A    between atoms: N_16  and  N_17
REMARK    8  A    between atoms: N_17  and  C_18
REMARK    9  A    between atoms: C_18  and  C_25
REMARK                            x       y       z     vdW  Elec       q    Type
REMARK                         _______ _______ _______ _____ _____    ______ ____
ROOT
ATOM      1  N   UNL     1       2.541  -6.501   5.081  0.00  0.00    -0.298 N 
ATOM      2  C   UNL     1       2.580  -7.822   5.347  0.00  0.00    +0.313 C 
ATOM      3  O   UNL     1       2.081  -8.613   4.570  0.00  0.00    -0.252 OA
ATOM      4  N   UNL     1       3.172  -8.266   6.473  0.00  0.00    -0.234 N 
ATOM      5  H   UNL     1       2.939  -5.870   5.701  0.00  0.00    +0.150 HD
ATOM      6  H   UNL     1       3.200  -9.216   6.664  0.00  0.00    +0.171 HD
ENDROOT
BRANCH   4   7
ATOM      7  N   UNL     1       3.733  -7.377   7.346  0.00  0.00    -0.232 NA
ATOM      8  H   UNL     1       4.419  -6.800   6.883  0.00  0.00    +0.145 HD
BRANCH   7   9
ATOM      9  C   UNL     1       4.319  -8.071   8.500  0.00  0.00    +0.054 C 
ATOM     10  C   UNL     1       3.238  -8.926   9.159  0.00  0.00    +0.047 C 
ATOM     11  C   UNL     1       3.535  -9.097  10.675  0.00  0.00    +0.168 C 
ATOM     12  S   UNL     1       4.137  -7.395  11.064  0.00  0.00    -0.029 S 
ATOM     13  O   UNL     1       3.021  -6.534  11.245  0.00  0.00    -0.174 OA
ATOM     14  O   UNL     1       5.136  -7.472  12.072  0.00  0.00    -0.174 OA
ATOM     15  C   UNL     1       4.934  -7.022   9.447  0.00  0.00    +0.189 C 
ATOM     16  C   UNL     1       5.433  -8.994   8.001  0.00  0.00    +0.031 C 
ENDBRANCH   7   9
ENDBRANCH   4   7
BRANCH   1  17
ATOM     17  C   UNL     1       1.898  -6.019   3.857  0.00  0.00    +0.105 C 
BRANCH  17  18
ATOM     18  C   UNL     1       1.992  -4.493   3.798  0.00  0.00    +0.017 C 
BRANCH  18  19
ATOM     19  C   UNL     1       1.320  -3.989   2.519  0.00  0.00    -0.017 C 
BRANCH  19  20
ATOM     20  C   UNL     1       1.413  -2.463   2.461  0.00  0.00    -0.079 C 
BRANCH  20  26
ATOM     21  C   UNL     1      -0.019   1.526   0.010  0.00  0.00    +0.005 C 
ATOM     22  C   UNL     1       0.002  -0.004   0.002  0.00  0.00    -0.031 C 
ATOM     23  C   UNL     1       0.721  -0.499  -1.257  0.00  0.00    -0.001 C 
ATOM     24  C   UNL     1       0.805  -2.027  -1.217  0.00  0.00    -0.018 C 
ATOM     25  C   UNL     1       1.518  -2.460   0.066  0.00  0.00    -0.079 C 
ATOM     26  N   UNL     1       0.768  -1.979   1.233  0.00  0.00    +0.380 N 
ATOM     27  C   UNL     1       0.744  -0.512   1.240  0.00  0.00    -0.076 C 
ATOM     28  H   UNL     1      -0.177  -2.330   1.192  0.00  0.00    -0.082 HD
ENDBRANCH  20  26
ENDBRANCH  19  20
ENDBRANCH  18  19
ENDBRANCH  17  18
ENDBRANCH   1  17
TORSDOF 7
