REMARK  Name = ZINC41696968
REMARK  9 active torsions:
REMARK  status: ('A' for Active; 'I' for Inactive)
REMARK    1  A    between atoms: C_1  and  C_2
REMARK    2  A    between atoms: C_2  and  C_3
REMARK    3  A    between atoms: C_3  and  C_5
REMARK    4  A    between atoms: C_3  and  N_6
REMARK    5  A    between atoms: C_7  and  C_9
REMARK    6  A    between atoms: C_9  and  C_19
REMARK    7  A    between atoms: C_10  and  C_11
REMARK    8  A    between atoms: C_14  and  O_18
REMARK    9  A    between atoms: C_15  and  O_17
REMARK                            x       y       z     vdW  Elec       q    Type
REMARK                         _______ _______ _______ _____ _____    ______ ____
ROOT
ATOM      1  C   UNL     1       4.238   0.456  -2.305  0.00  0.00    +0.114 C 
ATOM      2  C   UNL     1       4.952   0.606  -3.474  0.00  0.00    +0.032 C 
ENDROOT
BRANCH   2   3
ATOM      3  C   UNL     1       6.323   1.117  -3.435  0.00  0.00    -0.020 A 
ATOM      4  C   UNL     1       6.798   1.938  -4.467  0.00  0.00    +0.012 A 
ATOM      5  C   UNL     1       8.088   2.416  -4.427  0.00  0.00    +0.050 A 
ATOM      6  C   UNL     1       8.922   2.088  -3.365  0.00  0.00    +0.158 A 
ATOM      7  C   UNL     1       8.458   1.272  -2.333  0.00  0.00    +0.159 A 
ATOM      8  C   UNL     1       7.165   0.791  -2.361  0.00  0.00    +0.057 A 
BRANCH   7   9
ATOM      9  O   UNL     1       9.279   0.954  -1.296  0.00  0.00    -0.503 OA
ATOM     10  H   UNL     1       9.238   1.576  -0.557  0.00  0.00    +0.292 HD
ENDBRANCH   7   9
BRANCH   6  11
ATOM     11  O   UNL     1      10.193   2.563  -3.332  0.00  0.00    -0.503 OA
ATOM     12  H   UNL     1      10.283   3.415  -2.883  0.00  0.00    +0.292 HD
ENDBRANCH   6  11
ENDBRANCH   2   3
BRANCH   1  14
ATOM     13  N   UNL     1       2.229  -0.357  -1.179  0.00  0.00    -0.308 N 
ATOM     14  C   UNL     1       2.927  -0.211  -2.323  0.00  0.00    +0.255 C 
ATOM     15  O   UNL     1       2.472  -0.630  -3.371  0.00  0.00    -0.269 OA
ATOM     16  H   UNL     1       2.591  -0.022  -0.344  0.00  0.00    +0.149 HD
BRANCH  13  17
ATOM     17  C   UNL     1       0.923  -1.021  -1.198  0.00  0.00    +0.070 C 
ATOM     18  C   UNL     1       1.119  -2.535  -1.099  0.00  0.00    +0.028 C 
BRANCH  17  20
ATOM     19  C   UNL     1      -0.214   0.955  -0.174  0.00  0.00    +0.005 C 
ATOM     20  C   UNL     1       0.088  -0.536  -0.011  0.00  0.00    +0.018 C 
ENDBRANCH  17  20
ENDBRANCH  13  17
ENDBRANCH   1  14
BRANCH   1  21
ATOM     21  C   UNL     1       4.773   0.950  -1.072  0.00  0.00    +0.104 C 
ATOM     22  N   UNL     1       5.197   1.342  -0.093  0.00  0.00    -0.191 NA
ENDBRANCH   1  21
TORSDOF 7
