REMARK  Name = ZINC13730193
REMARK  13 active torsions:
REMARK  status: ('A' for Active; 'I' for Inactive)
REMARK    1  A    between atoms: C_1  and  C_2
REMARK    2  A    between atoms: C_2  and  O_3
REMARK    3  A    between atoms: O_3  and  C_4
REMARK    4  A    between atoms: C_8  and  C_19
REMARK    5  A    between atoms: C_9  and  O_10
REMARK    6  A    between atoms: O_10  and  C_11
REMARK    7  A    between atoms: C_11  and  C_12
REMARK    8  A    between atoms: C_19  and  N_57
REMARK    9  A    between atoms: C_20  and  C_21
REMARK   10  A    between atoms: C_20  and  N_57
REMARK   11  A    between atoms: C_21  and  N_22
REMARK   12  A    between atoms: N_22  and  C_23
REMARK   13  A    between atoms: C_26  and  N_30
REMARK                            x       y       z     vdW  Elec       q    Type
REMARK                         _______ _______ _______ _____ _____    ______ ____
ROOT
ATOM      1  C   UNL     1       3.381  -0.790   2.174  0.00  0.00    +0.162 A 
ATOM      2  C   UNL     1       3.543  -0.025   3.317  0.00  0.00    +0.049 A 
ATOM      3  C   UNL     1       2.997   1.243   3.383  0.00  0.00    +0.004 A 
ATOM      4  C   UNL     1       2.289   1.751   2.310  0.00  0.00    +0.005 A 
ATOM      5  C   UNL     1       2.125   0.993   1.166  0.00  0.00    -0.019 A 
ATOM      6  C   UNL     1       2.664  -0.281   1.095  0.00  0.00    +0.164 A 
ENDROOT
BRANCH   1   7
ATOM      7  O   UNL     1       3.918  -2.038   2.107  0.00  0.00    -0.489 OA
BRANCH   7   9
ATOM      8  C   UNL     1       5.162  -3.910   2.994  0.00  0.00    +0.048 C 
ATOM      9  C   UNL     1       4.637  -2.497   3.254  0.00  0.00    +0.226 C 
ENDBRANCH   7   9
ENDBRANCH   1   7
BRANCH   6  10
ATOM     10  O   UNL     1       2.499  -1.030  -0.028  0.00  0.00    -0.484 OA
BRANCH  10  11
ATOM     11  C   UNL     1       3.496  -0.905  -1.044  0.00  0.00    +0.264 C 
BRANCH  11  12
ATOM     12  C   UNL     1       3.147  -1.803  -2.203  0.00  0.00    -0.010 A 
ATOM     13  C   UNL     1       3.616  -3.103  -2.235  0.00  0.00    +0.008 A 
ATOM     14  C   UNL     1       3.292  -3.929  -3.295  0.00  0.00    +0.020 A 
ATOM     15  C   UNL     1       2.507  -3.450  -4.330  0.00  0.00    +0.041 A 
ATOM     16  C   UNL     1       2.044  -2.147  -4.300  0.00  0.00    +0.020 A 
ATOM     17  C   UNL     1       2.364  -1.324  -3.236  0.00  0.00    +0.008 A 
ATOM     18 CL   UNL     1       2.105  -4.485  -5.664  0.00  0.00    -0.084 Cl
ENDBRANCH  11  12
ENDBRANCH  10  11
ENDBRANCH   6  10
BRANCH   5  19
ATOM     19  C   UNL     1       1.353   1.550  -0.003  0.00  0.00    -0.043 C 
BRANCH  19  20
ATOM     20  N   UNL     1      -0.015   0.998   0.015  0.00  0.00    +0.383 N 
ATOM     21  H   UNL     1      -0.475   1.261   0.894  0.00  0.00    -0.085 HD
ATOM     22  H   UNL     1       0.032  -0.025  -0.054  0.00  0.00    -0.085 HD
BRANCH  20  23
ATOM     23  C   UNL     1      -0.795   1.527  -1.120  0.00  0.00    -0.063 C 
BRANCH  23  24
ATOM     24  C   UNL     1      -2.207   0.938  -1.076  0.00  0.00    +0.082 C 
BRANCH  24  25
ATOM     25  N   UNL     1      -2.989   1.459  -2.200  0.00  0.00    -0.345 N 
ATOM     26  H   UNL     1      -2.584   2.079  -2.826  0.00  0.00    +0.146 HD
BRANCH  25  27
ATOM     27  C   UNL     1      -4.317   1.061  -2.371  0.00  0.00    +0.046 A 
ATOM     28  C   UNL     1      -4.899   0.172  -1.476  0.00  0.00    +0.026 A 
ATOM     29  C   UNL     1      -6.212  -0.219  -1.647  0.00  0.00    +0.034 A 
ATOM     30  C   UNL     1      -6.949   0.273  -2.709  0.00  0.00    +0.128 A 
ATOM     31  C   UNL     1      -6.374   1.158  -3.602  0.00  0.00    +0.054 A 
ATOM     32  C   UNL     1      -5.062   1.558  -3.433  0.00  0.00    +0.064 A 
ATOM     33 CL   UNL     1      -4.344   2.675  -4.551  0.00  0.00    -0.082 Cl
BRANCH  30  34
ATOM     34  N   UNL     1      -8.356  -0.148  -2.889  0.00  0.00    +0.056 N 
ATOM     35  O   UNL     1      -8.864  -0.928  -2.102  0.00  0.00    -0.126 OA
ATOM     36  O   UNL     1      -9.007   0.284  -3.823  0.00  0.00    -0.126 OA
ENDBRANCH  30  34
ENDBRANCH  25  27
ENDBRANCH  24  25
ENDBRANCH  23  24
ENDBRANCH  20  23
ENDBRANCH  19  20
ENDBRANCH   5  19
TORSDOF 12
