REMARK  Name = ZINC00823491
REMARK  8 active torsions:
REMARK  status: ('A' for Active; 'I' for Inactive)
REMARK    1  A    between atoms: C_1  and  C_2
REMARK    2  A    between atoms: C_2  and  O_3
REMARK    3  A    between atoms: O_3  and  C_4
REMARK    4  A    between atoms: C_7  and  C_10
REMARK    5  A    between atoms: C_12  and  C_19
REMARK    6  A    between atoms: C_13  and  C_18
REMARK    7  A    between atoms: C_19  and  O_21
REMARK    8  A    between atoms: O_21  and  C_22
REMARK                            x       y       z     vdW  Elec       q    Type
REMARK                         _______ _______ _______ _____ _____    ______ ____
ROOT
ATOM      1  C   UNL     1      -1.909  -6.317   0.038  0.00  0.00    +0.143 C 
ATOM      2  C   UNL     1      -2.145  -6.725  -1.402  0.00  0.00    +0.078 C 
ATOM      3  C   UNL     1      -3.379  -7.160  -1.738  0.00  0.00    +0.021 C 
ATOM      4  N   UNL     1      -4.378  -7.230  -0.809  0.00  0.00    -0.273 N 
ATOM      5  C   UNL     1      -4.225  -6.882   0.474  0.00  0.00    +0.304 C 
ATOM      6  O   UNL     1      -5.174  -6.979   1.227  0.00  0.00    -0.252 OA
ATOM      7  N   UNL     1      -3.052  -6.429   0.959  0.00  0.00    -0.288 N 
ATOM      8  C   UNL     1      -3.658  -7.576  -3.159  0.00  0.00    +0.061 C 
ATOM      9  H   UNL     1      -5.248  -7.548  -1.097  0.00  0.00    +0.156 HD
ATOM     10  H   UNL     1      -2.963  -6.183   1.893  0.00  0.00    +0.151 HD
ENDROOT
BRANCH   1  14
ATOM     11  C   UNL     1      -0.596  -2.250   0.055  0.00  0.00    +0.121 A 
ATOM     12  C   UNL     1       0.332  -3.280   0.102  0.00  0.00    +0.046 A 
ATOM     13  C   UNL     1      -0.095  -4.594   0.097  0.00  0.00    +0.009 A 
ATOM     14  C   UNL     1      -1.446  -4.883   0.044  0.00  0.00    -0.022 A 
ATOM     15  C   UNL     1      -2.373  -3.858  -0.004  0.00  0.00    +0.009 A 
ATOM     16  C   UNL     1      -1.952  -2.543   0.007  0.00  0.00    +0.046 A 
BRANCH  11  17
ATOM     17  O   UNL     1      -0.179  -0.957   0.060  0.00  0.00    -0.492 OA
BRANCH  17  19
ATOM     18  C   UNL     1       1.506   0.775   0.109  0.00  0.00    +0.048 C 
ATOM     19  C   UNL     1       1.231  -0.730   0.111  0.00  0.00    +0.225 C 
ENDBRANCH  17  19
ENDBRANCH  11  17
ENDBRANCH   1  14
BRANCH   2  20
ATOM     20  C   UNL     1      -1.109  -6.653  -2.363  0.00  0.00    +0.339 C 
ATOM     21  O   UNL     1      -1.288  -7.090  -3.484  0.00  0.00    -0.245 OA
BRANCH  20  22
ATOM     22  O   UNL     1       0.077  -6.099  -2.035  0.00  0.00    -0.458 OA
BRANCH  22  23
ATOM     23  C   UNL     1       1.077  -6.059  -3.054  0.00  0.00    +0.177 C 
ATOM     24  C   UNL     1       1.920  -7.334  -2.992  0.00  0.00    +0.044 C 
ATOM     25  C   UNL     1       2.991  -7.291  -4.084  0.00  0.00    +0.004 C 
ATOM     26  C   UNL     1       3.893  -6.074  -3.866  0.00  0.00    +0.000 C 
ATOM     27  C   UNL     1       3.050  -4.798  -3.928  0.00  0.00    +0.004 C 
ATOM     28  C   UNL     1       1.979  -4.841  -2.837  0.00  0.00    +0.044 C 
ENDBRANCH  22  23
ENDBRANCH  20  22
ENDBRANCH   2  20
TORSDOF 6
