REMARK  Name = ZINC66220334
REMARK  5 active torsions:
REMARK  status: ('A' for Active; 'I' for Inactive)
REMARK    1  A    between atoms: C_1  and  C_2
REMARK    2  A    between atoms: C_7  and  C_8
REMARK    3  A    between atoms: N_10  and  N_11
REMARK    4  A    between atoms: N_14  and  C_15
REMARK    5  A    between atoms: C_15  and  C_19
REMARK                            x       y       z     vdW  Elec       q    Type
REMARK                         _______ _______ _______ _____ _____    ______ ____
ROOT
ATOM      1  N   UNL     1       0.631   0.011   4.800  0.00  0.00    -0.218 N 
ATOM      2  C   UNL     1       0.837  -0.655   5.953  0.00  0.00    +0.317 C 
ATOM      3  O   UNL     1       0.948  -0.043   6.997  0.00  0.00    -0.251 OA
ATOM      4  N   UNL     1       0.920  -2.000   5.948  0.00  0.00    -0.289 N 
ATOM      5  H   UNL     1       0.571   0.980   4.803  0.00  0.00    +0.174 HD
ATOM      6  H   UNL     1       0.896  -2.485   5.108  0.00  0.00    +0.151 HD
ENDROOT
BRANCH   1   9
ATOM      7  C   UNL     1       0.297  -0.028   2.443  0.00  0.00    +0.260 C 
ATOM      8  O   UNL     1       0.222   1.185   2.447  0.00  0.00    -0.269 OA
ATOM      9  N   UNL     1       0.503  -0.694   3.596  0.00  0.00    -0.229 N 
ATOM     10  H   UNL     1       0.563  -1.662   3.593  0.00  0.00    +0.173 HD
BRANCH   7  17
ATOM     11  C   UNL     1      -0.020   1.424  -0.040  0.00  0.00    +0.044 C 
ATOM     12  C   UNL     1       0.009  -0.083  -0.031  0.00  0.00    -0.038 A 
ATOM     13  C   UNL     1      -0.111  -0.784  -1.213  0.00  0.00    +0.004 A 
ATOM     14  C   UNL     1      -0.085  -2.167  -1.207  0.00  0.00    +0.000 A 
ATOM     15  C   UNL     1       0.061  -2.857  -0.016  0.00  0.00    +0.001 A 
ATOM     16  C   UNL     1       0.182  -2.168   1.173  0.00  0.00    +0.013 A 
ATOM     17  C   UNL     1       0.162  -0.772   1.173  0.00  0.00    +0.041 A 
ENDBRANCH   7  17
ENDBRANCH   1   9
BRANCH   4  18
ATOM     18  C   UNL     1       1.047  -2.731   7.212  0.00  0.00    +0.061 C 
ATOM     19  C   UNL     1       0.509  -4.170   7.148  0.00  0.00    +0.031 C 
ATOM     20  C   UNL     1      -0.857  -3.594   7.556  0.00  0.00    +0.005 C 
ATOM     21  C   UNL     1      -0.085  -2.436   8.210  0.00  0.00    +0.031 C 
BRANCH  18  22
ATOM     22  C   UNL     1       2.425  -2.625   7.813  0.00  0.00    -0.024 A 
ATOM     23  C   UNL     1       2.636  -2.998   9.127  0.00  0.00    +0.006 A 
ATOM     24  C   UNL     1       3.900  -2.901   9.679  0.00  0.00    +0.000 A 
ATOM     25  C   UNL     1       4.953  -2.432   8.915  0.00  0.00    +0.000 A 
ATOM     26  C   UNL     1       4.742  -2.060   7.601  0.00  0.00    +0.000 A 
ATOM     27  C   UNL     1       3.479  -2.161   7.048  0.00  0.00    +0.006 A 
ENDBRANCH  18  22
ENDBRANCH   4  18
TORSDOF 4
