REMARK  Name = ZINC39575913
REMARK  6 active torsions:
REMARK  status: ('A' for Active; 'I' for Inactive)
REMARK    1  A    between atoms: C_1  and  O_2
REMARK    2  A    between atoms: O_2  and  C_3
REMARK    3  A    between atoms: C_6  and  C_9
REMARK    4  A    between atoms: C_13  and  S_27
REMARK    5  A    between atoms: N_15  and  N_16
REMARK    6  A    between atoms: C_17  and  C_18
REMARK                            x       y       z     vdW  Elec       q    Type
REMARK                         _______ _______ _______ _____ _____    ______ ____
ROOT
ATOM      1  C   UNL     1       2.550  -2.441  -4.199  0.00  0.00    +0.206 C 
ATOM      2  N   UNL     1       3.641  -1.651  -4.816  0.00  0.00    -0.229 NA
ATOM      3  N   UNL     1       4.505  -2.656  -5.454  0.00  0.00    -0.225 NA
ATOM      4  C   UNL     1       4.473  -3.786  -4.488  0.00  0.00    +0.231 C 
ATOM      5  N   UNL     1       3.081  -3.800  -3.992  0.00  0.00    -0.205 N 
ATOM      6  H   UNL     1       4.148  -1.129  -4.117  0.00  0.00    +0.143 HD
ATOM      7  H   UNL     1       4.135  -2.936  -6.350  0.00  0.00    +0.143 HD
ENDROOT
BRANCH   1  11
ATOM      8  C   UNL     1       1.430  -0.718  -0.453  0.00  0.00    +0.120 A 
ATOM      9  C   UNL     1       1.880   0.094  -1.484  0.00  0.00    +0.046 A 
ATOM     10  C   UNL     1       2.242  -0.466  -2.694  0.00  0.00    +0.010 A 
ATOM     11  C   UNL     1       2.155  -1.833  -2.878  0.00  0.00    -0.010 A 
ATOM     12  C   UNL     1       1.706  -2.644  -1.852  0.00  0.00    +0.010 A 
ATOM     13  C   UNL     1       1.349  -2.090  -0.638  0.00  0.00    +0.046 A 
BRANCH   8  15
ATOM     14  C   UNL     1       1.182   1.250   0.858  0.00  0.00    +0.277 C 
ATOM     15  O   UNL     1       1.073  -0.170   0.738  0.00  0.00    -0.495 OA
ENDBRANCH   8  15
ENDBRANCH   1  11
BRANCH   5  16
ATOM     16  N   UNL     1       2.453  -4.803  -3.477  0.00  0.00    -0.188 NA
ATOM     17  C   UNL     1       3.092  -5.925  -3.240  0.00  0.00    +0.136 C 
BRANCH  17  18
ATOM     18  C   UNL     1       2.387  -7.053  -2.812  0.00  0.00    +0.000 C 
ATOM     19  C   UNL     1       2.911  -8.312  -2.512  0.00  0.00    +0.004 A 
ATOM     20  C   UNL     1       4.224  -8.829  -2.538  0.00  0.00    +0.010 A 
ATOM     21  C   UNL     1       4.446 -10.122  -2.186  0.00  0.00    +0.001 A 
ATOM     22  C   UNL     1       3.402 -10.963  -1.797  0.00  0.00    +0.002 A 
ATOM     23  C   UNL     1       2.117 -10.534  -1.749  0.00  0.00    +0.026 A 
ATOM     24  C   UNL     1       1.807  -9.194  -2.102  0.00  0.00    +0.043 A 
ATOM     25  N   UNL     1       0.660  -8.545  -2.138  0.00  0.00    -0.380 N 
ATOM     26  C   UNL     1       0.898  -7.165  -2.571  0.00  0.00    +0.150 C 
ATOM     27  H   UNL     1      -0.205  -8.921  -1.910  0.00  0.00    +0.160 HD
ENDBRANCH  17  18
ENDBRANCH   5  16
BRANCH   4  28
ATOM     28  S   UNL     1       4.867  -5.347  -5.324  0.00  0.00    -0.138 S 
ATOM     29  H   UNL     1       6.115  -5.161  -5.788  0.00  0.00    +0.105 HD
ENDBRANCH   4  28
TORSDOF 5
