REMARK  Name = ZINC32911041
REMARK  7 active torsions:
REMARK  status: ('A' for Active; 'I' for Inactive)
REMARK    1  A    between atoms: C_1  and  C_2
REMARK    2  A    between atoms: C_2  and  C_4
REMARK    3  A    between atoms: C_2  and  S_16
REMARK    4  A    between atoms: N_9  and  C_10
REMARK    5  A    between atoms: S_16  and  C_17
REMARK    6  A    between atoms: N_27  and  C_28
REMARK    7  A    between atoms: C_28  and  C_29
REMARK                            x       y       z     vdW  Elec       q    Type
REMARK                         _______ _______ _______ _____ _____    ______ ____
ROOT
ATOM      1  C   UNL     1      -2.667   4.325  -4.349  0.00  0.00    +0.029 C 
ATOM      2  C   UNL     1      -1.228   3.834  -4.177  0.00  0.00    +0.137 C 
ENDROOT
BRANCH   2   3
ATOM      3  C   UNL     1      -0.273   4.933  -4.566  0.00  0.00    +0.233 C 
ATOM      4  O   UNL     1       0.254   5.610  -3.709  0.00  0.00    -0.274 OA
ATOM      5  N   UNL     1      -0.003   5.163  -5.866  0.00  0.00    -0.239 N 
ATOM      6  C   UNL     1       0.851   6.145  -6.214  0.00  0.00    +0.306 C 
ATOM      7  O   UNL     1       1.379   6.824  -5.355  0.00  0.00    -0.252 OA
ATOM      8  N   UNL     1       1.121   6.375  -7.514  0.00  0.00    -0.296 N 
ATOM      9  H   UNL     1      -0.481   4.548  -6.644  0.00  0.00    +0.159 HD
ATOM     10  H   UNL     1       0.643   5.761  -8.292  0.00  0.00    +0.151 HD
BRANCH   8  11
ATOM     11  C   UNL     1       2.049   7.443  -7.892  0.00  0.00    +0.074 C 
ATOM     12  C   UNL     1       1.295   8.773  -7.965  0.00  0.00    +0.022 C 
ATOM     13  C   UNL     1       2.265   9.888  -8.360  0.00  0.00    +0.002 C 
ATOM     14  C   UNL     1       2.876   9.573  -9.726  0.00  0.00    +0.000 C 
ATOM     15  C   UNL     1       3.630   8.243  -9.654  0.00  0.00    +0.002 C 
ATOM     16  C   UNL     1       2.660   7.128  -9.259  0.00  0.00    +0.022 C 
ENDBRANCH   8  11
ENDBRANCH   2   3
BRANCH   2  17
ATOM     17  S   UNL     1      -0.949   3.376  -2.448  0.00  0.00    -0.075 S 
BRANCH  17  18
ATOM     18  C   UNL     1      -2.057   2.013  -2.310  0.00  0.00    +0.173 A 
ATOM     19  N   UNL     1      -2.755   1.666  -3.364  0.00  0.00    -0.223 NA
ATOM     20  C   UNL     1      -3.628   0.632  -3.325  0.00  0.00    +0.080 A 
ATOM     21  C   UNL     1      -4.376   0.264  -4.447  0.00  0.00    +0.048 A 
ATOM     22  C   UNL     1      -5.253  -0.795  -4.360  0.00  0.00    +0.043 A 
ATOM     23  C   UNL     1      -5.402  -1.501  -3.171  0.00  0.00    +0.021 A 
ATOM     24  C   UNL     1      -4.681  -1.159  -2.061  0.00  0.00    +0.017 A 
ATOM     25  C   UNL     1      -3.786  -0.091  -2.121  0.00  0.00    +0.065 A 
ATOM     26  C   UNL     1      -2.987   0.316  -0.958  0.00  0.00    +0.263 A 
ATOM     27  O   UNL     1      -3.080  -0.267   0.107  0.00  0.00    -0.267 OA
ATOM     28  N   UNL     1      -2.146   1.365  -1.112  0.00  0.00    -0.283 N 
ATOM     29 CL   UNL     1      -6.184  -1.254  -5.752  0.00  0.00    -0.083 Cl
BRANCH  28  30
ATOM     30  C   UNL     1      -1.328   1.812   0.018  0.00  0.00    +0.154 C 
BRANCH  30  31
ATOM     31  C   UNL     1      -0.013   1.076   0.008  0.00  0.00    -0.013 C 
ATOM     32  C   UNL     1       1.113   1.746   0.001  0.00  0.00    +0.005 C 
ENDBRANCH  30  31
ENDBRANCH  28  30
ENDBRANCH  17  18
ENDBRANCH   2  17
TORSDOF 6
