REMARK  Name = ZINC11785539
REMARK  9 active torsions:
REMARK  status: ('A' for Active; 'I' for Inactive)
REMARK    1  A    between atoms: C_1  and  C_2
REMARK    2  A    between atoms: C_2  and  C_4
REMARK    3  A    between atoms: C_2  and  N_66
REMARK    4  A    between atoms: C_4  and  C_5
REMARK    5  A    between atoms: C_5  and  C_6
REMARK    6  A    between atoms: C_9  and  O_12
REMARK    7  A    between atoms: N_15  and  C_18
REMARK    8  A    between atoms: N_26  and  C_29
REMARK    9  A    between atoms: C_29  and  C_30
REMARK                            x       y       z     vdW  Elec       q    Type
REMARK                         _______ _______ _______ _____ _____    ______ ____
ROOT
ATOM      1  C   UNL     1       1.815   4.439   6.551  0.00  0.00    -0.059 C 
ATOM      2  C   UNL     1       0.446   4.448   5.867  0.00  0.00    +0.086 C 
ATOM      3  N   UNL     1       0.135   3.096   5.381  0.00  0.00    -0.333 N 
ATOM      4  C   UNL     1       0.120   2.132   6.490  0.00  0.00    +0.086 C 
ATOM      5  C   UNL     1       1.489   2.123   7.175  0.00  0.00    -0.059 C 
ATOM      6  N   UNL     1       1.779   3.482   7.677  0.00  0.00    +0.383 N 
ATOM      7  H   UNL     1       1.037   3.762   8.329  0.00  0.00    -0.081 HD
ENDROOT
BRANCH   3   8
ATOM      8  C   UNL     1      -1.068   3.080   4.692  0.00  0.00    +0.043 A 
ATOM      9  C   UNL     1      -2.251   3.461   5.331  0.00  0.00    +0.024 A 
ATOM     10  C   UNL     1      -3.447   3.446   4.648  0.00  0.00    +0.003 A 
ATOM     11  C   UNL     1      -3.497   3.053   3.317  0.00  0.00    +0.014 A 
ATOM     12  C   UNL     1      -2.337   2.672   2.665  0.00  0.00    +0.051 A 
ATOM     13  C   UNL     1      -1.106   2.684   3.356  0.00  0.00    +0.070 A 
ATOM     14  C   UNL     1      -0.095   2.231   2.387  0.00  0.00    +0.256 C 
ATOM     15  O   UNL     1       1.094   2.107   2.609  0.00  0.00    -0.269 OA
ATOM     16  N   UNL     1      -0.704   1.975   1.216  0.00  0.00    -0.230 N 
ATOM     17  C   UNL     1      -2.025   2.216   1.295  0.00  0.00    +0.254 C 
ATOM     18  O   UNL     1      -2.827   2.079   0.393  0.00  0.00    -0.270 OA
BRANCH  16  19
ATOM     19  C   UNL     1      -0.018   1.503   0.010  0.00  0.00    +0.152 C 
BRANCH  19  20
ATOM     20  C   UNL     1       0.002  -0.004   0.002  0.00  0.00    -0.030 A 
ATOM     21  C   UNL     1       1.057  -0.684   0.582  0.00  0.00    +0.006 A 
ATOM     22  C   UNL     1       1.073  -2.066   0.580  0.00  0.00    +0.020 A 
ATOM     23  C   UNL     1       0.040  -2.769  -0.013  0.00  0.00    +0.041 A 
ATOM     24  C   UNL     1      -1.013  -2.088  -0.599  0.00  0.00    +0.020 A 
ATOM     25  C   UNL     1      -1.031  -0.706  -0.591  0.00  0.00    +0.006 A 
ATOM     26 CL   UNL     1       0.063  -4.505  -0.022  0.00  0.00    -0.084 Cl
ENDBRANCH  19  20
ENDBRANCH  16  19
ENDBRANCH   3   8
BRANCH   6  28
ATOM     27  C   UNL     1       4.213   3.125   7.437  0.00  0.00    -0.013 C 
ATOM     28  C   UNL     1       3.074   3.492   8.391  0.00  0.00    -0.071 C 
BRANCH  28  29
ATOM     29  C   UNL     1       3.020   2.477   9.535  0.00  0.00    -0.011 C 
BRANCH  29  30
ATOM     30  C   UNL     1       1.964   2.913  10.553  0.00  0.00    +0.033 C 
BRANCH  30  31
ATOM     31  C   UNL     1       1.910   1.914  11.680  0.00  0.00    -0.047 A 
ATOM     32  C   UNL     1       1.051   0.834  11.604  0.00  0.00    +0.007 A 
ATOM     33  C   UNL     1       1.004  -0.087  12.633  0.00  0.00    +0.045 A 
ATOM     34  C   UNL     1       1.812   0.080  13.748  0.00  0.00    +0.117 A 
ATOM     35  C   UNL     1       2.670   1.167  13.824  0.00  0.00    +0.045 A 
ATOM     36  C   UNL     1       2.717   2.082  12.790  0.00  0.00    +0.007 A 
BRANCH  34  37
ATOM     37  O   UNL     1       1.764  -0.822  14.764  0.00  0.00    -0.507 OA
ATOM     38  H   UNL     1       1.115  -0.609  15.449  0.00  0.00    +0.292 HD
ENDBRANCH  34  37
ENDBRANCH  30  31
ENDBRANCH  29  30
ENDBRANCH  28  29
ENDBRANCH   6  28
TORSDOF 8
