REMARK  Name = ZINC06282094
REMARK  14 active torsions:
REMARK  status: ('A' for Active; 'I' for Inactive)
REMARK    1  A    between atoms: C_1  and  C_2
REMARK    2  A    between atoms: C_7  and  C_14
REMARK    3  A    between atoms: C_14  and  C_16
REMARK    4  A    between atoms: C_14  and  N_70
REMARK    5  A    between atoms: N_20  and  C_21
REMARK    6  A    between atoms: C_21  and  C_22
REMARK    7  A    between atoms: C_22  and  O_23
REMARK    8  A    between atoms: O_23  and  C_24
REMARK    9  A    between atoms: C_25  and  C_26
REMARK   10  A    between atoms: C_25  and  N_70
REMARK   11  A    between atoms: C_29  and  O_32
REMARK   12  A    between atoms: O_32  and  C_33
REMARK   13  A    between atoms: C_34  and  C_35
REMARK   14  A    between atoms: C_34  and  N_70
REMARK                            x       y       z     vdW  Elec       q    Type
REMARK                         _______ _______ _______ _____ _____    ______ ____
ROOT
ATOM      1  C   UNL     1       3.724   1.377   0.191  0.00  0.00    +0.039 C 
ENDROOT
BRANCH   1   8
ATOM      2  C   UNL     1       9.102   3.112   5.820  0.00  0.00    +0.044 C 
ATOM      3  C   UNL     1       8.146   2.561   4.793  0.00  0.00    -0.048 A 
ATOM      4  C   UNL     1       8.082   1.191   4.579  0.00  0.00    +0.004 A 
ATOM      5  C   UNL     1       7.223   0.671   3.653  0.00  0.00    +0.010 A 
ATOM      6  C   UNL     1       6.399   1.527   2.914  0.00  0.00    -0.001 A 
ATOM      7  C   UNL     1       5.467   1.004   1.914  0.00  0.00    +0.017 A 
ATOM      8  C   UNL     1       4.694   1.882   1.228  0.00  0.00    +0.011 A 
ATOM      9  C   UNL     1       4.798   3.267   1.476  0.00  0.00    +0.251 A 
ATOM     10  O   UNL     1       4.098   4.039   0.845  0.00  0.00    -0.268 OA
ATOM     11  N   UNL     1       5.648   3.756   2.397  0.00  0.00    -0.322 N 
ATOM     12  H   UNL     1       5.691   4.714   2.546  0.00  0.00    +0.169 HD
ATOM     13  C   UNL     1       6.461   2.917   3.128  0.00  0.00    +0.049 A 
ATOM     14  C   UNL     1       7.344   3.423   4.076  0.00  0.00    +0.029 A 
ENDBRANCH   1   8
BRANCH   1  15
ATOM     15  C   UNL     1       2.313   1.641   0.651  0.00  0.00    +0.143 A 
ATOM     16  N   UNL     1       1.625   2.742   0.473  0.00  0.00    -0.115 NA
ATOM     17  N   UNL     1       0.466   2.579   1.010  0.00  0.00    -0.023 NA
ATOM     18  N   UNL     1       0.396   1.402   1.527  0.00  0.00    -0.044 NA
ATOM     19  N   UNL     1       1.516   0.793   1.327  0.00  0.00    -0.228 N 
BRANCH  19  20
ATOM     20  C   UNL     1       1.855  -0.567   1.753  0.00  0.00    +0.175 C 
BRANCH  20  21
ATOM     21  C   UNL     1       1.468  -1.558   0.654  0.00  0.00    +0.183 C 
BRANCH  21  22
ATOM     22  O   UNL     1       1.799  -2.885   1.070  0.00  0.00    -0.381 OA
ATOM     23  C   UNL     1       1.476  -3.893   0.110  0.00  0.00    +0.194 C 
ENDBRANCH  21  22
ENDBRANCH  20  21
ENDBRANCH  19  20
ENDBRANCH   1  15
BRANCH   1  24
ATOM     24  N   UNL     1       3.952   2.098  -1.079  0.00  0.00    +0.395 N 
ATOM     25  H   UNL     1       3.615   3.062  -0.980  0.00  0.00    -0.079 HD
BRANCH  24  26
ATOM     26  C   UNL     1       5.396   2.124  -1.392  0.00  0.00    -0.041 C 
BRANCH  26  27
ATOM     27  C   UNL     1       5.638   3.142  -2.477  0.00  0.00    -0.064 A 
ATOM     28  C   UNL     1       5.724   2.737  -3.796  0.00  0.00    +0.005 A 
ATOM     29  C   UNL     1       5.940   3.669  -4.793  0.00  0.00    +0.046 A 
ATOM     30  C   UNL     1       6.082   5.010  -4.468  0.00  0.00    +0.120 A 
ATOM     31  C   UNL     1       6.000   5.413  -3.143  0.00  0.00    +0.046 A 
ATOM     32  C   UNL     1       5.779   4.478  -2.151  0.00  0.00    +0.005 A 
BRANCH  30  33
ATOM     33  O   UNL     1       6.300   5.928  -5.446  0.00  0.00    -0.495 OA
ATOM     34  C   UNL     1       6.372   5.442  -6.788  0.00  0.00    +0.277 C 
ENDBRANCH  30  33
ENDBRANCH  26  27
ENDBRANCH  24  26
BRANCH  24  35
ATOM     35  C   UNL     1       3.209   1.439  -2.174  0.00  0.00    -0.040 C 
BRANCH  35  36
ATOM     36  C   UNL     1       1.761   1.845  -2.088  0.00  0.00    -0.046 A 
ATOM     37  C   UNL     1       0.838   1.024  -1.458  0.00  0.00    +0.005 A 
ATOM     38  C   UNL     1      -0.483   1.440  -1.398  0.00  0.00    +0.020 A 
ATOM     39  C   UNL     1      -0.836   2.647  -1.972  0.00  0.00    +0.111 A 
ATOM     40  N   UNL     1       0.068   3.400  -2.568  0.00  0.00    -0.263 NA
ATOM     41  C   UNL     1       1.334   3.038  -2.640  0.00  0.00    +0.112 A 
ENDBRANCH  35  36
ENDBRANCH  24  35
ENDBRANCH   1  24
TORSDOF 11
