REMARK  Name = ZINC38599160
REMARK  7 active torsions:
REMARK  status: ('A' for Active; 'I' for Inactive)
REMARK    1  A    between atoms: C_1  and  O_2
REMARK    2  A    between atoms: O_2  and  C_3
REMARK    3  A    between atoms: C_6  and  S_9
REMARK    4  A    between atoms: S_9  and  C_12
REMARK    5  A    between atoms: N_24  and  N_28
REMARK    6  A    between atoms: C_25  and  N_27
REMARK    7  A    between atoms: C_29  and  C_30
REMARK                            x       y       z     vdW  Elec       q    Type
REMARK                         _______ _______ _______ _____ _____    ______ ____
ROOT
ATOM      1  C   UNL     1       5.071  -2.562  -3.994  0.00  0.00    +0.224 C 
ATOM      2  C   UNL     1       5.072  -3.432  -2.756  0.00  0.00    +0.111 A 
ATOM      3  C   UNL     1       5.572  -4.696  -3.109  0.00  0.00    +0.166 A 
ATOM      4  N   UNL     1       5.672  -5.643  -2.183  0.00  0.00    -0.227 NA
ATOM      5  C   UNL     1       5.299  -5.394  -0.925  0.00  0.00    +0.091 A 
ATOM      6  C   UNL     1       5.398  -6.382   0.070  0.00  0.00    +0.030 A 
ATOM      7  C   UNL     1       5.011  -6.098   1.344  0.00  0.00    +0.002 A 
ATOM      8  C   UNL     1       4.517  -4.840   1.680  0.00  0.00    +0.002 A 
ATOM      9  C   UNL     1       4.406  -3.858   0.743  0.00  0.00    +0.030 A 
ATOM     10  C   UNL     1       4.796  -4.114  -0.582  0.00  0.00    +0.090 A 
ATOM     11  N   UNL     1       4.701  -3.170  -1.526  0.00  0.00    -0.245 NA
ATOM     12  N   UNL     1       5.902  -4.755  -4.455  0.00  0.00    -0.186 N 
ATOM     13  C   UNL     1       5.628  -3.468  -5.104  0.00  0.00    +0.195 C 
ENDROOT
BRANCH   1  14
ATOM     14  S   UNL     1       3.382  -2.035  -4.396  0.00  0.00    +0.008 S 
ATOM     15  O   UNL     1       2.506  -3.154  -4.390  0.00  0.00    -0.169 OA
ATOM     16  O   UNL     1       3.398  -1.134  -5.494  0.00  0.00    -0.169 OA
BRANCH  14  20
ATOM     17  C   UNL     1       2.074   0.474  -0.860  0.00  0.00    +0.120 A 
ATOM     18  C   UNL     1       2.709   1.071  -1.940  0.00  0.00    +0.047 A 
ATOM     19  C   UNL     1       3.107   0.304  -3.017  0.00  0.00    +0.030 A 
ATOM     20  C   UNL     1       2.873  -1.059  -3.020  0.00  0.00    +0.089 A 
ATOM     21  C   UNL     1       2.240  -1.657  -1.946  0.00  0.00    +0.030 A 
ATOM     22  C   UNL     1       1.846  -0.894  -0.864  0.00  0.00    +0.047 A 
BRANCH  17  24
ATOM     23  C   UNL     1       1.950   2.629   0.135  0.00  0.00    +0.277 C 
ATOM     24  O   UNL     1       1.682   1.227   0.201  0.00  0.00    -0.495 OA
ENDBRANCH  17  24
ENDBRANCH  14  20
ENDBRANCH   1  14
BRANCH  13  25
ATOM     25  N   UNL     1       6.867  -2.898  -5.651  0.00  0.00    -0.309 NA
ATOM     26  H   UNL     1       7.182  -3.421  -6.454  0.00  0.00    +0.120 HD
ATOM     27  H   UNL     1       6.746  -1.923  -5.880  0.00  0.00    +0.120 HD
ENDBRANCH  13  25
BRANCH  12  28
ATOM     28  N   UNL     1       6.383  -5.792  -5.051  0.00  0.00    -0.185 NA
ATOM     29  C   UNL     1       6.565  -5.777  -6.350  0.00  0.00    +0.136 C 
BRANCH  29  30
ATOM     30  C   UNL     1       7.199  -6.853  -6.979  0.00  0.00    +0.000 C 
ATOM     31  C   UNL     1       7.473  -6.991  -8.341  0.00  0.00    +0.004 A 
ATOM     32  C   UNL     1       7.223  -6.159  -9.453  0.00  0.00    +0.010 A 
ATOM     33  C   UNL     1       7.610  -6.558 -10.693  0.00  0.00    +0.001 A 
ATOM     34  C   UNL     1       8.254  -7.779 -10.900  0.00  0.00    +0.002 A 
ATOM     35  C   UNL     1       8.525  -8.628  -9.879  0.00  0.00    +0.026 A 
ATOM     36  C   UNL     1       8.151  -8.280  -8.555  0.00  0.00    +0.043 A 
ATOM     37  N   UNL     1       8.299  -8.918  -7.411  0.00  0.00    -0.380 N 
ATOM     38  C   UNL     1       7.737  -8.107  -6.327  0.00  0.00    +0.150 C 
ATOM     39  H   UNL     1       8.718  -9.787  -7.303  0.00  0.00    +0.160 HD
ENDBRANCH  29  30
ENDBRANCH  12  28
TORSDOF 6
