REMARK  Name = ZINC11866901
REMARK  9 active torsions:
REMARK  status: ('A' for Active; 'I' for Inactive)
REMARK    1  A    between atoms: C_1  and  C_2
REMARK    2  A    between atoms: C_2  and  C_3
REMARK    3  A    between atoms: C_10  and  O_15
REMARK    4  A    between atoms: C_12  and  C_14
REMARK    5  A    between atoms: O_15  and  C_16
REMARK    6  A    between atoms: C_16  and  C_18
REMARK    7  A    between atoms: C_16  and  C_19
REMARK    8  A    between atoms: C_24  and  O_40
REMARK    9  A    between atoms: C_31  and  C_33
REMARK                            x       y       z     vdW  Elec       q    Type
REMARK                         _______ _______ _______ _____ _____    ______ ____
ROOT
ATOM      1  C   UNL     1       3.026   5.368   1.909  0.00  0.00    +0.257 C 
ATOM      2  O   UNL     1       4.074   4.772   2.040  0.00  0.00    -0.272 OA
ATOM      3  N   UNL     1       2.150   4.989   0.958  0.00  0.00    -0.291 N 
ATOM      4  C   UNL     1       0.933   5.768   0.719  0.00  0.00    +0.111 C 
ATOM      5  C   UNL     1       0.867   6.135  -0.767  0.00  0.00    +0.054 C 
ATOM      6  C   UNL     1       0.973   4.862  -1.610  0.00  0.00    +0.072 C 
ATOM      7  C   UNL     1       0.873   5.224  -3.093  0.00  0.00    +0.035 C 
ATOM      8  C   UNL     1       0.992   3.959  -3.945  0.00  0.00    +0.003 C 
ATOM      9  C   UNL     1       2.342   3.290  -3.676  0.00  0.00    +0.001 C 
ATOM     10  C   UNL     1       2.438   2.917  -2.195  0.00  0.00    +0.008 C 
ATOM     11  C   UNL     1       2.317   4.181  -1.340  0.00  0.00    +0.046 C 
ATOM     12  C   UNL     1       2.401   3.794   0.141  0.00  0.00    +0.112 C 
ENDROOT
BRANCH  12  13
ATOM     13  C   UNL     1       1.365   2.744   0.449  0.00  0.00    -0.027 A 
ATOM     14  C   UNL     1       1.441   1.502  -0.153  0.00  0.00    +0.007 A 
ATOM     15  C   UNL     1       0.490   0.539   0.129  0.00  0.00    +0.020 A 
ATOM     16  C   UNL     1      -0.540   0.820   1.009  0.00  0.00    +0.041 A 
ATOM     17  C   UNL     1      -0.611   2.061   1.615  0.00  0.00    +0.020 A 
ATOM     18  C   UNL     1       0.340   3.024   1.333  0.00  0.00    +0.007 A 
ATOM     19 CL   UNL     1      -1.738  -0.387   1.357  0.00  0.00    -0.084 Cl
ENDBRANCH  12  13
BRANCH   1  20
ATOM     20  C   UNL     1       2.703   6.531   2.811  0.00  0.00    +0.256 C 
ATOM     21  C   UNL     1       2.858   7.839   2.032  0.00  0.00    +0.062 C 
BRANCH  20  22
ATOM     22  O   UNL     1       3.596   6.532   3.926  0.00  0.00    -0.479 OA
BRANCH  22  30
ATOM     23  C   UNL     1       5.372   6.690   6.142  0.00  0.00    -0.027 A 
ATOM     24  C   UNL     1       6.143   6.819   7.253  0.00  0.00    +0.096 A 
ATOM     25  C   UNL     1       5.639   7.498   8.381  0.00  0.00    +0.337 A 
ATOM     26  O   UNL     1       6.341   7.607   9.370  0.00  0.00    -0.245 OA
ATOM     27  O   UNL     1       4.410   8.037   8.389  0.00  0.00    -0.422 OA
ATOM     28  C   UNL     1       3.591   7.939   7.320  0.00  0.00    +0.143 A 
ATOM     29  C   UNL     1       4.028   7.270   6.162  0.00  0.00    +0.062 A 
ATOM     30  C   UNL     1       3.180   7.172   5.048  0.00  0.00    +0.133 A 
ATOM     31  C   UNL     1       1.914   7.728   5.106  0.00  0.00    +0.050 A 
ATOM     32  C   UNL     1       1.489   8.380   6.251  0.00  0.00    -0.043 A 
ATOM     33  C   UNL     1       2.317   8.488   7.351  0.00  0.00    +0.050 A 
ATOM     34  C   UNL     1       0.108   8.981   6.297  0.00  0.00    +0.044 C 
BRANCH  23  36
ATOM     35  C   UNL     1       6.476   6.983   3.941  0.00  0.00    +0.009 C 
ATOM     36  C   UNL     1       5.885   5.969   4.922  0.00  0.00    +0.033 C 
ENDBRANCH  23  36
ENDBRANCH  22  30
ENDBRANCH  20  22
ENDBRANCH   1  20
BRANCH   6  37
ATOM     37  O   UNL     1      -0.090   3.970  -1.268  0.00  0.00    -0.388 OA
ATOM     38  H   UNL     1      -0.973   4.337  -1.414  0.00  0.00    +0.210 HD
ENDBRANCH   6  37
TORSDOF 6
