REMARK  Name = ZINC38684943
REMARK  13 active torsions:
REMARK  status: ('A' for Active; 'I' for Inactive)
REMARK    1  A    between atoms: C_1  and  C_2
REMARK    2  A    between atoms: C_2  and  O_3
REMARK    3  A    between atoms: O_3  and  C_4
REMARK    4  A    between atoms: C_8  and  C_10
REMARK    5  A    between atoms: C_15  and  O_24
REMARK    6  A    between atoms: C_19  and  N_23
REMARK    7  A    between atoms: C_20  and  C_21
REMARK    8  A    between atoms: O_24  and  C_25
REMARK    9  A    between atoms: C_25  and  C_27
REMARK   10  A    between atoms: C_27  and  O_28
REMARK   11  A    between atoms: O_28  and  C_29
REMARK   12  A    between atoms: C_32  and  C_36
REMARK   13  A    between atoms: C_33  and  C_35
REMARK                            x       y       z     vdW  Elec       q    Type
REMARK                         _______ _______ _______ _____ _____    ______ ____
ROOT
ATOM      1  C   UNL     1       2.254  -4.348   3.788  0.00  0.00    +0.098 C 
ATOM      2  C   UNL     1       3.434  -5.156   3.318  0.00  0.00    +0.008 A 
ATOM      3  C   UNL     1       4.542  -4.507   2.803  0.00  0.00    +0.012 A 
ATOM      4  C   UNL     1       5.633  -5.231   2.366  0.00  0.00    +0.047 A 
ATOM      5  C   UNL     1       5.622  -6.617   2.443  0.00  0.00    +0.135 A 
ATOM      6  C   UNL     1       4.514  -7.271   2.958  0.00  0.00    +0.093 A 
ATOM      7  C   UNL     1       3.417  -6.540   3.397  0.00  0.00    +0.138 A 
ATOM      8  O   UNL     1       2.341  -7.195   3.898  0.00  0.00    -0.441 OA
ATOM      9  C   UNL     1       1.456  -6.538   4.668  0.00  0.00    +0.199 C 
ATOM     10  C   UNL     1       1.366  -5.191   4.660  0.00  0.00    +0.098 C 
ENDROOT
BRANCH   1  15
ATOM     11  C   UNL     1       0.585  -2.069   1.278  0.00  0.00    +0.121 A 
ATOM     12  C   UNL     1       0.030  -2.989   0.399  0.00  0.00    +0.045 A 
ATOM     13  C   UNL     1       0.198  -4.342   0.621  0.00  0.00    +0.004 A 
ATOM     14  C   UNL     1       0.917  -4.780   1.717  0.00  0.00    +0.005 A 
ATOM     15  C   UNL     1       1.471  -3.867   2.594  0.00  0.00    -0.031 A 
ATOM     16  C   UNL     1       1.311  -2.512   2.374  0.00  0.00    +0.050 A 
BRANCH  11  17
ATOM     17  O   UNL     1       0.423  -0.738   1.062  0.00  0.00    -0.492 OA
BRANCH  17  19
ATOM     18  C   UNL     1      -0.411   1.172  -0.162  0.00  0.00    +0.048 C 
ATOM     19  C   UNL     1      -0.337  -0.354  -0.086  0.00  0.00    +0.225 C 
ENDBRANCH  17  19
ENDBRANCH  11  17
ENDBRANCH   1  15
BRANCH   9  20
ATOM     20  N   UNL     1       0.620  -7.259   5.484  0.00  0.00    -0.328 N 
ATOM     21  H   UNL     1       0.673  -8.227   5.499  0.00  0.00    +0.145 HD
ATOM     22  H   UNL     1      -0.024  -6.800   6.045  0.00  0.00    +0.145 HD
ENDBRANCH   9  20
BRANCH  10  23
ATOM     23  C   UNL     1       0.401  -4.552   5.503  0.00  0.00    +0.101 C 
ATOM     24  N   UNL     1      -0.365  -4.046   6.172  0.00  0.00    -0.191 NA
ENDBRANCH  10  23
BRANCH   5  25
ATOM     25  O   UNL     1       6.695  -7.332   2.014  0.00  0.00    -0.423 OA
BRANCH  25  26
ATOM     26  C   UNL     1       6.555  -8.073   0.903  0.00  0.00    +0.350 C 
ATOM     27  O   UNL     1       5.534  -8.011   0.260  0.00  0.00    -0.247 OA
BRANCH  26  28
ATOM     28  C   UNL     1       7.671  -8.983   0.459  0.00  0.00    +0.349 C 
BRANCH  28  29
ATOM     29  O   UNL     1       7.286  -9.660  -0.739  0.00  0.00    -0.481 OA
BRANCH  29  30
ATOM     30  C   UNL     1       8.186 -10.525  -1.276  0.00  0.00    +0.122 A 
ATOM     31  C   UNL     1       9.413 -10.723  -0.659  0.00  0.00    +0.046 A 
ATOM     32  C   UNL     1      10.326 -11.602  -1.207  0.00  0.00    +0.007 A 
ATOM     33  C   UNL     1      10.018 -12.286  -2.369  0.00  0.00    -0.047 A 
ATOM     34  C   UNL     1       8.797 -12.091  -2.985  0.00  0.00    -0.044 A 
ATOM     35  C   UNL     1       7.878 -11.216  -2.439  0.00  0.00    +0.049 A 
ATOM     36  C   UNL     1       8.465 -12.837  -4.252  0.00  0.00    +0.044 C 
ATOM     37  C   UNL     1      11.016 -13.246  -2.964  0.00  0.00    +0.044 C 
ENDBRANCH  29  30
ENDBRANCH  28  29
ENDBRANCH  26  28
ENDBRANCH  25  26
ENDBRANCH   5  25
TORSDOF 10
