REMARK  Name = ZINC09046332
REMARK  9 active torsions:
REMARK  status: ('A' for Active; 'I' for Inactive)
REMARK    1  A    between atoms: C_1  and  C_2
REMARK    2  A    between atoms: C_2  and  C_3
REMARK    3  A    between atoms: C_2  and  O_4
REMARK    4  A    between atoms: O_4  and  C_5
REMARK    5  A    between atoms: C_8  and  C_11
REMARK    6  A    between atoms: C_11  and  S_12
REMARK    7  A    between atoms: S_12  and  C_13
REMARK    8  A    between atoms: C_24  and  C_26
REMARK    9  A    between atoms: C_24  and  C_27
REMARK                            x       y       z     vdW  Elec       q    Type
REMARK                         _______ _______ _______ _____ _____    ______ ____
ROOT
ATOM      1  C   UNL     1      -2.294  -8.412  -1.634  0.00  0.00    +0.171 A 
ATOM      2  N   UNL     1      -2.538  -8.414  -2.928  0.00  0.00    -0.185 NA
ATOM      3  C   UNL     1      -2.761  -9.540  -3.612  0.00  0.00    +0.282 A 
ATOM      4  C   UNL     1      -2.735 -10.838  -2.896  0.00  0.00    +0.075 A 
ATOM      5  C   UNL     1      -2.956 -12.185  -3.452  0.00  0.00    -0.021 A 
ATOM      6  C   UNL     1      -2.873 -13.207  -2.587  0.00  0.00    +0.006 A 
ATOM      7  S   UNL     1      -2.514 -12.456  -1.013  0.00  0.00    -0.074 S 
ATOM      8  C   UNL     1      -2.471 -10.764  -1.532  0.00  0.00    +0.092 A 
ATOM      9  N   UNL     1      -2.249  -9.569  -0.916  0.00  0.00    -0.328 N 
ATOM     10  C   UNL     1      -3.024 -14.687  -2.811  0.00  0.00    +0.112 C 
ATOM     11  S   UNL     1      -3.812 -14.942  -4.432  0.00  0.00    -0.149 S 
ATOM     12  C   UNL     1      -2.946 -13.716  -5.462  0.00  0.00    +0.015 C 
ATOM     13  C   UNL     1      -3.268 -12.323  -4.937  0.00  0.00    +0.053 C 
ATOM     14  C   UNL     1      -1.437 -13.956  -5.386  0.00  0.00    +0.023 C 
ATOM     15  C   UNL     1      -3.417 -13.839  -6.912  0.00  0.00    +0.023 C 
ATOM     16  O   UNL     1      -2.984  -9.501  -4.812  0.00  0.00    -0.265 OA
ATOM     17  H   UNL     1      -2.063  -9.543   0.036  0.00  0.00    +0.168 HD
ENDROOT
BRANCH   1  18
ATOM     18  S   UNL     1      -2.012  -6.878  -0.814  0.00  0.00    -0.083 S 
BRANCH  18  19
ATOM     19  C   UNL     1      -2.167  -5.641  -2.132  0.00  0.00    +0.112 C 
BRANCH  19  23
ATOM     20  C   UNL     1      -1.538  -1.739  -0.505  0.00  0.00    +0.121 A 
ATOM     21  C   UNL     1      -0.465  -2.468  -0.997  0.00  0.00    +0.046 A 
ATOM     22  C   UNL     1      -0.671  -3.729  -1.522  0.00  0.00    +0.008 A 
ATOM     23  C   UNL     1      -1.945  -4.265  -1.558  0.00  0.00    -0.037 A 
ATOM     24  C   UNL     1      -3.017  -3.540  -1.070  0.00  0.00    +0.008 A 
ATOM     25  C   UNL     1      -2.815  -2.281  -0.538  0.00  0.00    +0.046 A 
BRANCH  20  26
ATOM     26  O   UNL     1      -1.339  -0.499   0.012  0.00  0.00    -0.489 OA
BRANCH  26  28
ATOM     27  C   UNL     1      -1.982   1.168   1.640  0.00  0.00    +0.051 C 
ATOM     28  C   UNL     1      -2.466   0.143   0.612  0.00  0.00    +0.167 C 
ATOM     29  C   UNL     1      -3.283   0.853  -0.469  0.00  0.00    +0.051 C 
ENDBRANCH  26  28
ENDBRANCH  20  26
ENDBRANCH  19  23
ENDBRANCH  18  19
ENDBRANCH   1  18
TORSDOF 5
