REMARK  Name = ZINC36819210
REMARK  12 active torsions:
REMARK  status: ('A' for Active; 'I' for Inactive)
REMARK    1  A    between atoms: C_1  and  C_2
REMARK    2  A    between atoms: C_2  and  C_3
REMARK    3  A    between atoms: C_6  and  C_15
REMARK    4  A    between atoms: C_13  and  O_14
REMARK    5  A    between atoms: C_15  and  S_16
REMARK    6  A    between atoms: S_16  and  C_17
REMARK    7  A    between atoms: C_20  and  C_29
REMARK    8  A    between atoms: N_21  and  C_22
REMARK    9  A    between atoms: C_29  and  C_31
REMARK   10  A    between atoms: C_29  and  N_32
REMARK   11  A    between atoms: N_32  and  C_33
REMARK   12  A    between atoms: N_32  and  C_34
REMARK                            x       y       z     vdW  Elec       q    Type
REMARK                         _______ _______ _______ _____ _____    ______ ____
ROOT
ATOM      1  C   UNL     1      -2.244  -0.294  -5.816  0.00  0.00    +0.196 A 
ATOM      2  N   UNL     1      -1.780  -1.396  -6.357  0.00  0.00    -0.122 NA
ATOM      3  N   UNL     1      -1.193  -1.124  -7.468  0.00  0.00    -0.135 NA
ATOM      4  C   UNL     1      -1.246   0.156  -7.702  0.00  0.00    +0.125 A 
ATOM      5  N   UNL     1      -1.923   0.733  -6.660  0.00  0.00    -0.275 N 
ENDROOT
BRANCH   5   6
ATOM      6  C   UNL     1      -2.222   2.093  -6.493  0.00  0.00    +0.050 A 
ATOM      7  C   UNL     1      -3.084   2.729  -7.376  0.00  0.00    +0.028 A 
ATOM      8  C   UNL     1      -3.378   4.068  -7.209  0.00  0.00    +0.022 A 
ATOM      9  C   UNL     1      -2.813   4.777  -6.163  0.00  0.00    +0.041 A 
ATOM     10  C   UNL     1      -1.953   4.145  -5.282  0.00  0.00    +0.022 A 
ATOM     11  C   UNL     1      -1.661   2.804  -5.441  0.00  0.00    +0.028 A 
ATOM     12 CL   UNL     1      -3.183   6.460  -5.957  0.00  0.00    -0.084 Cl
ENDBRANCH   5   6
BRANCH   4  13
ATOM     13  C   UNL     1      -0.673   0.870  -8.900  0.00  0.00    -0.003 C 
ATOM     14  C   UNL     1      -1.561   0.613 -10.119  0.00  0.00    -0.005 C 
BRANCH  13  15
ATOM     15  N   UNL     1       0.682   0.370  -9.166  0.00  0.00    +0.382 N 
ATOM     16  C   UNL     1       1.240   1.065 -10.334  0.00  0.00    -0.096 C 
ATOM     17  C   UNL     1       1.534   0.617  -7.996  0.00  0.00    -0.096 C 
ATOM     18  H   UNL     1       0.644  -0.621  -9.352  0.00  0.00    -0.082 HD
ENDBRANCH  13  15
ENDBRANCH   4  13
BRANCH   1  19
ATOM     19  S   UNL     1      -3.120  -0.163  -4.293  0.00  0.00    -0.081 S 
BRANCH  19  20
ATOM     20  C   UNL     1      -3.204  -1.871  -3.687  0.00  0.00    +0.113 C 
BRANCH  20  24
ATOM     21  C   UNL     1      -1.412  -0.526   0.013  0.00  0.00    -0.005 A 
ATOM     22  C   UNL     1      -1.986  -0.952  -1.150  0.00  0.00    +0.019 A 
ATOM     23  C   UNL     1      -3.299  -1.437  -1.140  0.00  0.00    +0.022 A 
ATOM     24  C   UNL     1      -3.940  -1.901  -2.372  0.00  0.00    -0.020 A 
ATOM     25  C   UNL     1      -5.216  -2.361  -2.297  0.00  0.00    +0.097 A 
ATOM     26  C   UNL     1      -5.883  -2.379  -1.055  0.00  0.00    +0.338 A 
ATOM     27  O   UNL     1      -7.027  -2.793  -1.002  0.00  0.00    -0.245 OA
ATOM     28  O   UNL     1      -5.290  -1.952   0.071  0.00  0.00    -0.422 OA
ATOM     29  C   UNL     1      -4.024  -1.483   0.066  0.00  0.00    +0.143 A 
ATOM     30  C   UNL     1      -3.425  -1.046   1.237  0.00  0.00    +0.092 A 
ATOM     31  C   UNL     1      -2.122  -0.575   1.210  0.00  0.00    +0.124 A 
BRANCH  21  33
ATOM     32  C   UNL     1      -0.019   1.526   0.010  0.00  0.00    +0.009 C 
ATOM     33  C   UNL     1       0.002  -0.004   0.002  0.00  0.00    +0.035 C 
ENDBRANCH  21  33
BRANCH  31  34
ATOM     34  O   UNL     1      -1.536  -0.152   2.359  0.00  0.00    -0.506 OA
ATOM     35  H   UNL     1      -1.668   0.788   2.546  0.00  0.00    +0.292 HD
ENDBRANCH  31  34
ENDBRANCH  20  24
ENDBRANCH  19  20
ENDBRANCH   1  19
TORSDOF 8
