REMARK  Name = ZINC16001263
REMARK  3 active torsions:
REMARK  status: ('A' for Active; 'I' for Inactive)
REMARK    1  A    between atoms: C_1  and  C_2
REMARK    2  A    between atoms: C_4  and  C_35
REMARK    3  A    between atoms: N_21  and  C_24
REMARK                            x       y       z     vdW  Elec       q    Type
REMARK                         _______ _______ _______ _____ _____    ______ ____
ROOT
ATOM      1  C   UNL     1       0.049   2.422  -5.436  0.00  0.00    +0.044 C 
ATOM      2  C   UNL     1       0.397   3.202  -4.195  0.00  0.00    -0.050 A 
ATOM      3  C   UNL     1       0.077   4.545  -4.107  0.00  0.00    +0.008 A 
ATOM      4  C   UNL     1       0.392   5.263  -2.973  0.00  0.00    -0.029 A 
ATOM      5  C   UNL     1       1.036   4.642  -1.905  0.00  0.00    +0.039 A 
ATOM      6  C   UNL     1       1.355   3.291  -2.005  0.00  0.00    -0.027 A 
ATOM      7  C   UNL     1       1.037   2.577  -3.139  0.00  0.00    +0.008 A 
ATOM      8  C   UNL     1       2.030   2.932  -0.713  0.00  0.00    +0.053 C 
ATOM      9  C   UNL     1       1.402   1.776  -0.002  0.00  0.00    +0.089 C 
ATOM     10  C   UNL     1       1.952   0.619  -0.929  0.00  0.00    +0.074 C 
ATOM     11  C   UNL     1       3.393   0.968  -0.998  0.00  0.00    -0.054 C 
ATOM     12  N   UNL     1       3.430   2.470  -0.970  0.00  0.00    +0.395 N 
ATOM     13  C   UNL     1       4.269   2.881   0.176  0.00  0.00    -0.076 C 
ATOM     14  C   UNL     1       5.160   1.658   0.500  0.00  0.00    -0.020 C 
ATOM     15  C   UNL     1       4.188   0.481   0.225  0.00  0.00    -0.016 C 
ATOM     16  C   UNL     1       1.226  -0.513  -0.351  0.00  0.00    +0.228 C 
ATOM     17  O   UNL     1       1.621  -1.651  -0.214  0.00  0.00    -0.275 OA
ATOM     18  N   UNL     1       0.002  -0.004   0.002  0.00  0.00    -0.210 N 
ATOM     19  C   UNL     1      -0.017   1.366   0.010  0.00  0.00    +0.229 C 
ATOM     20  O   UNL     1      -0.990   2.088   0.018  0.00  0.00    -0.275 OA
ATOM     21  C   UNL     1       2.043   4.204   0.089  0.00  0.00    +0.212 C 
ATOM     22  O   UNL     1       2.498   4.353   1.204  0.00  0.00    -0.277 OA
ATOM     23  N   UNL     1       1.452   5.146  -0.671  0.00  0.00    -0.286 N 
ATOM     24  C   UNL     1       0.039   6.726  -2.888  0.00  0.00    +0.045 C 
ATOM     25  H   UNL     1       1.279   6.203  -0.422  0.00  0.00    +0.155 HD
ATOM     26  H   UNL     1       3.834   2.896  -1.900  0.00  0.00    -0.079 HD
ENDROOT
BRANCH  18  27
ATOM     27  C   UNL     1      -1.108  -0.799   0.320  0.00  0.00    +0.047 A 
ATOM     28  C   UNL     1      -2.312  -0.203   0.672  0.00  0.00    +0.044 A 
ATOM     29  C   UNL     1      -3.406  -0.989   0.980  0.00  0.00    +0.044 A 
ATOM     30  C   UNL     1      -3.301  -2.369   0.947  0.00  0.00    +0.040 A 
ATOM     31  C   UNL     1      -2.101  -2.965   0.601  0.00  0.00    +0.044 A 
ATOM     32  C   UNL     1      -1.004  -2.183   0.288  0.00  0.00    +0.044 A 
ATOM     33 CL   UNL     1      -1.972  -4.695   0.561  0.00  0.00    -0.083 Cl
ATOM     34 CL   UNL     1      -4.914  -0.245   1.414  0.00  0.00    -0.083 Cl
ENDBRANCH  18  27
TORSDOF 1
