REMARK  Name = ZINC05642727
REMARK  5 active torsions:
REMARK  status: ('A' for Active; 'I' for Inactive)
REMARK    1  A    between atoms: N_11  and  N_12
REMARK    2  A    between atoms: C_13  and  C_14
REMARK    3  A    between atoms: C_17  and  O_22
REMARK    4  A    between atoms: C_18  and  O_21
REMARK    5  A    between atoms: C_19  and  O_20
REMARK                            x       y       z     vdW  Elec       q    Type
REMARK                         _______ _______ _______ _____ _____    ______ ____
ROOT
ATOM      1  N   UNL     1      -5.370   3.736   0.048  0.00  0.00    -0.187 NA
ATOM      2  C   UNL     1      -6.668   3.760   0.054  0.00  0.00    +0.142 C 
ENDROOT
BRANCH   1  13
ATOM      3  C   UNL     1       1.172   1.783   0.000  0.00  0.00    +0.002 A 
ATOM      4  C   UNL     1       1.162   3.170   0.007  0.00  0.00    +0.002 A 
ATOM      5  C   UNL     1      -0.029   3.861   0.022  0.00  0.00    +0.030 A 
ATOM      6  C   UNL     1      -1.238   3.159   0.030  0.00  0.00    +0.091 A 
ATOM      7  C   UNL     1      -1.222   1.754   0.017  0.00  0.00    +0.067 A 
ATOM      8  C   UNL     1      -0.013   1.076   0.008  0.00  0.00    +0.028 A 
ATOM      9  N   UNL     1      -2.547   1.354   0.022  0.00  0.00    -0.325 N 
ATOM     10  H   UNL     1      -2.882   0.411   0.019  0.00  0.00    +0.169 HD
ATOM     11  C   UNL     1      -3.313   2.486   0.031  0.00  0.00    +0.214 A 
ATOM     12  N   UNL     1      -2.540   3.545   0.043  0.00  0.00    -0.213 NA
ATOM     13  N   UNL     1      -4.691   2.511   0.038  0.00  0.00    -0.207 N 
ATOM     14  H   UNL     1      -5.191   1.680   0.036  0.00  0.00    +0.177 HD
ENDBRANCH   1  13
BRANCH   2  15
ATOM     15  C   UNL     1      -7.381   5.049   0.064  0.00  0.00    +0.040 A 
ATOM     16  C   UNL     1      -8.779   5.077   0.071  0.00  0.00    +0.017 A 
ATOM     17  C   UNL     1      -9.444   6.284   0.081  0.00  0.00    +0.050 A 
ATOM     18  C   UNL     1      -8.732   7.476   0.083  0.00  0.00    +0.162 A 
ATOM     19  C   UNL     1      -7.341   7.460   0.076  0.00  0.00    +0.201 A 
ATOM     20  C   UNL     1      -6.661   6.251   0.073  0.00  0.00    +0.171 A 
BRANCH  20  21
ATOM     21  O   UNL     1      -5.302   6.232   0.072  0.00  0.00    -0.503 OA
ATOM     22  H   UNL     1      -4.910   6.233  -0.812  0.00  0.00    +0.292 HD
ENDBRANCH  20  21
BRANCH  19  23
ATOM     23  O   UNL     1      -6.647   8.631   0.079  0.00  0.00    -0.501 OA
ATOM     24  H   UNL     1      -6.442   8.965   0.964  0.00  0.00    +0.292 HD
ENDBRANCH  19  23
BRANCH  18  25
ATOM     25  O   UNL     1      -9.396   8.662   0.092  0.00  0.00    -0.503 OA
ATOM     26  H   UNL     1      -9.584   9.001   0.978  0.00  0.00    +0.292 HD
ENDBRANCH  18  25
ENDBRANCH   2  15
TORSDOF 5
