REMARK  Name = ZINC02342911
REMARK  7 active torsions:
REMARK  status: ('A' for Active; 'I' for Inactive)
REMARK    1  A    between atoms: C_1  and  C_2
REMARK    2  A    between atoms: C_2  and  O_3
REMARK    3  A    between atoms: O_3  and  C_4
REMARK    4  A    between atoms: C_6  and  C_11
REMARK    5  A    between atoms: C_9  and  O_10
REMARK    6  A    between atoms: C_32  and  O_36
REMARK    7  A    between atoms: O_36  and  C_37
REMARK                            x       y       z     vdW  Elec       q    Type
REMARK                         _______ _______ _______ _____ _____    ______ ____
ROOT
ATOM      1  C   UNL     1       1.671   7.406   0.023  0.00  0.00    +0.152 C 
ATOM      2  C   UNL     1       1.248   5.960   0.020  0.00  0.00    +0.072 A 
ATOM      3  C   UNL     1      -0.065   5.309   0.030  0.00  0.00    +0.199 A 
ATOM      4  O   UNL     1      -1.098   5.954   0.042  0.00  0.00    -0.287 OA
ATOM      5  C   UNL     1      -0.072   3.833   0.022  0.00  0.00    +0.064 A 
ATOM      6  C   UNL     1      -1.265   3.112   0.029  0.00  0.00    +0.015 A 
ATOM      7  C   UNL     1      -1.229   1.745   0.017  0.00  0.00    +0.001 A 
ATOM      8  C   UNL     1      -0.013   1.076   0.008  0.00  0.00    +0.004 A 
ATOM      9  C   UNL     1       1.176   1.772   0.000  0.00  0.00    +0.047 A 
ATOM     10  C   UNL     1       1.164   3.165   0.007  0.00  0.00    +0.139 A 
ATOM     11  O   UNL     1       2.316   3.860  -0.000  0.00  0.00    -0.450 OA
ATOM     12  C   UNL     1       2.376   5.206   0.006  0.00  0.00    +0.199 A 
ATOM     13  C   UNL     1       3.546   6.117  -0.001  0.00  0.00    +0.289 C 
ATOM     14  O   UNL     1       4.707   5.758  -0.013  0.00  0.00    -0.266 OA
ATOM     15  N   UNL     1       3.139   7.398   0.009  0.00  0.00    -0.232 N 
ATOM     16  C   UNL     1       3.959   8.514   0.005  0.00  0.00    +0.169 A 
ATOM     17  N   UNL     1       3.623   9.782   0.008  0.00  0.00    -0.224 NA
ATOM     18  C   UNL     1       4.538  10.776   0.008  0.00  0.00    +0.081 A 
ATOM     19  C   UNL     1       4.311  12.172   0.014  0.00  0.00    +0.032 A 
ATOM     20  C   UNL     1       5.351  13.049   0.007  0.00  0.00    +0.048 A 
ATOM     21  C   UNL     1       6.672  12.613  -0.007  0.00  0.00    +0.121 A 
ATOM     22  C   UNL     1       6.936  11.251  -0.014  0.00  0.00    +0.063 A 
ATOM     23  C   UNL     1       5.890  10.362  -0.006  0.00  0.00    +0.044 A 
ATOM     24  S   UNL     1       5.744   8.592  -0.011  0.00  0.00    -0.052 S 
ENDROOT
BRANCH   1  27
ATOM     25  C   UNL     1      -0.479   9.527  -2.247  0.00  0.00    +0.162 A 
ATOM     26  C   UNL     1       0.007   8.886  -1.119  0.00  0.00    +0.055 A 
ATOM     27  C   UNL     1       1.143   8.103  -1.205  0.00  0.00    -0.018 A 
ATOM     28  C   UNL     1       1.800   7.963  -2.413  0.00  0.00    +0.009 A 
ATOM     29  C   UNL     1       1.317   8.596  -3.543  0.00  0.00    +0.049 A 
ATOM     30  C   UNL     1       0.179   9.382  -3.464  0.00  0.00    +0.158 A 
BRANCH  30  31
ATOM     31  O   UNL     1      -0.294  10.010  -4.574  0.00  0.00    -0.503 OA
ATOM     32  H   UNL     1       0.069  10.896  -4.709  0.00  0.00    +0.292 HD
ENDBRANCH  30  31
BRANCH  25  33
ATOM     33  O   UNL     1      -1.597  10.298  -2.164  0.00  0.00    -0.489 OA
BRANCH  33  35
ATOM     34  C   UNL     1      -3.451  11.303  -0.985  0.00  0.00    +0.048 C 
ATOM     35  C   UNL     1      -2.219  10.402  -0.882  0.00  0.00    +0.226 C 
ENDBRANCH  33  35
ENDBRANCH  25  33
ENDBRANCH   1  27
BRANCH  21  36
ATOM     36  O   UNL     1       7.693  13.512  -0.014  0.00  0.00    -0.495 OA
ATOM     37  C   UNL     1       7.339  14.896  -0.006  0.00  0.00    +0.277 C 
ENDBRANCH  21  36
TORSDOF 5
