REMARK  Name = ZINC23259768
REMARK  11 active torsions:
REMARK  status: ('A' for Active; 'I' for Inactive)
REMARK    1  A    between atoms: C_1  and  C_2
REMARK    2  A    between atoms: C_5  and  C_8
REMARK    3  A    between atoms: C_11  and  C_14
REMARK    4  A    between atoms: C_19  and  C_21
REMARK    5  A    between atoms: C_21  and  N_22
REMARK    6  A    between atoms: N_22  and  C_23
REMARK    7  A    between atoms: N_22  and  C_24
REMARK    8  A    between atoms: C_24  and  C_26
REMARK    9  A    between atoms: C_24  and  C_27
REMARK   10  A    between atoms: C_30  and  S_33
REMARK   11  A    between atoms: S_33  and  N_36
REMARK                            x       y       z     vdW  Elec       q    Type
REMARK                         _______ _______ _______ _____ _____    ______ ____
ROOT
ATOM      1  C   UNL     1      -8.758  -0.170  -1.534  0.00  0.00    +0.069 C 
ATOM      2  N   UNL     1      -7.515   0.051  -1.282  0.00  0.00    -0.181 NA
ATOM      3  N   UNL     1      -7.052   1.284  -1.738  0.00  0.00    -0.184 N 
ATOM      4  C   UNL     1      -8.158   1.990  -2.405  0.00  0.00    +0.172 C 
ATOM      5  C   UNL     1      -9.341   1.010  -2.279  0.00  0.00    +0.090 C 
ATOM      6  C   UNL     1      -5.796   1.751  -1.595  0.00  0.00    +0.219 C 
ATOM      7  O   UNL     1      -5.501   2.841  -2.038  0.00  0.00    -0.276 OA
ENDROOT
BRANCH   1  12
ATOM      8  C   UNL     1     -11.645  -4.926  -0.074  0.00  0.00    +0.044 C 
ATOM      9  C   UNL     1     -10.889  -3.680  -0.457  0.00  0.00    -0.050 A 
ATOM     10  C   UNL     1      -9.551  -3.556  -0.124  0.00  0.00    +0.004 A 
ATOM     11  C   UNL     1      -8.853  -2.419  -0.471  0.00  0.00    +0.010 A 
ATOM     12  C   UNL     1      -9.498  -1.390  -1.160  0.00  0.00    -0.002 A 
ATOM     13  C   UNL     1     -10.850  -1.519  -1.489  0.00  0.00    +0.010 A 
ATOM     14  C   UNL     1     -11.535  -2.664  -1.140  0.00  0.00    +0.004 A 
ENDBRANCH   1  12
BRANCH   4  15
ATOM     15  C   UNL     1      -7.829   2.239  -3.855  0.00  0.00    +0.128 A 
ATOM     16  C   UNL     1      -8.131   3.350  -4.550  0.00  0.00    +0.046 A 
ATOM     17  C   UNL     1      -7.640   3.159  -5.862  0.00  0.00    +0.041 A 
ATOM     18  C   UNL     1      -7.066   1.942  -5.890  0.00  0.00    +0.195 A 
ATOM     19  O   UNL     1      -7.178   1.392  -4.670  0.00  0.00    -0.466 OA
ENDBRANCH   4  15
BRANCH   6  20
ATOM     20  C   UNL     1      -4.759   0.920  -0.886  0.00  0.00    +0.021 C 
BRANCH  20  21
ATOM     21  N   UNL     1      -3.482   1.645  -0.863  0.00  0.00    +0.388 N 
ATOM     22  C   UNL     1      -2.939   1.799  -2.219  0.00  0.00    -0.095 C 
ATOM     23  H   UNL     1      -3.671   2.651  -0.459  0.00  0.00    -0.081 HD
BRANCH  21  24
ATOM     24  C   UNL     1      -2.514   0.980   0.019  0.00  0.00    -0.041 C 
ATOM     25  C   UNL     1      -3.073   0.926   1.442  0.00  0.00    -0.008 C 
BRANCH  24  26
ATOM     26  C   UNL     1      -1.219   1.751   0.017  0.00  0.00    -0.061 A 
ATOM     27  C   UNL     1      -0.013   1.076   0.008  0.00  0.00    +0.004 A 
ATOM     28  C   UNL     1       1.175   1.783   0.000  0.00  0.00    +0.029 A 
ATOM     29  C   UNL     1       1.156   3.165   0.008  0.00  0.00    +0.105 A 
ATOM     30  C   UNL     1      -0.050   3.840   0.022  0.00  0.00    +0.029 A 
ATOM     31  C   UNL     1      -1.238   3.133   0.029  0.00  0.00    +0.004 A 
BRANCH  29  32
ATOM     32  S   UNL     1       2.670   4.067  -0.001  0.00  0.00    +0.056 S 
ATOM     33  O   UNL     1       2.387   5.342   0.559  0.00  0.00    -0.153 OA
ATOM     34  O   UNL     1       3.661   3.202   0.536  0.00  0.00    -0.153 OA
BRANCH  32  35
ATOM     35  N   UNL     1       3.076   4.326  -1.585  0.00  0.00    -0.204 NA
ATOM     36  H   UNL     1       4.020   4.889  -1.635  0.00  0.00    +0.144 HD
ATOM     37  H   UNL     1       2.280   4.902  -2.079  0.00  0.00    +0.144 HD
ENDBRANCH  32  35
ENDBRANCH  29  32
ENDBRANCH  24  26
ENDBRANCH  21  24
ENDBRANCH  20  21
ENDBRANCH   6  20
TORSDOF 8
