REMARK  Name = ZINC22022225
REMARK  6 active torsions:
REMARK  status: ('A' for Active; 'I' for Inactive)
REMARK    1  A    between atoms: C_1  and  C_2
REMARK    2  A    between atoms: C_2  and  C_4
REMARK    3  A    between atoms: C_2  and  S_15
REMARK    4  A    between atoms: N_6  and  C_7
REMARK    5  A    between atoms: C_7  and  C_13
REMARK    6  A    between atoms: S_15  and  C_16
REMARK                            x       y       z     vdW  Elec       q    Type
REMARK                         _______ _______ _______ _____ _____    ______ ____
ROOT
ATOM      1  C   UNL     1      -0.019   1.526   0.010  0.00  0.00    +0.029 C 
ATOM      2  C   UNL     1       0.002  -0.004   0.002  0.00  0.00    +0.136 C 
ENDROOT
BRANCH   2   3
ATOM      3  C   UNL     1       0.731  -0.503   1.223  0.00  0.00    +0.227 C 
ATOM      4  O   UNL     1       1.911  -0.775   1.156  0.00  0.00    -0.275 OA
ATOM      5  N   UNL     1       0.071  -0.647   2.389  0.00  0.00    -0.296 N 
ATOM      6  H   UNL     1      -0.872  -0.430   2.443  0.00  0.00    +0.150 HD
BRANCH   5   7
ATOM      7  C   UNL     1       0.780  -1.133   3.576  0.00  0.00    +0.121 C 
ATOM      8  C   UNL     1       1.347  -2.526   3.298  0.00  0.00    +0.041 C 
ATOM      9  C   UNL     1       2.087  -3.033   4.537  0.00  0.00    +0.003 C 
ATOM     10  C   UNL     1       1.116  -3.104   5.717  0.00  0.00    +0.000 C 
ATOM     11  C   UNL     1       0.549  -1.711   5.996  0.00  0.00    +0.003 C 
ATOM     12  C   UNL     1      -0.191  -1.204   4.756  0.00  0.00    +0.041 C 
BRANCH   7  13
ATOM     13  C   UNL     1       1.881  -0.211   3.902  0.00  0.00    +0.088 C 
ATOM     14  N   UNL     1       2.731   0.500   4.153  0.00  0.00    -0.194 NA
ENDBRANCH   7  13
ENDBRANCH   5   7
ENDBRANCH   2   3
BRANCH   2  15
ATOM     15  S   UNL     1       0.851  -0.589  -1.490  0.00  0.00    -0.087 S 
BRANCH  15  16
ATOM     16  C   UNL     1      -0.189  -0.057  -2.809  0.00  0.00    +0.132 C 
ATOM     17  N   UNL     1      -1.286   0.607  -2.557  0.00  0.00    -0.234 NA
ATOM     18  C   UNL     1      -2.150   1.087  -3.493  0.00  0.00    +0.070 A 
ATOM     19  C   UNL     1      -2.981   2.154  -3.108  0.00  0.00    +0.028 A 
ATOM     20  C   UNL     1      -3.883   2.692  -3.996  0.00  0.00    +0.002 A 
ATOM     21  C   UNL     1      -3.980   2.186  -5.280  0.00  0.00    +0.000 A 
ATOM     22  C   UNL     1      -3.168   1.139  -5.670  0.00  0.00    +0.006 A 
ATOM     23  C   UNL     1      -2.255   0.589  -4.788  0.00  0.00    -0.012 A 
ATOM     24  C   UNL     1      -1.390  -0.547  -5.278  0.00  0.00    +0.113 C 
ATOM     25  S   UNL     1       0.244  -0.409  -4.485  0.00  0.00    -0.094 S 
ENDBRANCH  15  16
ENDBRANCH   2  15
TORSDOF 5
