REMARK  Name = ZINC12525532
REMARK  5 active torsions:
REMARK  status: ('A' for Active; 'I' for Inactive)
REMARK    1  A    between atoms: C_1  and  C_2
REMARK    2  A    between atoms: C_2  and  C_3
REMARK    3  A    between atoms: C_2  and  C_4
REMARK    4  A    between atoms: C_4  and  C_6
REMARK    5  A    between atoms: C_4  and  N_16
REMARK                            x       y       z     vdW  Elec       q    Type
REMARK                         _______ _______ _______ _____ _____    ______ ____
ROOT
ATOM      1  C   UNL     1       0.718  -0.497  -1.257  0.00  0.00    +0.140 C 
ENDROOT
BRANCH   1   2
ATOM      2  N   UNL     1       0.738  -1.962  -1.265  0.00  0.00    -0.318 N 
ATOM      3  C   UNL     1       1.735  -2.644  -0.591  0.00  0.00    +0.131 A 
ATOM      4  C   UNL     1       1.760  -4.066  -0.588  0.00  0.00    +0.047 A 
ATOM      5  C   UNL     1       0.853  -5.012  -1.216  0.00  0.00    +0.021 A 
ATOM      6  C   UNL     1       1.078  -6.327  -1.075  0.00  0.00    +0.048 A 
ATOM      7  S   UNL     1       2.558  -6.392  -0.082  0.00  0.00    -0.077 S 
ATOM      8  C   UNL     1       2.827  -4.652   0.128  0.00  0.00    +0.113 A 
ATOM      9  N   UNL     1       3.722  -3.913   0.753  0.00  0.00    -0.228 NA
ATOM     10  C   UNL     1       3.643  -2.597   0.719  0.00  0.00    +0.224 A 
ATOM     11  N   UNL     1       2.675  -1.982   0.064  0.00  0.00    -0.220 NA
ATOM     12  H   UNL     1       0.052  -2.454  -1.743  0.00  0.00    +0.148 HD
ENDBRANCH   1   2
BRANCH   1  13
ATOM     13  C   UNL     1      -0.011   0.002  -2.478  0.00  0.00    +0.129 A 
ATOM     14  N   UNL     1       0.556   0.719  -3.485  0.00  0.00    -0.340 N 
ATOM     15  H   UNL     1       1.513   1.003  -3.544  0.00  0.00    +0.167 HD
ATOM     16  C   UNL     1      -0.434   0.982  -4.410  0.00  0.00    +0.066 A 
ATOM     17  C   UNL     1      -0.470   1.657  -5.622  0.00  0.00    +0.028 A 
ATOM     18  C   UNL     1      -1.655   1.742  -6.322  0.00  0.00    +0.002 A 
ATOM     19  C   UNL     1      -2.810   1.157  -5.822  0.00  0.00    +0.002 A 
ATOM     20  C   UNL     1      -2.793   0.489  -4.631  0.00  0.00    +0.030 A 
ATOM     21  C   UNL     1      -1.604   0.390  -3.904  0.00  0.00    +0.089 A 
ATOM     22  N   UNL     1      -1.273  -0.195  -2.725  0.00  0.00    -0.231 NA
ENDBRANCH   1  13
BRANCH   1  24
ATOM     23  C   UNL     1      -0.019   1.526   0.010  0.00  0.00    +0.009 C 
ATOM     24  C   UNL     1       0.002  -0.004   0.002  0.00  0.00    +0.011 C 
ATOM     25  C   UNL     1       0.742  -0.511   1.242  0.00  0.00    +0.009 C 
ENDBRANCH   1  24
TORSDOF 3
