REMARK  Name = ZINC41178184
REMARK  7 active torsions:
REMARK  status: ('A' for Active; 'I' for Inactive)
REMARK    1  A    between atoms: C_1  and  C_2
REMARK    2  A    between atoms: C_2  and  C_3
REMARK    3  A    between atoms: C_2  and  C_4
REMARK    4  A    between atoms: C_7  and  N_10
REMARK    5  A    between atoms: C_12  and  C_17
REMARK    6  A    between atoms: C_17  and  N_18
REMARK    7  A    between atoms: N_21  and  C_22
REMARK                            x       y       z     vdW  Elec       q    Type
REMARK                         _______ _______ _______ _____ _____    ______ ____
ROOT
ATOM      1  N   UNL     1       2.746  -1.883   4.598  0.00  0.00    -0.234 N 
ATOM      2  C   UNL     1       2.188  -2.758   5.648  0.00  0.00    +0.163 C 
ATOM      3  C   UNL     1       3.229  -2.613   6.783  0.00  0.00    +0.213 C 
ATOM      4  O   UNL     1       4.412  -2.225   6.058  0.00  0.00    -0.444 OA
ATOM      5  C   UNL     1       4.025  -1.617   4.924  0.00  0.00    +0.408 C 
ATOM      6  O   UNL     1       4.751  -0.900   4.264  0.00  0.00    -0.226 OA
ENDROOT
BRANCH   1  10
ATOM      7  C   UNL     1       0.731  -0.503   1.223  0.00  0.00    -0.045 A 
ATOM      8  C   UNL     1       2.050  -0.147   1.433  0.00  0.00    +0.006 A 
ATOM      9  C   UNL     1       2.721  -0.603   2.550  0.00  0.00    +0.024 A 
ATOM     10  C   UNL     1       2.069  -1.419   3.465  0.00  0.00    +0.040 A 
ATOM     11  C   UNL     1       0.744  -1.775   3.252  0.00  0.00    +0.024 A 
ATOM     12  C   UNL     1       0.077  -1.312   2.134  0.00  0.00    +0.006 A 
BRANCH   7  14
ATOM     13  C   UNL     1      -0.019   1.526   0.010  0.00  0.00    +0.012 C 
ATOM     14  C   UNL     1       0.002  -0.004   0.002  0.00  0.00    +0.013 C 
ATOM     15  C   UNL     1       0.718  -0.497  -1.257  0.00  0.00    +0.012 C 
ENDBRANCH   7  14
ENDBRANCH   1  10
BRANCH   3  16
ATOM     16  C   UNL     1       3.442  -3.946   7.504  0.00  0.00    +0.152 C 
BRANCH  16  17
ATOM     17  N   UNL     1       4.340  -3.746   8.644  0.00  0.00    -0.296 N 
ATOM     18  C   UNL     1       4.672  -4.789   9.431  0.00  0.00    +0.300 C 
ATOM     19  O   UNL     1       4.226  -5.896   9.194  0.00  0.00    -0.253 OA
ATOM     20  N   UNL     1       5.498  -4.606  10.479  0.00  0.00    -0.297 N 
ATOM     21  H   UNL     1       4.695  -2.864   8.833  0.00  0.00    +0.150 HD
ATOM     22  H   UNL     1       5.854  -3.724  10.668  0.00  0.00    +0.151 HD
BRANCH  20  23
ATOM     23  C   UNL     1       5.859  -5.740  11.334  0.00  0.00    +0.074 C 
ATOM     24  C   UNL     1       4.783  -5.935  12.404  0.00  0.00    +0.022 C 
ATOM     25  C   UNL     1       5.160  -7.119  13.297  0.00  0.00    +0.002 C 
ATOM     26  C   UNL     1       6.505  -6.841  13.971  0.00  0.00    +0.000 C 
ATOM     27  C   UNL     1       7.581  -6.646  12.902  0.00  0.00    +0.002 C 
ATOM     28  C   UNL     1       7.204  -5.462  12.009  0.00  0.00    +0.022 C 
ENDBRANCH  20  23
ENDBRANCH  16  17
ENDBRANCH   3  16
TORSDOF 5
