REMARK  Name = ZINC00191114
REMARK  7 active torsions:
REMARK  status: ('A' for Active; 'I' for Inactive)
REMARK    1  A    between atoms: C_1  and  C_2
REMARK    2  A    between atoms: C_5  and  C_8
REMARK    3  A    between atoms: C_10  and  C_17
REMARK    4  A    between atoms: C_11  and  C_16
REMARK    5  A    between atoms: C_17  and  O_19
REMARK    6  A    between atoms: O_19  and  C_20
REMARK    7  A    between atoms: C_23  and  C_26
REMARK                            x       y       z     vdW  Elec       q    Type
REMARK                         _______ _______ _______ _____ _____    ______ ____
ROOT
ATOM      1  C   UNL     1      -1.085   2.151   0.099  0.00  0.00    +0.143 C 
ATOM      2  C   UNL     1      -1.471   2.533   1.514  0.00  0.00    +0.078 C 
ATOM      3  C   UNL     1      -1.895   3.796   1.731  0.00  0.00    +0.021 C 
ATOM      4  N   UNL     1      -1.973   4.699   0.709  0.00  0.00    -0.273 N 
ATOM      5  C   UNL     1      -1.645   4.416  -0.558  0.00  0.00    +0.304 C 
ATOM      6  O   UNL     1      -1.749   5.287  -1.400  0.00  0.00    -0.252 OA
ATOM      7  N   UNL     1      -1.205   3.199  -0.930  0.00  0.00    -0.288 N 
ATOM      8  C   UNL     1      -2.288   4.217   3.124  0.00  0.00    +0.061 C 
ATOM      9  H   UNL     1      -2.284   5.595   0.913  0.00  0.00    +0.156 HD
ATOM     10  H   UNL     1      -0.973   3.016  -1.854  0.00  0.00    +0.151 HD
ENDROOT
BRANCH   1  15
ATOM     11  C   UNL     1       4.404   0.346   0.153  0.00  0.00    +0.044 C 
ATOM     12  C   UNL     1       2.973   0.817   0.141  0.00  0.00    -0.050 A 
ATOM     13  C   UNL     1       1.942  -0.102   0.207  0.00  0.00    +0.004 A 
ATOM     14  C   UNL     1       0.629   0.330   0.195  0.00  0.00    +0.006 A 
ATOM     15  C   UNL     1       0.346   1.681   0.118  0.00  0.00    -0.022 A 
ATOM     16  C   UNL     1       1.377   2.600   0.053  0.00  0.00    +0.006 A 
ATOM     17  C   UNL     1       2.690   2.168   0.064  0.00  0.00    +0.004 A 
ENDBRANCH   1  15
BRANCH   2  18
ATOM     18  C   UNL     1      -1.389   1.597   2.571  0.00  0.00    +0.339 C 
ATOM     19  O   UNL     1      -1.581   1.956   3.718  0.00  0.00    -0.245 OA
BRANCH  18  20
ATOM     20  O   UNL     1      -1.098   0.305   2.308  0.00  0.00    -0.458 OA
BRANCH  20  21
ATOM     21  C   UNL     1      -1.032  -0.585   3.424  0.00  0.00    +0.177 C 
ATOM     22  C   UNL     1       0.398  -0.615   3.968  0.00  0.00    +0.045 C 
ATOM     23  C   UNL     1       0.469  -1.568   5.163  0.00  0.00    +0.007 C 
ATOM     24  C   UNL     1       0.063  -2.975   4.718  0.00  0.00    -0.014 C 
ATOM     25  C   UNL     1      -1.367  -2.944   4.175  0.00  0.00    +0.007 C 
ATOM     26  C   UNL     1      -1.438  -1.991   2.980  0.00  0.00    +0.045 C 
ATOM     27  C   UNL     1       0.134  -3.928   5.913  0.00  0.00    +0.007 C 
ENDBRANCH  20  21
ENDBRANCH  18  20
ENDBRANCH   2  18
TORSDOF 4
