REMARK  Name = ZINC13131472
REMARK  2 active torsions:
REMARK  status: ('A' for Active; 'I' for Inactive)
REMARK    1  A    between atoms: C_4  and  C_8
REMARK    2  A    between atoms: C_11  and  C_20
REMARK                            x       y       z     vdW  Elec       q    Type
REMARK                         _______ _______ _______ _____ _____    ______ ____
ROOT
ATOM      1  C   UNL     1       3.713  -0.710  -0.038  0.00  0.00    +0.147 C 
ATOM      2  C   UNL     1       3.793  -1.589  -1.291  0.00  0.00    +0.059 C 
ATOM      3  C   UNL     1       4.990  -2.541  -1.180  0.00  0.00    +0.106 C 
ATOM      4  N   UNL     1       4.780  -3.428  -0.020  0.00  0.00    -0.307 N 
ATOM      5  C   UNL     1       4.308  -2.824   1.138  0.00  0.00    +0.216 A 
ATOM      6  N   UNL     1       3.813  -1.561   1.147  0.00  0.00    -0.224 N 
ATOM      7  N   UNL     1       3.443  -1.285   2.464  0.00  0.00    -0.132 NA
ATOM      8  C   UNL     1       3.722  -2.359   3.169  0.00  0.00    +0.233 A 
ATOM      9  N   UNL     1       4.244  -3.294   2.355  0.00  0.00    -0.180 NA
ATOM     10  N   UNL     1       3.506  -2.506   4.540  0.00  0.00    -0.326 N 
ATOM     11  H   UNL     1       4.962  -4.380  -0.064  0.00  0.00    +0.149 HD
ATOM     12  H   UNL     1       3.120  -1.778   5.052  0.00  0.00    +0.145 HD
ATOM     13  H   UNL     1       3.742  -3.337   4.982  0.00  0.00    +0.145 HD
ENDROOT
BRANCH   1  17
ATOM     14  C   UNL     1      -0.017   1.378   0.010  0.00  0.00    +0.004 A 
ATOM     15  C   UNL     1       1.170   2.086   0.002  0.00  0.00    +0.039 A 
ATOM     16  C   UNL     1       2.379   1.411  -0.013  0.00  0.00    +0.130 A 
ATOM     17  C   UNL     1       2.398   0.026  -0.021  0.00  0.00    +0.031 A 
ATOM     18  C   UNL     1       1.209  -0.680  -0.013  0.00  0.00    +0.049 A 
ATOM     19  C   UNL     1       0.002  -0.004   0.002  0.00  0.00    +0.020 A 
ATOM     20 CL   UNL     1       1.232  -2.416  -0.022  0.00  0.00    -0.083 Cl
ATOM     21  F   UNL     1       3.539   2.103  -0.021  0.00  0.00    -0.205 F 
ENDBRANCH   1  17
BRANCH   3  22
ATOM     22  C   UNL     1       5.101  -3.363  -2.438  0.00  0.00    -0.027 A 
ATOM     23  C   UNL     1       4.283  -4.463  -2.618  0.00  0.00    +0.008 A 
ATOM     24  C   UNL     1       4.383  -5.218  -3.771  0.00  0.00    +0.038 A 
ATOM     25  C   UNL     1       5.304  -4.873  -4.746  0.00  0.00    +0.123 A 
ATOM     26  C   UNL     1       6.122  -3.771  -4.564  0.00  0.00    +0.038 A 
ATOM     27  C   UNL     1       6.017  -3.014  -3.413  0.00  0.00    +0.008 A 
ATOM     28  F   UNL     1       5.403  -5.611  -5.873  0.00  0.00    -0.205 F 
ENDBRANCH   3  22
TORSDOF 2
