REMARK  Name = ZINC33678477
REMARK  14 active torsions:
REMARK  status: ('A' for Active; 'I' for Inactive)
REMARK    1  A    between atoms: C_1  and  C_2
REMARK    2  A    between atoms: C_2  and  O_3
REMARK    3  A    between atoms: O_3  and  C_4
REMARK    4  A    between atoms: C_4  and  C_6
REMARK    5  A    between atoms: C_7  and  C_36
REMARK    6  A    between atoms: C_11  and  C_13
REMARK    7  A    between atoms: C_15  and  O_22
REMARK    8  A    between atoms: C_16  and  O_20
REMARK    9  A    between atoms: O_20  and  C_21
REMARK   10  A    between atoms: O_22  and  C_23
REMARK   11  A    between atoms: C_26  and  C_32
REMARK   12  A    between atoms: C_28  and  C_31
REMARK   13  A    between atoms: C_32  and  O_34
REMARK   14  A    between atoms: O_34  and  C_35
REMARK                            x       y       z     vdW  Elec       q    Type
REMARK                         _______ _______ _______ _____ _____    ______ ____
ROOT
ATOM      1  C   UNL     1       3.880   3.082   2.500  0.00  0.00    +0.065 C 
ATOM      2  C   UNL     1       3.170   2.754   3.593  0.00  0.00    +0.016 C 
ATOM      3  N   UNL     1       2.115   1.889   3.500  0.00  0.00    -0.321 N 
ATOM      4  C   UNL     1       1.512   1.651   2.294  0.00  0.00    +0.016 C 
ATOM      5  C   UNL     1       2.150   1.939   1.140  0.00  0.00    +0.025 C 
ATOM      6  C   UNL     1       3.546   2.509   1.154  0.00  0.00    +0.092 C 
ATOM      7  C   UNL     1       1.536   1.713  -0.105  0.00  0.00    +0.176 C 
ATOM      8  O   UNL     1       2.143   1.974  -1.125  0.00  0.00    -0.291 OA
ATOM      9  C   UNL     1       0.143   1.153  -0.196  0.00  0.00    +0.171 C 
ATOM     10  C   UNL     1      -0.640   1.554   1.058  0.00  0.00    +0.013 C 
ATOM     11  C   UNL     1       0.125   1.058   2.287  0.00  0.00    +0.055 C 
ATOM     12  C   UNL     1      -0.773   3.077   1.116  0.00  0.00    +0.009 C 
ATOM     13  C   UNL     1       3.538   3.344   4.930  0.00  0.00    +0.061 C 
ATOM     14  H   UNL     1       1.743   1.377   4.399  0.00  0.00    +0.152 HD
ENDROOT
BRANCH   6  15
ATOM     15  C   UNL     1       4.530   1.416   0.823  0.00  0.00    -0.030 A 
ATOM     16  C   UNL     1       5.348   1.537  -0.286  0.00  0.00    +0.054 A 
ATOM     17  C   UNL     1       6.253   0.534  -0.592  0.00  0.00    +0.163 A 
ATOM     18  C   UNL     1       6.338  -0.594   0.219  0.00  0.00    +0.175 A 
ATOM     19  C   UNL     1       5.516  -0.709   1.329  0.00  0.00    +0.063 A 
ATOM     20  C   UNL     1       4.617   0.299   1.631  0.00  0.00    +0.023 A 
ATOM     21 BR   UNL     1       5.627  -2.240   2.434  0.00  0.00    -0.046 Br
BRANCH  18  22
ATOM     22  O   UNL     1       7.225  -1.582  -0.077  0.00  0.00    -0.490 OA
ATOM     23  C   UNL     1       8.530  -1.474   0.495  0.00  0.00    +0.277 C 
ENDBRANCH  18  22
BRANCH  17  24
ATOM     24  O   UNL     1       7.057   0.651  -1.682  0.00  0.00    -0.491 OA
ATOM     25  C   UNL     1       6.915   1.835  -2.469  0.00  0.00    +0.277 C 
ENDBRANCH  17  24
ENDBRANCH   6  15
BRANCH   1  26
ATOM     26  C   UNL     1       4.963   3.983   2.621  0.00  0.00    +0.338 C 
ATOM     27  O   UNL     1       5.180   4.535   3.684  0.00  0.00    -0.245 OA
BRANCH  26  28
ATOM     28  O   UNL     1       5.757   4.231   1.558  0.00  0.00    -0.462 OA
BRANCH  28  30
ATOM     29  C   UNL     1       7.615   5.305   0.446  0.00  0.00    +0.048 C 
ATOM     30  C   UNL     1       6.832   5.152   1.752  0.00  0.00    +0.229 C 
ENDBRANCH  28  30
ENDBRANCH  26  28
ENDBRANCH   1  26
BRANCH   9  31
ATOM     31  C   UNL     1      -0.543   1.706  -1.419  0.00  0.00    +0.318 C 
ATOM     32  O   UNL     1      -1.557   2.351  -1.303  0.00  0.00    -0.250 OA
BRANCH  31  33
ATOM     33  O   UNL     1      -0.026   1.480  -2.638  0.00  0.00    -0.467 OA
ATOM     34  C   UNL     1      -0.740   2.043  -3.770  0.00  0.00    +0.280 C 
ENDBRANCH  31  33
ENDBRANCH   9  31
TORSDOF 8
