REMARK  Name = ZINC13564535
REMARK  9 active torsions:
REMARK  status: ('A' for Active; 'I' for Inactive)
REMARK    1  A    between atoms: C_1  and  C_2
REMARK    2  A    between atoms: N_5  and  C_11
REMARK    3  A    between atoms: C_7  and  C_10
REMARK    4  A    between atoms: C_11  and  C_12
REMARK    5  A    between atoms: C_13  and  O_40
REMARK    6  A    between atoms: C_19  and  C_36
REMARK    7  A    between atoms: C_20  and  O_23
REMARK    8  A    between atoms: O_23  and  C_24
REMARK    9  A    between atoms: C_27  and  C_30
REMARK                            x       y       z     vdW  Elec       q    Type
REMARK                         _______ _______ _______ _____ _____    ______ ____
ROOT
ATOM      1  C   UNL     1      -4.992   8.139   0.304  0.00  0.00    +0.051 A 
ATOM      2  C   UNL     1      -5.686   8.497  -0.839  0.00  0.00    +0.125 A 
ATOM      3  C   UNL     1      -5.161   8.227  -2.101  0.00  0.00    +0.046 A 
ATOM      4  C   UNL     1      -3.952   7.605  -2.227  0.00  0.00    +0.019 A 
ATOM      5  C   UNL     1      -3.240   7.237  -1.085  0.00  0.00    +0.068 A 
ATOM      6  C   UNL     1      -3.763   7.506   0.193  0.00  0.00    +0.147 A 
ATOM      7  O   UNL     1      -3.066   7.147   1.290  0.00  0.00    -0.447 OA
ATOM      8  C   UNL     1      -1.877   6.535   1.217  0.00  0.00    +0.254 A 
ATOM      9  C   UNL     1      -1.284   6.230   0.045  0.00  0.00    +0.222 A 
ATOM     10  C   UNL     1      -1.931   6.569  -1.177  0.00  0.00    +0.235 A 
ATOM     11  O   UNL     1      -1.423   6.313  -2.256  0.00  0.00    -0.283 OA
ENDROOT
BRANCH   8  12
ATOM     12  C   UNL     1      -1.171   6.172   2.499  0.00  0.00    +0.454 C 
ATOM     13  F   UNL     1      -0.349   7.233   2.895  0.00  0.00    -0.163 F 
ATOM     14  F   UNL     1      -2.118   5.918   3.497  0.00  0.00    -0.163 F 
ATOM     15  F   UNL     1      -0.391   5.029   2.294  0.00  0.00    -0.163 F 
ENDBRANCH   8  12
BRANCH   2  16
ATOM     16  O   UNL     1      -6.889   9.117  -0.730  0.00  0.00    -0.506 OA
ATOM     17  H   UNL     1      -7.444   9.403  -1.635  0.00  0.00    +0.292 HD
ENDBRANCH   2  16
BRANCH   1  18
ATOM     18  C   UNL     1      -5.570   8.437   1.664  0.00  0.00    +0.127 C 
BRANCH  18  22
ATOM     19  C   UNL     1      -6.090  12.016   5.001  0.00  0.00    +0.039 C 
ATOM     20  C   UNL     1      -5.397  11.599   3.703  0.00  0.00    +0.130 C 
ATOM     21  C   UNL     1      -5.849  10.190   3.312  0.00  0.00    +0.116 C 
ATOM     22  N   UNL     1      -5.123   9.764   2.107  0.00  0.00    -0.293 NA
ATOM     23  C   UNL     1      -3.672   9.781   2.340  0.00  0.00    +0.116 C 
ATOM     24  C   UNL     1      -3.241  11.195   2.740  0.00  0.00    +0.130 C 
ATOM     25  O   UNL     1      -3.980  11.603   3.895  0.00  0.00    -0.371 OA
ATOM     26  C   UNL     1      -1.746  11.202   3.062  0.00  0.00    +0.039 C 
ENDBRANCH  18  22
ENDBRANCH   1  18
BRANCH   9  27
ATOM     27  O   UNL     1      -0.074   5.607   0.031  0.00  0.00    -0.448 OA
BRANCH  27  28
ATOM     28  C   UNL     1      -0.056   4.249   0.024  0.00  0.00    +0.129 A 
ATOM     29  C   UNL     1       1.157   3.573   0.010  0.00  0.00    +0.047 A 
ATOM     30  C   UNL     1       1.179   2.194   0.003  0.00  0.00    +0.012 A 
ATOM     31  C   UNL     1      -0.018   1.479   0.010  0.00  0.00    -0.018 A 
ATOM     32  C   UNL     1      -1.234   2.161   0.020  0.00  0.00    +0.012 A 
ATOM     33  C   UNL     1      -1.250   3.540   0.032  0.00  0.00    +0.047 A 
BRANCH  31  34
ATOM     34  C   UNL     1       0.002  -0.004   0.002  0.00  0.00    -0.018 A 
ATOM     35  C   UNL     1       1.217  -0.687  -0.019  0.00  0.00    +0.008 A 
ATOM     36  C   UNL     1       1.230  -2.067  -0.023  0.00  0.00    +0.001 A 
ATOM     37  C   UNL     1       0.040  -2.772  -0.015  0.00  0.00    +0.000 A 
ATOM     38  C   UNL     1      -1.169  -2.100   0.002  0.00  0.00    +0.001 A 
ATOM     39  C   UNL     1      -1.194  -0.720   0.010  0.00  0.00    +0.008 A 
ENDBRANCH  31  34
ENDBRANCH  27  28
ENDBRANCH   9  27
TORSDOF 7
