REMARK  Name = ZINC64159912
REMARK  7 active torsions:
REMARK  status: ('A' for Active; 'I' for Inactive)
REMARK    1  A    between atoms: C_1  and  C_2
REMARK    2  A    between atoms: N_4  and  C_5
REMARK    3  A    between atoms: C_5  and  C_7
REMARK    4  A    between atoms: C_5  and  C_17
REMARK    5  A    between atoms: C_7  and  C_8
REMARK    6  A    between atoms: N_22  and  C_25
REMARK    7  A    between atoms: C_25  and  C_26
REMARK                            x       y       z     vdW  Elec       q    Type
REMARK                         _______ _______ _______ _____ _____    ______ ____
ROOT
ATOM      1  C   UNL     1       1.264  -2.626  -0.481  0.00  0.00    +0.236 C 
ATOM      2  O   UNL     1       1.862  -1.893   0.279  0.00  0.00    -0.274 OA
ATOM      3  N   UNL     1       1.712  -3.877  -0.703  0.00  0.00    -0.298 N 
ATOM      4  C   UNL     1       1.006  -4.780  -1.625  0.00  0.00    +0.123 C 
ATOM      5  C   UNL     1       2.021  -5.350  -2.620  0.00  0.00    +0.103 C 
ATOM      6  N   UNL     1       3.134  -5.963  -1.883  0.00  0.00    -0.295 NA
ATOM      7  C   UNL     1       3.860  -4.963  -1.088  0.00  0.00    +0.103 C 
ATOM      8  C   UNL     1       2.924  -4.375  -0.034  0.00  0.00    +0.123 C 
ENDROOT
BRANCH   1   9
ATOM      9  C   UNL     1       0.020  -2.136  -1.177  0.00  0.00    +0.163 C 
BRANCH   9  13
ATOM     10  C   UNL     1      -0.018   1.503   0.010  0.00  0.00    +0.109 C 
ATOM     11  C   UNL     1       0.002  -0.004   0.002  0.00  0.00    +0.211 C 
ATOM     12  O   UNL     1       0.020  -0.616   1.049  0.00  0.00    -0.276 OA
ATOM     13  N   UNL     1       0.000  -0.672  -1.169  0.00  0.00    -0.304 N 
ATOM     14  H   UNL     1      -0.015  -0.182  -2.006  0.00  0.00    +0.149 HD
ENDBRANCH   9  13
BRANCH   9  15
ATOM     15  C   UNL     1      -1.215  -2.667  -0.447  0.00  0.00    +0.065 C 
BRANCH  15  16
ATOM     16  C   UNL     1      -2.455  -2.281  -1.211  0.00  0.00    -0.039 C 
ATOM     17  C   UNL     1      -3.119  -3.034  -2.117  0.00  0.00    -0.001 A 
ATOM     18  C   UNL     1      -2.894  -4.386  -2.643  0.00  0.00    +0.010 A 
ATOM     19  C   UNL     1      -3.750  -4.882  -3.566  0.00  0.00    +0.001 A 
ATOM     20  C   UNL     1      -4.843  -4.139  -4.032  0.00  0.00    +0.002 A 
ATOM     21  C   UNL     1      -5.115  -2.891  -3.596  0.00  0.00    +0.026 A 
ATOM     22  C   UNL     1      -4.282  -2.271  -2.625  0.00  0.00    +0.043 A 
ATOM     23  N   UNL     1      -4.334  -1.091  -2.055  0.00  0.00    -0.380 N 
ATOM     24  C   UNL     1      -3.213  -0.976  -1.115  0.00  0.00    +0.144 C 
ATOM     25  H   UNL     1      -5.004  -0.410  -2.223  0.00  0.00    +0.160 HD
ENDBRANCH  15  16
ENDBRANCH   9  15
ENDBRANCH   1   9
BRANCH   6  26
ATOM     26  C   UNL     1       4.043  -6.671  -2.794  0.00  0.00    +0.120 C 
BRANCH  26  27
ATOM     27  C   UNL     1       5.025  -7.486  -1.992  0.00  0.00    -0.019 A 
ATOM     28  C   UNL     1       6.265  -7.027  -1.773  0.00  0.00    +0.051 A 
ATOM     29  S   UNL     1       7.021  -8.316  -0.800  0.00  0.00    -0.096 S 
ATOM     30  C   UNL     1       5.648  -9.437  -0.715  0.00  0.00    +0.020 A 
ATOM     31  C   UNL     1       4.634  -8.775  -1.442  0.00  0.00    -0.006 A 
ATOM     32  C   UNL     1       3.390  -9.442  -1.544  0.00  0.00    +0.009 A 
ATOM     33  C   UNL     1       3.202 -10.655  -0.960  0.00  0.00    +0.001 A 
ATOM     34  C   UNL     1       4.214 -11.282  -0.247  0.00  0.00    +0.001 A 
ATOM     35  C   UNL     1       5.446 -10.669  -0.132  0.00  0.00    +0.015 A 
ENDBRANCH  26  27
ENDBRANCH   6  26
TORSDOF 6
