REMARK  Name = ZINC08744692
REMARK  12 active torsions:
REMARK  status: ('A' for Active; 'I' for Inactive)
REMARK    1  A    between atoms: C_1  and  C_2
REMARK    2  A    between atoms: C_7  and  S_25
REMARK    3  A    between atoms: N_11  and  C_12
REMARK    4  A    between atoms: C_12  and  C_13
REMARK    5  A    between atoms: N_15  and  C_16
REMARK    6  A    between atoms: N_15  and  C_17
REMARK    7  A    between atoms: C_17  and  C_18
REMARK    8  A    between atoms: N_20  and  C_21
REMARK    9  A    between atoms: C_21  and  C_22
REMARK   10  A    between atoms: C_21  and  C_23
REMARK   11  A    between atoms: C_21  and  C_24
REMARK   12  A    between atoms: S_25  and  N_28
REMARK                            x       y       z     vdW  Elec       q    Type
REMARK                         _______ _______ _______ _____ _____    ______ ____
ROOT
ATOM      1  C   UNL     1       0.535  -1.474   2.412  0.00  0.00    +0.028 C 
ATOM      2  C   UNL     1       0.263  -2.490   1.300  0.00  0.00    +0.075 C 
ATOM      3  C   UNL     1       0.768  -3.895   1.700  0.00  0.00    +0.059 C 
ATOM      4  C   UNL     1       2.171  -3.923   1.126  0.00  0.00    -0.023 A 
ATOM      5  C   UNL     1       3.244  -4.753   1.374  0.00  0.00    +0.034 A 
ATOM      6  C   UNL     1       4.440  -4.558   0.706  0.00  0.00    +0.105 A 
ATOM      7  C   UNL     1       4.557  -3.529  -0.211  0.00  0.00    +0.030 A 
ATOM      8  C   UNL     1       3.486  -2.699  -0.464  0.00  0.00    +0.025 A 
ATOM      9  C   UNL     1       2.277  -2.890   0.202  0.00  0.00    +0.034 A 
ATOM     10  N   UNL     1       1.072  -2.183   0.101  0.00  0.00    -0.318 N 
ENDROOT
BRANCH   6  11
ATOM     11  S   UNL     1       5.811  -5.618   1.023  0.00  0.00    +0.056 S 
ATOM     12  O   UNL     1       6.979  -4.888   0.673  0.00  0.00    -0.153 OA
ATOM     13  O   UNL     1       5.613  -6.161   2.321  0.00  0.00    -0.153 OA
BRANCH  11  14
ATOM     14  N   UNL     1       5.707  -6.884  -0.040  0.00  0.00    -0.204 NA
ATOM     15  H   UNL     1       4.976  -6.924  -0.677  0.00  0.00    +0.144 HD
ATOM     16  H   UNL     1       6.377  -7.585  -0.026  0.00  0.00    +0.144 HD
ENDBRANCH  11  14
ENDBRANCH   6  11
BRANCH  10  17
ATOM     17  C   UNL     1       1.317  -0.740  -0.015  0.00  0.00    +0.201 C 
BRANCH  17  18
ATOM     18  C   UNL     1       0.015  -0.029  -0.280  0.00  0.00    +0.233 C 
ATOM     19  O   UNL     1      -0.998  -0.669  -0.469  0.00  0.00    -0.274 OA
ATOM     20  N   UNL     1      -0.024   1.318  -0.308  0.00  0.00    -0.294 N 
ATOM     21  C   UNL     1       1.200   2.091  -0.080  0.00  0.00    +0.132 C 
BRANCH  20  22
ATOM     22  C   UNL     1      -1.288   2.009  -0.572  0.00  0.00    +0.203 C 
BRANCH  22  23
ATOM     23  C   UNL     1      -2.001   2.267   0.730  0.00  0.00    +0.231 C 
ATOM     24  O   UNL     1      -1.503   1.909   1.776  0.00  0.00    -0.274 OA
ATOM     25  N   UNL     1      -3.194   2.895   0.732  0.00  0.00    -0.309 N 
ATOM     26  H   UNL     1      -3.592   3.182  -0.104  0.00  0.00    +0.149 HD
BRANCH  25  27
ATOM     27  C   UNL     1      -3.887   3.146   1.998  0.00  0.00    +0.026 C 
ATOM     28  C   UNL     1      -3.008   4.017   2.897  0.00  0.00    +0.031 C 
ATOM     29  C   UNL     1      -5.208   3.868   1.722  0.00  0.00    +0.031 C 
ATOM     30  C   UNL     1      -4.170   1.815   2.697  0.00  0.00    +0.031 C 
ENDBRANCH  25  27
ENDBRANCH  22  23
ENDBRANCH  20  22
ENDBRANCH  17  18
ENDBRANCH  10  17
TORSDOF 7
