REMARK  Name = ZINC12123405
REMARK  8 active torsions:
REMARK  status: ('A' for Active; 'I' for Inactive)
REMARK    1  A    between atoms: C_1  and  C_2
REMARK    2  A    between atoms: C_5  and  C_11
REMARK    3  A    between atoms: C_11  and  C_12
REMARK    4  A    between atoms: N_14  and  C_15
REMARK    5  A    between atoms: C_15  and  C_16
REMARK    6  A    between atoms: C_23  and  C_26
REMARK    7  A    between atoms: C_29  and  S_32
REMARK    8  A    between atoms: S_32  and  C_35
REMARK                            x       y       z     vdW  Elec       q    Type
REMARK                         _______ _______ _______ _____ _____    ______ ____
ROOT
ATOM      1  C   UNL     1      -2.449  -1.324   2.346  0.00  0.00    +0.195 C 
ATOM      2  C   UNL     1      -1.654  -2.601   1.998  0.00  0.00    +0.085 C 
ATOM      3  C   UNL     1      -0.728  -2.108   0.902  0.00  0.00    -0.002 A 
ATOM      4  C   UNL     1       0.045  -2.774  -0.024  0.00  0.00    +0.007 A 
ATOM      5  C   UNL     1       0.799  -2.064  -0.942  0.00  0.00    +0.001 A 
ATOM      6  C   UNL     1       0.777  -0.684  -0.932  0.00  0.00    +0.012 A 
ATOM      7  C   UNL     1       0.002  -0.004   0.002  0.00  0.00    +0.024 A 
ATOM      8  C   UNL     1      -0.756  -0.722   0.940  0.00  0.00    +0.132 A 
ATOM      9  O   UNL     1      -1.557  -0.271   1.944  0.00  0.00    -0.486 OA
ENDROOT
BRANCH   7  10
ATOM     10  C   UNL     1      -0.018   1.479   0.010  0.00  0.00    -0.014 A 
ATOM     11  C   UNL     1      -1.233   2.162   0.020  0.00  0.00    +0.010 A 
ATOM     12  C   UNL     1      -1.246   3.542   0.033  0.00  0.00    +0.027 A 
ATOM     13  C   UNL     1      -0.056   4.247   0.025  0.00  0.00    +0.088 A 
ATOM     14  C   UNL     1       1.153   3.575   0.010  0.00  0.00    +0.027 A 
ATOM     15  C   UNL     1       1.178   2.195   0.003  0.00  0.00    +0.010 A 
BRANCH  13  16
ATOM     16  S   UNL     1      -0.080   6.009   0.036  0.00  0.00    -0.006 S 
ATOM     17  O   UNL     1      -1.313   6.351   0.652  0.00  0.00    -0.170 OA
ATOM     18  O   UNL     1       1.156   6.385   0.629  0.00  0.00    -0.170 OA
ATOM     19  C   UNL     1      -0.102   6.485  -1.714  0.00  0.00    +0.200 C 
ENDBRANCH  13  16
ENDBRANCH   7  10
BRANCH   1  20
ATOM     20  C   UNL     1      -2.739  -1.245   3.846  0.00  0.00    +0.149 C 
BRANCH  20  23
ATOM     21  C   UNL     1      -3.867   0.256   5.399  0.00  0.00    +0.215 C 
ATOM     22  O   UNL     1      -3.572  -0.501   6.299  0.00  0.00    -0.276 OA
ATOM     23  N   UNL     1      -3.497  -0.025   4.134  0.00  0.00    -0.312 N 
ATOM     24  H   UNL     1      -3.733   0.581   3.414  0.00  0.00    +0.149 HD
BRANCH  21  25
ATOM     25  C   UNL     1      -4.647   1.511   5.695  0.00  0.00    +0.118 C 
BRANCH  25  29
ATOM     26  C   UNL     1      -6.767   1.700   9.525  0.00  0.00    +0.028 C 
ATOM     27  C   UNL     1      -6.016   2.924   8.997  0.00  0.00    +0.071 C 
ATOM     28  C   UNL     1      -5.835   2.798   7.480  0.00  0.00    +0.044 C 
ATOM     29  C   UNL     1      -4.937   1.590   7.195  0.00  0.00    +0.082 C 
ATOM     30  N   UNL     1      -3.680   1.742   7.929  0.00  0.00    -0.323 N 
ATOM     31  C   UNL     1      -3.624   2.419   9.086  0.00  0.00    +0.131 C 
ATOM     32  S   UNL     1      -2.121   2.542   9.895  0.00  0.00    -0.019 S 
ATOM     33  N   UNL     1      -4.700   3.003   9.633  0.00  0.00    -0.324 N 
ATOM     34  H   UNL     1      -2.870   1.345   7.572  0.00  0.00    +0.148 HD
ATOM     35  H   UNL     1      -4.605   3.488  10.468  0.00  0.00    +0.148 HD
ENDBRANCH  25  29
ENDBRANCH  21  25
ENDBRANCH  20  23
ENDBRANCH   1  20
TORSDOF 6
