REMARK  Name = ZINC64703778
REMARK  14 active torsions:
REMARK  status: ('A' for Active; 'I' for Inactive)
REMARK    1  A    between atoms: C_1  and  C_2
REMARK    2  A    between atoms: C_2  and  C_3
REMARK    3  A    between atoms: C_6  and  C_9
REMARK    4  A    between atoms: C_10  and  N_31
REMARK    5  A    between atoms: N_17  and  C_18
REMARK    6  A    between atoms: N_17  and  C_19
REMARK    7  A    between atoms: C_19  and  C_20
REMARK    8  A    between atoms: N_22  and  C_23
REMARK    9  A    between atoms: C_23  and  C_24
REMARK   10  A    between atoms: C_24  and  C_25
REMARK   11  A    between atoms: N_31  and  C_32
REMARK   12  A    between atoms: C_32  and  C_33
REMARK   13  A    between atoms: C_32  and  C_34
REMARK   14  A    between atoms: C_32  and  C_35
REMARK                            x       y       z     vdW  Elec       q    Type
REMARK                         _______ _______ _______ _____ _____    ______ ____
ROOT
ATOM      1  C   UNL     1      -5.729  -2.282   0.100  0.00  0.00    +0.114 A 
ATOM      2  C   UNL     1      -6.619  -1.782  -0.803  0.00  0.00    +0.150 A 
ATOM      3  N   UNL     1      -7.890  -2.151  -0.389  0.00  0.00    -0.190 N 
ATOM      4  C   UNL     1      -7.699  -2.870   0.765  0.00  0.00    +0.199 A 
ATOM      5  N   UNL     1      -6.435  -2.951   1.050  0.00  0.00    -0.218 NA
ATOM      6  S   UNL     1      -9.362  -3.301   1.225  0.00  0.00    -0.013 S 
ATOM      7  C   UNL     1     -10.200  -2.505  -0.136  0.00  0.00    +0.184 A 
ATOM      8  N   UNL     1      -9.207  -1.994  -0.810  0.00  0.00    -0.140 NA
ATOM      9  N   UNL     1     -11.557  -2.447  -0.407  0.00  0.00    -0.302 N 
ATOM     10  C   UNL     1     -12.037  -1.733  -1.593  0.00  0.00    +0.132 C 
ENDROOT
BRANCH   1  14
ATOM     11  C   UNL     1      -1.504  -1.846  -0.037  0.00  0.00    -0.048 A 
ATOM     12  C   UNL     1      -2.156  -1.863   1.183  0.00  0.00    +0.004 A 
ATOM     13  C   UNL     1      -3.527  -2.005   1.235  0.00  0.00    +0.010 A 
ATOM     14  C   UNL     1      -4.257  -2.130   0.052  0.00  0.00    +0.004 A 
ATOM     15  C   UNL     1      -3.595  -2.111  -1.175  0.00  0.00    +0.010 A 
ATOM     16  C   UNL     1      -2.223  -1.964  -1.213  0.00  0.00    +0.004 A 
BRANCH  11  18
ATOM     17  C   UNL     1       0.351  -0.204  -0.155  0.00  0.00    +0.009 C 
ATOM     18  C   UNL     1      -0.006  -1.690  -0.086  0.00  0.00    +0.032 C 
ENDBRANCH  11  18
ENDBRANCH   1  14
BRANCH   2  19
ATOM     19  N   UNL     1      -6.306  -1.032  -1.940  0.00  0.00    -0.323 N 
ATOM     20  H   UNL     1      -5.392  -0.751  -2.100  0.00  0.00    +0.148 HD
BRANCH  19  21
ATOM     21  C   UNL     1      -7.360  -0.670  -2.891  0.00  0.00    +0.025 C 
ATOM     22  C   UNL     1      -8.366   0.260  -2.209  0.00  0.00    +0.031 C 
ATOM     23  C   UNL     1      -6.739   0.045  -4.093  0.00  0.00    +0.031 C 
ATOM     24  C   UNL     1      -8.076  -1.936  -3.366  0.00  0.00    +0.031 C 
ENDBRANCH  19  21
ENDBRANCH   2  19
BRANCH   9  25
ATOM     25  C   UNL     1     -12.513  -3.099   0.492  0.00  0.00    +0.202 C 
BRANCH  25  26
ATOM     26  C   UNL     1     -12.941  -2.127   1.561  0.00  0.00    +0.230 C 
ATOM     27  O   UNL     1     -12.492  -1.000   1.571  0.00  0.00    -0.274 OA
ATOM     28  N   UNL     1     -13.823  -2.510   2.506  0.00  0.00    -0.314 N 
ATOM     29  H   UNL     1     -14.181  -3.411   2.498  0.00  0.00    +0.149 HD
BRANCH  28  30
ATOM     30  C   UNL     1     -14.239  -1.565   3.545  0.00  0.00    +0.108 C 
BRANCH  30  31
ATOM     31  C   UNL     1     -15.237  -2.246   4.484  0.00  0.00    +0.049 C 
BRANCH  31  32
ATOM     32  C   UNL     1     -15.665  -1.274   5.552  0.00  0.00    -0.072 C 
ATOM     33  C   UNL     1     -16.759  -0.608   5.364  0.00  0.00    -0.028 C 
ATOM     34  C   UNL     1     -17.306   0.401   6.331  0.00  0.00    +0.027 C 
ATOM     35  C   UNL     1     -16.656   0.221   7.705  0.00  0.00    +0.004 C 
ATOM     36  C   UNL     1     -15.135   0.153   7.517  0.00  0.00    +0.005 C 
ATOM     37  C   UNL     1     -14.800  -1.142   6.772  0.00  0.00    +0.030 C 
ENDBRANCH  31  32
ENDBRANCH  30  31
ENDBRANCH  28  30
ENDBRANCH  25  26
ENDBRANCH   9  25
TORSDOF 9
