REMARK  Name = ZINC09683819
REMARK  6 active torsions:
REMARK  status: ('A' for Active; 'I' for Inactive)
REMARK    1  A    between atoms: C_1  and  C_2
REMARK    2  A    between atoms: C_15  and  C_17
REMARK    3  A    between atoms: C_17  and  O_18
REMARK    4  A    between atoms: O_18  and  C_19
REMARK    5  A    between atoms: C_19  and  C_21
REMARK    6  A    between atoms: C_24  and  O_27
REMARK                            x       y       z     vdW  Elec       q    Type
REMARK                         _______ _______ _______ _____ _____    ______ ____
ROOT
ATOM      1  C   UNL     1      -0.019   1.526   0.010  0.00  0.00    +0.008 C 
ATOM      2  C   UNL     1       0.002  -0.004   0.002  0.00  0.00    -0.009 C 
ATOM      3  C   UNL     1       0.726  -0.501  -1.253  0.00  0.00    +0.008 C 
ATOM      4  C   UNL     1       0.536  -2.011  -1.397  0.00  0.00    +0.037 C 
ATOM      5  C   UNL     1       0.949  -2.688  -0.093  0.00  0.00    -0.023 A 
ATOM      6  C   UNL     1       1.031  -1.976   1.055  0.00  0.00    -0.004 A 
ATOM      7  S   UNL     1       1.537  -3.145   2.292  0.00  0.00    -0.073 S 
ATOM      8  C   UNL     1       1.637  -4.581   1.270  0.00  0.00    +0.116 A 
ATOM      9  C   UNL     1       1.271  -4.101  -0.007  0.00  0.00    +0.075 A 
ATOM     10  C   UNL     1       1.257  -5.054  -1.081  0.00  0.00    +0.260 A 
ATOM     11  O   UNL     1       0.955  -4.742  -2.220  0.00  0.00    -0.267 OA
ATOM     12  N   UNL     1       1.599  -6.321  -0.747  0.00  0.00    -0.308 N 
ATOM     13  H   UNL     1       1.603  -6.997  -1.443  0.00  0.00    +0.170 HD
ATOM     14  C   UNL     1       1.938  -6.688   0.512  0.00  0.00    +0.149 A 
ATOM     15  N   UNL     1       1.962  -5.845   1.522  0.00  0.00    -0.223 NA
ATOM     16  C   UNL     1       0.751  -0.516   1.241  0.00  0.00    +0.046 C 
ENDROOT
BRANCH  14  17
ATOM     17  C   UNL     1       2.301  -8.127   0.768  0.00  0.00    +0.306 C 
BRANCH  17  18
ATOM     18  O   UNL     1       2.622  -8.299   2.150  0.00  0.00    -0.453 OA
BRANCH  18  19
ATOM     19  C   UNL     1       2.972  -9.538   2.548  0.00  0.00    +0.340 C 
ATOM     20  O   UNL     1       3.003 -10.448   1.743  0.00  0.00    -0.245 OA
BRANCH  19  21
ATOM     21  C   UNL     1       3.316  -9.790   3.959  0.00  0.00    +0.059 A 
ATOM     22  C   UNL     1       3.275  -8.745   4.888  0.00  0.00    +0.018 A 
ATOM     23  C   UNL     1       3.597  -8.985   6.205  0.00  0.00    +0.046 A 
ATOM     24  C   UNL     1       3.963 -10.263   6.612  0.00  0.00    +0.117 A 
ATOM     25  C   UNL     1       4.005 -11.304   5.692  0.00  0.00    +0.046 A 
ATOM     26  C   UNL     1       3.679 -11.074   4.374  0.00  0.00    +0.018 A 
BRANCH  24  27
ATOM     27  O   UNL     1       4.281 -10.494   7.911  0.00  0.00    -0.507 OA
ATOM     28  H   UNL     1       3.527 -10.748   8.460  0.00  0.00    +0.292 HD
ENDBRANCH  24  27
ENDBRANCH  19  21
ENDBRANCH  18  19
ENDBRANCH  17  18
ENDBRANCH  14  17
TORSDOF 5
