REMARK  Name = ZINC02331717
REMARK  6 active torsions:
REMARK  status: ('A' for Active; 'I' for Inactive)
REMARK    1  A    between atoms: C_1  and  C_2
REMARK    2  A    between atoms: C_7  and  C_8
REMARK    3  A    between atoms: C_8  and  N_9
REMARK    4  A    between atoms: N_15  and  N_16
REMARK    5  A    between atoms: C_17  and  C_18
REMARK    6  A    between atoms: C_22  and  N_24
REMARK                            x       y       z     vdW  Elec       q    Type
REMARK                         _______ _______ _______ _____ _____    ______ ____
ROOT
ATOM      1  N   UNL     1      -3.303   2.718   0.049  0.00  0.00    -0.244 N 
ATOM      2  C   UNL     1      -4.613   2.692   0.242  0.00  0.00    +0.232 C 
ATOM      3  O   UNL     1      -5.244   3.663   0.599  0.00  0.00    -0.274 OA
ATOM      4  C   UNL     1      -5.257   1.337  -0.014  0.00  0.00    +0.173 C 
ATOM      5  S   UNL     1      -3.777   0.368  -0.504  0.00  0.00    -0.079 S 
ATOM      6  C   UNL     1      -2.598   1.632  -0.355  0.00  0.00    +0.185 C 
ATOM      7  N   UNL     1      -1.252   1.550  -0.588  0.00  0.00    -0.127 NA
ENDROOT
BRANCH   7   8
ATOM      8  N   UNL     1      -0.524   2.614  -0.541  0.00  0.00    -0.155 NA
ATOM      9  C   UNL     1       0.806   2.533  -0.771  0.00  0.00    +0.143 C 
BRANCH   9  10
ATOM     10  C   UNL     1       1.596   3.689  -0.726  0.00  0.00    -0.003 A 
ATOM     11  C   UNL     1       1.009   4.945  -0.441  0.00  0.00    +0.009 A 
ATOM     12  C   UNL     1       1.791   6.061  -0.396  0.00  0.00    +0.003 A 
ATOM     13  C   UNL     1       3.157   5.971  -0.639  0.00  0.00    +0.033 A 
ATOM     14  C   UNL     1       3.746   4.746  -0.926  0.00  0.00    +0.127 A 
ATOM     15  C   UNL     1       2.989   3.612  -0.972  0.00  0.00    +0.042 A 
BRANCH  14  16
ATOM     16  N   UNL     1       5.201   4.670  -1.182  0.00  0.00    +0.056 N 
ATOM     17  O   UNL     1       5.763   3.511  -1.454  0.00  0.00    -0.126 OA
ATOM     18  O   UNL     1       5.935   5.763  -1.138  0.00  0.00    -0.126 OA
ENDBRANCH  14  16
ENDBRANCH   9  10
ENDBRANCH   7   8
BRANCH   1  19
ATOM     19  C   UNL     1      -2.586   3.975   0.275  0.00  0.00    +0.151 C 
BRANCH  19  26
ATOM     20  C   UNL     1      -1.467   6.425   1.322  0.00  0.00    +0.044 C 
ATOM     21  C   UNL     1      -1.601   5.216   2.212  0.00  0.00    -0.046 A 
ATOM     22  C   UNL     1      -1.188   5.280   3.530  0.00  0.00    +0.003 A 
ATOM     23  C   UNL     1      -1.311   4.172   4.348  0.00  0.00    +0.000 A 
ATOM     24  C   UNL     1      -1.847   3.000   3.847  0.00  0.00    +0.000 A 
ATOM     25  C   UNL     1      -2.263   2.938   2.530  0.00  0.00    +0.005 A 
ATOM     26  C   UNL     1      -2.136   4.044   1.712  0.00  0.00    -0.027 A 
ENDBRANCH  19  26
ENDBRANCH   1  19
TORSDOF 5
