REMARK  Name = ZINC09239826
REMARK  11 active torsions:
REMARK  status: ('A' for Active; 'I' for Inactive)
REMARK    1  A    between atoms: C_1  and  N_56
REMARK    2  A    between atoms: C_2  and  N_56
REMARK    3  A    between atoms: C_3  and  C_4
REMARK    4  A    between atoms: C_3  and  N_56
REMARK    5  A    between atoms: C_4  and  N_5
REMARK    6  A    between atoms: C_6  and  C_22
REMARK    7  A    between atoms: C_9  and  C_10
REMARK    8  A    between atoms: C_9  and  O_17
REMARK    9  A    between atoms: C_25  and  O_28
REMARK   10  A    between atoms: O_28  and  C_29
REMARK   11  A    between atoms: C_29  and  C_30
REMARK                            x       y       z     vdW  Elec       q    Type
REMARK                         _______ _______ _______ _____ _____    ______ ____
ROOT
ATOM      1  N   UNL     1       5.964   2.357  -0.348  0.00  0.00    -0.285 N 
ATOM      2  C   UNL     1       5.048   1.216  -0.263  0.00  0.00    +0.144 C 
ATOM      3  C   UNL     1       3.656   1.787  -0.126  0.00  0.00    +0.071 C 
ATOM      4  C   UNL     1       2.477   1.080  -0.015  0.00  0.00    +0.133 C 
ATOM      5  C   UNL     1       3.804   3.184  -0.142  0.00  0.00    +0.249 C 
ATOM      6  O   UNL     1       2.903   3.998  -0.059  0.00  0.00    -0.282 OA
ATOM      7  C   UNL     1       5.253   3.495  -0.276  0.00  0.00    +0.288 C 
ATOM      8  O   UNL     1       5.724   4.613  -0.318  0.00  0.00    -0.266 OA
ENDROOT
BRANCH   4   9
ATOM      9  C   UNL     1       1.217   1.788   0.270  0.00  0.00    +0.017 A 
ATOM     10  C   UNL     1       1.145   2.694   1.334  0.00  0.00    +0.012 A 
ATOM     11  C   UNL     1      -0.038   3.349   1.597  0.00  0.00    +0.016 A 
ATOM     12  C   UNL     1      -1.152   3.121   0.806  0.00  0.00    +0.018 A 
ATOM     13  C   UNL     1      -1.088   2.225  -0.249  0.00  0.00    +0.016 A 
ATOM     14  C   UNL     1       0.087   1.558  -0.522  0.00  0.00    +0.012 A 
ATOM     15 BR   UNL     1      -2.769   4.030   1.171  0.00  0.00    -0.050 Br
ENDBRANCH   4   9
BRANCH   2  16
ATOM     16  C   UNL     1       5.382   0.376   0.943  0.00  0.00    -0.022 A 
ATOM     17  C   UNL     1       5.767   0.985   2.123  0.00  0.00    +0.009 A 
ATOM     18  C   UNL     1       6.067   0.217   3.232  0.00  0.00    +0.046 A 
ATOM     19  C   UNL     1       5.994  -1.167   3.157  0.00  0.00    +0.121 A 
ATOM     20  C   UNL     1       5.613  -1.775   1.970  0.00  0.00    +0.046 A 
ATOM     21  C   UNL     1       5.308  -1.003   0.866  0.00  0.00    +0.009 A 
BRANCH  19  22
ATOM     22  O   UNL     1       6.294  -1.924   4.244  0.00  0.00    -0.488 OA
BRANCH  22  23
ATOM     23  C   UNL     1       6.679  -1.230   5.432  0.00  0.00    +0.256 C 
BRANCH  23  24
ATOM     24  C   UNL     1       6.971  -2.226   6.524  0.00  0.00    +0.006 C 
ATOM     25  C   UNL     1       8.040  -2.087   7.269  0.00  0.00    +0.007 C 
ENDBRANCH  23  24
ENDBRANCH  22  23
ENDBRANCH  19  22
ENDBRANCH   2  16
BRANCH   4  26
ATOM     26  O   UNL     1       2.477  -0.262  -0.167  0.00  0.00    -0.506 OA
ATOM     27  H   UNL     1       1.547  -0.610  -0.055  0.00  0.00    +0.292 HD
ENDBRANCH   4  26
BRANCH   1  28
ATOM     28  C   UNL     1       7.420   2.271  -0.490  0.00  0.00    +0.090 C 
BRANCH  28  29
ATOM     29  C   UNL     1       7.787   2.246  -1.975  0.00  0.00    -0.060 C 
BRANCH  29  32
ATOM     30  C   UNL     1       9.625   1.895  -3.511  0.00  0.00    -0.097 C 
ATOM     31  C   UNL     1       9.897   3.378  -1.616  0.00  0.00    -0.097 C 
ATOM     32  N   UNL     1       9.256   2.137  -2.101  0.00  0.00    +0.377 N 
ATOM     33  H   UNL     1       9.582   1.349  -1.530  0.00  0.00    -0.083 HD
ENDBRANCH  29  32
ENDBRANCH  28  29
ENDBRANCH   1  28
TORSDOF 9
