REMARK  Name = ZINC14370886
REMARK  4 active torsions:
REMARK  status: ('A' for Active; 'I' for Inactive)
REMARK    1  A    between atoms: C_1  and  C_2
REMARK    2  A    between atoms: C_2  and  C_17
REMARK    3  A    between atoms: N_5  and  C_9
REMARK    4  A    between atoms: C_9  and  C_10
REMARK                            x       y       z     vdW  Elec       q    Type
REMARK                         _______ _______ _______ _____ _____    ______ ____
ROOT
ATOM      1  C   UNL     1       0.006   1.497  -0.011  0.00  0.00    +0.047 C 
ATOM      2  C   UNL     1       0.035  -0.033   0.018  0.00  0.00    +0.135 C 
ATOM      3  C   UNL     1      -1.370  -0.591   0.134  0.00  0.00    +0.251 C 
ATOM      4  O   UNL     1      -2.282  -0.449  -0.652  0.00  0.00    -0.272 OA
ATOM      5  N   UNL     1      -1.394  -1.278   1.293  0.00  0.00    -0.220 N 
ATOM      6  C   UNL     1      -0.212  -1.232   1.919  0.00  0.00    +0.310 C 
ATOM      7  O   UNL     1       0.011  -1.777   2.982  0.00  0.00    -0.252 OA
ATOM      8  N   UNL     1       0.701  -0.516   1.239  0.00  0.00    -0.281 N 
ATOM      9  H   UNL     1       1.620  -0.350   1.502  0.00  0.00    +0.152 HD
ENDROOT
BRANCH   2  10
ATOM     10  C   UNL     1       0.723  -0.572  -1.210  0.00  0.00    -0.015 A 
ATOM     11  C   UNL     1      -0.014  -0.858  -2.345  0.00  0.00    +0.009 A 
ATOM     12  C   UNL     1       0.616  -1.351  -3.472  0.00  0.00    +0.039 A 
ATOM     13  C   UNL     1       1.985  -1.560  -3.464  0.00  0.00    +0.123 A 
ATOM     14  C   UNL     1       2.721  -1.273  -2.327  0.00  0.00    +0.039 A 
ATOM     15  C   UNL     1       2.090  -0.774  -1.203  0.00  0.00    +0.009 A 
ATOM     16  F   UNL     1       2.602  -2.043  -4.564  0.00  0.00    -0.205 F 
ENDBRANCH   2  10
BRANCH   5  17
ATOM     17  C   UNL     1      -2.569  -1.986   1.805  0.00  0.00    +0.154 C 
BRANCH  17  18
ATOM     18  C   UNL     1      -3.286  -1.115   2.804  0.00  0.00    -0.016 A 
ATOM     19  C   UNL     1      -3.011  -1.239   4.153  0.00  0.00    +0.006 A 
ATOM     20  C   UNL     1      -3.667  -0.439   5.069  0.00  0.00    +0.000 A 
ATOM     21  C   UNL     1      -4.600   0.486   4.637  0.00  0.00    +0.001 A 
ATOM     22  C   UNL     1      -4.876   0.610   3.289  0.00  0.00    +0.015 A 
ATOM     23  C   UNL     1      -4.215  -0.186   2.371  0.00  0.00    +0.023 A 
ATOM     24 BR   UNL     1      -4.587  -0.011   0.525  0.00  0.00    -0.050 Br
ENDBRANCH  17  18
ENDBRANCH   5  17
TORSDOF 3
