REMARK  Name = ZINC12657702
REMARK  1 active torsions:
REMARK  status: ('A' for Active; 'I' for Inactive)
REMARK    1  A    between atoms: N_14  and  N_15
REMARK                            x       y       z     vdW  Elec       q    Type
REMARK                         _______ _______ _______ _____ _____    ______ ____
ROOT
ATOM      1  C   UNL     1      -1.241   3.125   0.035  0.00  0.00    +0.000 A 
ATOM      2  C   UNL     1      -1.220   1.743   0.017  0.00  0.00    +0.000 A 
ATOM      3  C   UNL     1      -0.013   1.076   0.008  0.00  0.00    +0.006 A 
ATOM      4  C   UNL     1       1.185   1.781   0.000  0.00  0.00    -0.024 A 
ATOM      5  C   UNL     1       1.161   3.158   0.004  0.00  0.00    -0.041 A 
ATOM      6  C   UNL     1      -0.054   3.828   0.026  0.00  0.00    +0.004 A 
ATOM      7  C   UNL     1       2.422   3.973  -0.023  0.00  0.00    +0.054 C 
ATOM      8  C   UNL     1       3.598   3.231   0.579  0.00  0.00    +0.110 C 
ATOM      9  N   UNL     1       3.647   1.837   0.190  0.00  0.00    -0.325 N 
ATOM     10  C   UNL     1       2.464   1.004   0.000  0.00  0.00    +0.109 C 
ATOM     11  C   UNL     1       2.440  -0.090   1.069  0.00  0.00    +0.085 C 
ATOM     12  C   UNL     1       3.829  -0.656   1.244  0.00  0.00    +0.073 C 
ATOM     13  N   UNL     1       4.020  -1.663   2.040  0.00  0.00    -0.183 NA
ATOM     14  C   UNL     1       4.970  -0.072   0.514  0.00  0.00    +0.057 C 
ATOM     15  C   UNL     1       4.852   1.211   0.010  0.00  0.00    +0.019 C 
ATOM     16  C   UNL     1       5.981   1.879  -0.715  0.00  0.00    +0.052 C 
ATOM     17  C   UNL     1       7.315   1.320  -0.210  0.00  0.00    +0.014 C 
ATOM     18  C   UNL     1       7.327  -0.199  -0.404  0.00  0.00    +0.080 C 
ATOM     19  C   UNL     1       6.162  -0.806   0.336  0.00  0.00    +0.166 C 
ATOM     20  O   UNL     1       6.250  -1.932   0.782  0.00  0.00    -0.292 OA
ENDROOT
BRANCH  13  21
ATOM     21  N   UNL     1       2.939  -2.222   2.735  0.00  0.00    -0.191 N 
ATOM     22  C   UNL     1       3.137  -3.267   3.562  0.00  0.00    +0.317 C 
ATOM     23  O   UNL     1       2.199  -3.752   4.165  0.00  0.00    -0.251 OA
ATOM     24  N   UNL     1       4.375  -3.775   3.721  0.00  0.00    -0.312 N 
ATOM     25  H   UNL     1       2.048  -1.856   2.620  0.00  0.00    +0.179 HD
ATOM     26  H   UNL     1       5.123  -3.389   3.240  0.00  0.00    +0.147 HD
ATOM     27  H   UNL     1       4.518  -4.528   4.316  0.00  0.00    +0.147 HD
ENDBRANCH  13  21
TORSDOF 1
