REMARK  Name = ZINC09112534
REMARK  6 active torsions:
REMARK  status: ('A' for Active; 'I' for Inactive)
REMARK    1  A    between atoms: C_1  and  C_2
REMARK    2  A    between atoms: C_3  and  C_22
REMARK    3  A    between atoms: C_11  and  C_13
REMARK    4  A    between atoms: C_13  and  C_15
REMARK    5  A    between atoms: C_13  and  N_43
REMARK    6  A    between atoms: C_16  and  N_43
REMARK                            x       y       z     vdW  Elec       q    Type
REMARK                         _______ _______ _______ _____ _____    ______ ____
ROOT
ATOM      1  C   UNL     1       2.869   0.001  -0.024  0.00  0.00    +0.045 C 
ATOM      2  C   UNL     1       2.579   1.479  -0.015  0.00  0.00    -0.026 A 
ATOM      3  C   UNL     1       3.585   2.369  -0.020  0.00  0.00    -0.008 A 
ATOM      4  S   UNL     1       2.746   3.942  -0.004  0.00  0.00    -0.073 S 
ATOM      5  C   UNL     1       1.070   3.359   0.009  0.00  0.00    +0.116 A 
ATOM      6  C   UNL     1       1.210   1.959   0.001  0.00  0.00    +0.075 A 
ATOM      7  C   UNL     1      -0.015   1.215   0.009  0.00  0.00    +0.260 A 
ATOM      8  O   UNL     1       0.002  -0.004   0.002  0.00  0.00    -0.267 OA
ATOM      9  N   UNL     1      -1.183   1.883   0.018  0.00  0.00    -0.312 N 
ATOM     10  H   UNL     1      -2.015   1.384   0.019  0.00  0.00    +0.170 HD
ATOM     11  C   UNL     1      -1.221   3.240   0.030  0.00  0.00    +0.097 A 
ATOM     12  N   UNL     1      -0.122   3.947   0.024  0.00  0.00    -0.228 NA
ATOM     13  C   UNL     1       5.068   2.101  -0.035  0.00  0.00    +0.052 C 
ENDROOT
BRANCH  11  14
ATOM     14  C   UNL     1      -2.554   3.943   0.046  0.00  0.00    -0.007 C 
ATOM     15  C   UNL     1      -3.380   3.443   1.233  0.00  0.00    -0.006 C 
BRANCH  14  16
ATOM     16  N   UNL     1      -2.333   5.396   0.177  0.00  0.00    +0.387 N 
ATOM     17  H   UNL     1      -1.479   5.655  -0.331  0.00  0.00    -0.085 HD
ATOM     18  H   UNL     1      -2.227   5.634   1.170  0.00  0.00    -0.085 HD
BRANCH  16  19
ATOM     19  C   UNL     1      -3.477   6.140  -0.384  0.00  0.00    -0.071 C 
ATOM     20  C   UNL     1      -3.286   6.309  -1.892  0.00  0.00    -0.016 C 
ATOM     21  C   UNL     1      -4.468   7.089  -2.471  0.00  0.00    -0.002 C 
ATOM     22  C   UNL     1      -4.545   8.466  -1.809  0.00  0.00    -0.000 C 
ATOM     23  C   UNL     1      -4.735   8.296  -0.300  0.00  0.00    -0.002 C 
ATOM     24  C   UNL     1      -3.553   7.517   0.279  0.00  0.00    -0.016 C 
ENDBRANCH  16  19
ENDBRANCH  14  16
ENDBRANCH  11  14
TORSDOF 3
