REMARK  Name = ZINC13130487
REMARK  6 active torsions:
REMARK  status: ('A' for Active; 'I' for Inactive)
REMARK    1  A    between atoms: C_4  and  C_7
REMARK    2  A    between atoms: C_16  and  C_17
REMARK    3  A    between atoms: C_20  and  C_23
REMARK    4  A    between atoms: C_28  and  C_30
REMARK    5  A    between atoms: C_30  and  C_31
REMARK    6  A    between atoms: C_31  and  C_32
REMARK                            x       y       z     vdW  Elec       q    Type
REMARK                         _______ _______ _______ _____ _____    ______ ____
ROOT
ATOM      1  C   UNL     1       5.161  -0.601   1.065  0.00  0.00    +0.005 A 
ATOM      2  C   UNL     1       5.939  -0.419  -0.169  0.00  0.00    +0.008 A 
ATOM      3  C   UNL     1       6.971   0.524  -0.226  0.00  0.00    +0.030 A 
ATOM      4  C   UNL     1       7.689   0.681  -1.390  0.00  0.00    +0.042 A 
ATOM      5  C   UNL     1       7.393  -0.092  -2.506  0.00  0.00    +0.022 A 
ATOM      6  C   UNL     1       6.380  -1.025  -2.465  0.00  0.00    +0.028 A 
ATOM      7  C   UNL     1       5.641  -1.201  -1.298  0.00  0.00    +0.050 A 
ATOM      8  N   UNL     1       4.625  -2.136  -1.256  0.00  0.00    -0.322 N 
ATOM      9  C   UNL     1       3.891  -2.333  -0.148  0.00  0.00    +0.259 A 
ATOM     10  C   UNL     1       4.146  -1.560   1.071  0.00  0.00    +0.070 A 
ATOM     11  O   UNL     1       3.005  -3.168  -0.155  0.00  0.00    -0.267 OA
ATOM     12 CL   UNL     1       8.970   1.851  -1.464  0.00  0.00    -0.084 Cl
ATOM     13  H   UNL     1       4.437  -2.665  -2.047  0.00  0.00    +0.169 HD
ENDROOT
BRANCH  10  14
ATOM     14  C   UNL     1       3.342  -1.788   2.278  0.00  0.00    +0.075 C 
ATOM     15  N   UNL     1       3.743  -2.414   3.333  0.00  0.00    -0.181 NA
ATOM     16  N   UNL     1       2.788  -2.494   4.345  0.00  0.00    -0.182 N 
ATOM     17  C   UNL     1       1.562  -1.816   3.896  0.00  0.00    +0.172 C 
ATOM     18  C   UNL     1       1.920  -1.317   2.482  0.00  0.00    +0.090 C 
ATOM     19  C   UNL     1       2.959  -3.094   5.539  0.00  0.00    +0.236 C 
ATOM     20  O   UNL     1       2.055  -3.104   6.348  0.00  0.00    -0.274 OA
BRANCH  17  21
ATOM     21  C   UNL     1       0.408  -2.784   3.849  0.00  0.00    +0.128 A 
ATOM     22  C   UNL     1      -0.863  -2.511   4.196  0.00  0.00    +0.046 A 
ATOM     23  C   UNL     1      -1.606  -3.697   3.998  0.00  0.00    +0.041 A 
ATOM     24  C   UNL     1      -0.745  -4.624   3.541  0.00  0.00    +0.195 A 
ATOM     25  O   UNL     1       0.472  -4.064   3.447  0.00  0.00    -0.466 OA
ENDBRANCH  17  21
BRANCH  19  26
ATOM     26  C   UNL     1       4.273  -3.754   5.870  0.00  0.00    +0.109 C 
BRANCH  26  27
ATOM     27  C   UNL     1       4.203  -4.355   7.275  0.00  0.00    +0.134 C 
BRANCH  27  28
ATOM     28  C   UNL     1       5.517  -5.014   7.605  0.00  0.00    +0.356 C 
ATOM     29  O   UNL     1       6.426  -5.005   6.792  0.00  0.00    -0.246 OA
ATOM     30  O   UNL     1       5.672  -5.557   8.686  0.00  0.00    -0.246 OA
ENDBRANCH  27  28
ENDBRANCH  26  27
ENDBRANCH  19  26
ENDBRANCH  10  14
BRANCH   1  34
ATOM     31  C   UNL     1       5.991   1.716   4.525  0.00  0.00    +0.000 A 
ATOM     32  C   UNL     1       6.920   0.795   4.074  0.00  0.00    +0.001 A 
ATOM     33  C   UNL     1       6.657   0.038   2.951  0.00  0.00    +0.008 A 
ATOM     34  C   UNL     1       5.450   0.205   2.268  0.00  0.00    -0.016 A 
ATOM     35  C   UNL     1       4.517   1.137   2.729  0.00  0.00    +0.008 A 
ATOM     36  C   UNL     1       4.793   1.886   3.853  0.00  0.00    +0.001 A 
ENDBRANCH   1  34
TORSDOF 6
