REMARK  Name = ZINC63772590
REMARK  9 active torsions:
REMARK  status: ('A' for Active; 'I' for Inactive)
REMARK    1  A    between atoms: C_1  and  C_2
REMARK    2  A    between atoms: C_2  and  O_3
REMARK    3  A    between atoms: O_3  and  C_4
REMARK    4  A    between atoms: C_4  and  C_6
REMARK    5  A    between atoms: C_9  and  C_27
REMARK    6  A    between atoms: C_11  and  N_13
REMARK    7  A    between atoms: C_14  and  C_16
REMARK    8  A    between atoms: C_16  and  S_17
REMARK    9  A    between atoms: S_17  and  C_18
REMARK                            x       y       z     vdW  Elec       q    Type
REMARK                         _______ _______ _______ _____ _____    ______ ____
ROOT
ATOM      1  N   UNL     1       1.326  -4.392  -1.120  0.00  0.00    -0.301 N 
ATOM      2  C   UNL     1       0.452  -5.369  -0.808  0.00  0.00    +0.224 C 
ATOM      3  O   UNL     1      -0.260  -5.844  -1.668  0.00  0.00    -0.275 OA
ATOM      4  H   UNL     1       1.895  -4.013  -0.433  0.00  0.00    +0.150 HD
ENDROOT
BRANCH   1   9
ATOM      5  C   UNL     1       1.468  -2.353  -2.550  0.00  0.00    +0.152 C 
ATOM      6  C   UNL     1       2.883  -1.872  -2.576  0.00  0.00    +0.000 C 
ATOM      7  C   UNL     1       3.852  -2.701  -2.913  0.00  0.00    -0.019 C 
ATOM      8  S   UNL     1       3.064  -4.268  -3.237  0.00  0.00    -0.107 S 
ATOM      9  C   UNL     1       1.417  -3.903  -2.498  0.00  0.00    +0.153 C 
ATOM     10  C   UNL     1       5.323  -2.388  -3.005  0.00  0.00    +0.051 C 
BRANCH   5  11
ATOM     11  C   UNL     1       0.775  -1.794  -1.334  0.00  0.00    +0.317 C 
ATOM     12  O   UNL     1       0.314  -2.540  -0.504  0.00  0.00    -0.250 OA
BRANCH  11  13
ATOM     13  O   UNL     1       0.671  -0.465  -1.174  0.00  0.00    -0.464 OA
BRANCH  13  15
ATOM     14  C   UNL     1      -0.019   1.526   0.010  0.00  0.00    +0.048 C 
ATOM     15  C   UNL     1       0.002  -0.004   0.002  0.00  0.00    +0.229 C 
ENDBRANCH  13  15
ENDBRANCH  11  13
ENDBRANCH   5  11
ENDBRANCH   1   9
BRANCH   2  16
ATOM     16  C   UNL     1       0.358  -5.872   0.609  0.00  0.00    +0.168 C 
BRANCH  16  17
ATOM     17  S   UNL     1      -0.899  -7.176   0.706  0.00  0.00    -0.106 S 
BRANCH  17  18
ATOM     18  C   UNL     1      -0.888  -7.668   2.452  0.00  0.00    +0.236 C 
ATOM     19  N   UNL     1      -1.153  -6.503   3.306  0.00  0.00    -0.355 N 
ATOM     20  C   UNL     1      -0.117  -6.338   4.076  0.00  0.00    +0.061 A 
ATOM     21  C   UNL     1       0.205  -5.359   5.123  0.00  0.00    +0.027 A 
ATOM     22  C   UNL     1       1.386  -5.439   5.768  0.00  0.00    +0.002 A 
ATOM     23  C   UNL     1       2.340  -6.431   5.483  0.00  0.00    +0.002 A 
ATOM     24  C   UNL     1       2.146  -7.378   4.543  0.00  0.00    +0.027 A 
ATOM     25  C   UNL     1       0.894  -7.389   3.774  0.00  0.00    +0.061 A 
ATOM     26  N   UNL     1       0.443  -8.162   2.828  0.00  0.00    -0.355 N 
ATOM     27  H   UNL     1      -1.954  -5.955   3.297  0.00  0.00    +0.162 HD
ATOM     28  H   UNL     1       0.902  -8.925   2.443  0.00  0.00    +0.162 HD
ENDBRANCH  17  18
ENDBRANCH  16  17
ENDBRANCH   2  16
TORSDOF 7
