REMARK  Name = ZINC04279806
REMARK  3 active torsions:
REMARK  status: ('A' for Active; 'I' for Inactive)
REMARK    1  A    between atoms: C_1  and  C_2
REMARK    2  A    between atoms: C_3  and  C_25
REMARK    3  A    between atoms: C_4  and  C_19
REMARK                            x       y       z     vdW  Elec       q    Type
REMARK                         _______ _______ _______ _____ _____    ______ ____
ROOT
ATOM      1  C   UNL     1      -0.018   1.503   0.010  0.00  0.00    +0.061 C 
ATOM      2  C   UNL     1       0.002  -0.004   0.002  0.00  0.00    +0.018 C 
ATOM      3  C   UNL     1      -1.159  -0.690   0.004  0.00  0.00    +0.057 C 
ATOM      4  C   UNL     1      -1.161  -2.205  -0.033  0.00  0.00    +0.163 C 
ATOM      5  N   UNL     1       0.065  -2.661   0.624  0.00  0.00    -0.211 N 
ATOM      6  C   UNL     1       1.214  -1.904   0.608  0.00  0.00    +0.206 C 
ATOM      7  N   UNL     1       2.153  -2.557   1.244  0.00  0.00    -0.200 NA
ATOM      8  C   UNL     1       1.677  -3.717   1.697  0.00  0.00    +0.146 C 
ATOM      9  C   UNL     1       2.435  -4.717   2.456  0.00  0.00    +0.016 C 
ATOM     10  C   UNL     1       1.811  -5.905   2.870  0.00  0.00    +0.015 C 
ATOM     11  C   UNL     1       2.515  -6.833   3.575  0.00  0.00    +0.051 C 
ATOM     12  C   UNL     1       3.864  -6.602   3.887  0.00  0.00    +0.179 C 
ATOM     13  O   UNL     1       4.553  -7.511   4.576  0.00  0.00    -0.288 OA
ATOM     14  C   UNL     1       4.488  -5.415   3.472  0.00  0.00    +0.051 C 
ATOM     15  C   UNL     1       3.785  -4.489   2.763  0.00  0.00    +0.015 C 
ATOM     16  N   UNL     1       0.356  -3.818   1.333  0.00  0.00    -0.244 N 
ATOM     17  N   UNL     1       1.213  -0.676  -0.013  0.00  0.00    -0.289 N 
ATOM     18  H   UNL     1      -0.250  -4.549   1.532  0.00  0.00    +0.172 HD
ATOM     19  H   UNL     1       2.005  -0.304  -0.431  0.00  0.00    +0.155 HD
ENDROOT
BRANCH   4  20
ATOM     20  C   UNL     1      -1.186  -2.682  -1.462  0.00  0.00    -0.021 A 
ATOM     21  C   UNL     1      -0.018  -2.710  -2.202  0.00  0.00    +0.006 A 
ATOM     22  C   UNL     1      -0.041  -3.148  -3.513  0.00  0.00    +0.000 A 
ATOM     23  C   UNL     1      -1.231  -3.558  -4.084  0.00  0.00    +0.000 A 
ATOM     24  C   UNL     1      -2.398  -3.530  -3.345  0.00  0.00    +0.000 A 
ATOM     25  C   UNL     1      -2.375  -3.097  -2.032  0.00  0.00    +0.006 A 
ENDBRANCH   4  20
BRANCH   3  26
ATOM     26  C   UNL     1      -2.389   0.012   0.041  0.00  0.00    +0.241 C 
ATOM     27  O   UNL     1      -2.394   1.230   0.071  0.00  0.00    -0.271 OA
ATOM     28  N   UNL     1      -3.554  -0.667   0.043  0.00  0.00    -0.326 N 
ATOM     29  H   UNL     1      -3.549  -1.636   0.019  0.00  0.00    +0.145 HD
ATOM     30  H   UNL     1      -4.396  -0.186   0.069  0.00  0.00    +0.145 HD
ENDBRANCH   3  26
TORSDOF 2
