REMARK  Name = ZINC63651868
REMARK  7 active torsions:
REMARK  status: ('A' for Active; 'I' for Inactive)
REMARK    1  A    between atoms: C_1  and  C_2
REMARK    2  A    between atoms: C_5  and  C_9
REMARK    3  A    between atoms: C_7  and  C_8
REMARK    4  A    between atoms: C_9  and  C_10
REMARK    5  A    between atoms: C_9  and  O_25
REMARK    6  A    between atoms: C_10  and  N_11
REMARK    7  A    between atoms: C_19  and  C_20
REMARK                            x       y       z     vdW  Elec       q    Type
REMARK                         _______ _______ _______ _____ _____    ______ ____
ROOT
ATOM      1  N   UNL     1       1.534  -6.226  -0.046  0.00  0.00    -0.320 N 
ATOM      2  C   UNL     1       1.680  -6.957   1.118  0.00  0.00    +0.069 A 
ATOM      3  C   UNL     1       1.833  -6.618   2.455  0.00  0.00    +0.028 A 
ATOM      4  C   UNL     1       1.957  -7.612   3.403  0.00  0.00    +0.002 A 
ATOM      5  C   UNL     1       1.930  -8.948   3.028  0.00  0.00    +0.002 A 
ATOM      6  C   UNL     1       1.781  -9.301   1.717  0.00  0.00    +0.030 A 
ATOM      7  C   UNL     1       1.653  -8.311   0.739  0.00  0.00    +0.090 A 
ATOM      8  N   UNL     1       1.495  -8.346  -0.608  0.00  0.00    -0.226 NA
ATOM      9  C   UNL     1       1.419  -7.123  -1.075  0.00  0.00    +0.161 A 
ENDROOT
BRANCH   9  10
ATOM     10  C   UNL     1       1.240  -6.766  -2.497  0.00  0.00    +0.113 A 
ATOM     11  C   UNL     1       1.126  -7.723  -3.474  0.00  0.00    +0.078 A 
ATOM     12  S   UNL     1       0.938  -6.694  -4.921  0.00  0.00    -0.083 S 
ATOM     13  C   UNL     1       1.021  -5.197  -4.159  0.00  0.00    +0.156 A 
ATOM     14  N   UNL     1       1.174  -5.503  -2.898  0.00  0.00    -0.244 NA
ENDBRANCH   9  10
BRANCH   1  15
ATOM     15  C   UNL     1       1.502  -4.766  -0.158  0.00  0.00    +0.160 C 
BRANCH  15  16
ATOM     16  C   UNL     1       0.059  -4.275  -0.021  0.00  0.00    +0.164 C 
BRANCH  16  21
ATOM     17  C   UNL     1      -0.018   1.503   0.010  0.00  0.00    +0.044 C 
ATOM     18  C   UNL     1       0.002  -0.004   0.002  0.00  0.00    -0.048 A 
ATOM     19  C   UNL     1       0.006  -0.689  -1.199  0.00  0.00    +0.004 A 
ATOM     20  C   UNL     1       0.025  -2.071  -1.207  0.00  0.00    +0.006 A 
ATOM     21  C   UNL     1       0.040  -2.768  -0.013  0.00  0.00    -0.017 A 
ATOM     22  C   UNL     1       0.037  -2.084   1.188  0.00  0.00    +0.009 A 
ATOM     23  C   UNL     1       0.023  -0.702   1.195  0.00  0.00    -0.047 A 
ATOM     24  C   UNL     1       0.025   0.045   2.504  0.00  0.00    +0.044 C 
ENDBRANCH  16  21
BRANCH  16  25
ATOM     25  O   UNL     1      -0.713  -4.756  -1.123  0.00  0.00    -0.385 OA
ATOM     26  H   UNL     1      -0.392  -4.461  -1.987  0.00  0.00    +0.210 HD
ENDBRANCH  16  25
ENDBRANCH  15  16
ENDBRANCH   1  15
TORSDOF 5
