REMARK  Name = ZINC55007977
REMARK  6 active torsions:
REMARK  status: ('A' for Active; 'I' for Inactive)
REMARK    1  A    between atoms: C_1  and  C_2
REMARK    2  A    between atoms: N_5  and  C_11
REMARK    3  A    between atoms: C_7  and  C_10
REMARK    4  A    between atoms: C_11  and  C_12
REMARK    5  A    between atoms: C_17  and  N_18
REMARK    6  A    between atoms: N_18  and  C_19
REMARK                            x       y       z     vdW  Elec       q    Type
REMARK                         _______ _______ _______ _____ _____    ______ ____
ROOT
ATOM      1  N   UNL     1       5.266  -1.399  -1.251  0.00  0.00    -0.320 N 
ATOM      2  H   UNL     1       4.434  -1.895  -1.190  0.00  0.00    +0.152 HD
ENDROOT
BRANCH   1   3
ATOM      3  C   UNL     1       6.298  -1.698  -0.417  0.00  0.00    +0.085 C 
ATOM      4  C   UNL     1       6.217  -2.794   0.413  0.00  0.00    +0.059 C 
ATOM      5  C   UNL     1       5.393  -3.965   0.049  0.00  0.00    +0.000 A 
ATOM      6  C   UNL     1       4.670  -4.011  -1.137  0.00  0.00    +0.009 A 
ATOM      7  C   UNL     1       3.915  -5.128  -1.432  0.00  0.00    +0.001 A 
ATOM      8  C   UNL     1       3.873  -6.202  -0.555  0.00  0.00    +0.001 A 
ATOM      9  C   UNL     1       4.584  -6.175   0.626  0.00  0.00    +0.013 A 
ATOM     10  C   UNL     1       5.353  -5.055   0.943  0.00  0.00    +0.045 A 
ATOM     11  C   UNL     1       6.125  -4.986   2.191  0.00  0.00    +0.251 C 
ATOM     12  O   UNL     1       6.095  -5.923   2.966  0.00  0.00    -0.270 OA
ATOM     13  N   UNL     1       6.865  -3.905   2.490  0.00  0.00    -0.248 N 
ATOM     14  C   UNL     1       6.952  -2.835   1.683  0.00  0.00    +0.252 C 
ATOM     15  O   UNL     1       7.644  -1.889   2.010  0.00  0.00    -0.270 OA
ATOM     16  H   UNL     1       7.360  -3.898   3.324  0.00  0.00    +0.158 HD
ENDBRANCH   1   3
BRANCH   1  22
ATOM     17  C   UNL     1       4.312   0.013  -2.961  0.00  0.00    -0.012 A 
ATOM     18  C   UNL     1       4.450   1.026  -3.890  0.00  0.00    +0.007 A 
ATOM     19  C   UNL     1       5.674   1.647  -4.061  0.00  0.00    +0.000 A 
ATOM     20  C   UNL     1       6.763   1.257  -3.303  0.00  0.00    +0.002 A 
ATOM     21  C   UNL     1       6.632   0.245  -2.373  0.00  0.00    +0.023 A 
ATOM     22  C   UNL     1       5.403  -0.378  -2.195  0.00  0.00    +0.035 A 
BRANCH  17  23
ATOM     23  C   UNL     1       2.979  -0.663  -2.775  0.00  0.00    +0.121 C 
BRANCH  23  27
ATOM     24  C   UNL     1       0.181   1.868  -0.816  0.00  0.00    +0.039 C 
ATOM     25  C   UNL     1       0.098   0.359  -0.575  0.00  0.00    +0.130 C 
ATOM     26  C   UNL     1       0.827  -0.380  -1.700  0.00  0.00    +0.116 C 
ATOM     27  N   UNL     1       2.252  -0.018  -1.674  0.00  0.00    -0.293 NA
ATOM     28  C   UNL     1       2.852  -0.358  -0.376  0.00  0.00    +0.116 C 
ATOM     29  C   UNL     1       2.103   0.381   0.736  0.00  0.00    +0.130 C 
ATOM     30  O   UNL     1       0.714   0.041   0.676  0.00  0.00    -0.371 OA
ATOM     31  C   UNL     1       2.672  -0.030   2.096  0.00  0.00    +0.039 C 
ENDBRANCH  23  27
ENDBRANCH  17  23
ENDBRANCH   1  22
TORSDOF 4
