REMARK  Name = ZINC44164457
REMARK  13 active torsions:
REMARK  status: ('A' for Active; 'I' for Inactive)
REMARK    1  A    between atoms: C_1  and  C_2
REMARK    2  A    between atoms: C_2  and  C_3
REMARK    3  A    between atoms: C_2  and  C_4
REMARK    4  A    between atoms: C_2  and  C_5
REMARK    5  A    between atoms: C_7  and  C_16
REMARK    6  A    between atoms: C_9  and  C_12
REMARK    7  A    between atoms: C_10  and  O_11
REMARK    8  A    between atoms: C_12  and  C_13
REMARK    9  A    between atoms: C_12  and  C_14
REMARK   10  A    between atoms: C_12  and  C_15
REMARK   11  A    between atoms: C_21  and  C_24
REMARK   12  A    between atoms: N_29  and  C_32
REMARK   13  A    between atoms: C_32  and  C_33
REMARK                            x       y       z     vdW  Elec       q    Type
REMARK                         _______ _______ _______ _____ _____    ______ ____
ROOT
ATOM      1  C   UNL     1       2.364   1.020  -4.303  0.00  0.00    -0.030 C 
ATOM      2  C   UNL     1       1.419   1.185  -5.500  0.00  0.00    +0.058 C 
ATOM      3  S   UNL     1       2.139   2.418  -6.628  0.00  0.00    -0.163 S 
ATOM      4  C   UNL     1       3.850   1.829  -6.824  0.00  0.00    +0.062 C 
ATOM      5  C   UNL     1       4.431   1.568  -5.429  0.00  0.00    +0.027 C 
ATOM      6  N   UNL     1       3.661   0.517  -4.760  0.00  0.00    +0.392 N 
ATOM      7  H   UNL     1       4.183   0.180  -3.966  0.00  0.00    -0.084 HD
ATOM      8  H   UNL     1       3.511  -0.246  -5.404  0.00  0.00    -0.084 HD
ENDROOT
BRANCH   5   9
ATOM      9  C   UNL     1       4.364   2.834  -4.614  0.00  0.00    +0.202 C 
ATOM     10  O   UNL     1       3.960   3.860  -5.119  0.00  0.00    -0.277 OA
ATOM     11  N   UNL     1       4.751   2.825  -3.323  0.00  0.00    -0.300 N 
ATOM     12  C   UNL     1       5.367   1.629  -2.728  0.00  0.00    +0.123 C 
ATOM     13  C   UNL     1       6.672   2.045  -2.040  0.00  0.00    +0.103 C 
ATOM     14  N   UNL     1       6.399   3.138  -1.097  0.00  0.00    -0.295 NA
ATOM     15  C   UNL     1       5.907   4.333  -1.795  0.00  0.00    +0.103 C 
ATOM     16  C   UNL     1       4.576   4.013  -2.474  0.00  0.00    +0.123 C 
BRANCH  14  17
ATOM     17  C   UNL     1       7.588   3.449  -0.293  0.00  0.00    +0.119 C 
BRANCH  17  18
ATOM     18  C   UNL     1       7.209   4.392   0.819  0.00  0.00    -0.033 A 
ATOM     19  C   UNL     1       7.266   5.759   0.616  0.00  0.00    +0.005 A 
ATOM     20  C   UNL     1       6.919   6.624   1.637  0.00  0.00    +0.000 A 
ATOM     21  C   UNL     1       6.514   6.123   2.860  0.00  0.00    +0.000 A 
ATOM     22  C   UNL     1       6.456   4.757   3.063  0.00  0.00    +0.000 A 
ATOM     23  C   UNL     1       6.800   3.892   2.041  0.00  0.00    +0.005 A 
ENDBRANCH  17  18
ENDBRANCH  14  17
ENDBRANCH   5   9
BRANCH   1  26
ATOM     24  C   UNL     1       0.558  -0.383  -1.300  0.00  0.00    -0.000 A 
ATOM     25  C   UNL     1       1.108   0.510  -2.199  0.00  0.00    +0.009 A 
ATOM     26  C   UNL     1       1.765   0.044  -3.323  0.00  0.00    -0.060 A 
ATOM     27  C   UNL     1       1.873  -1.315  -3.550  0.00  0.00    +0.009 A 
ATOM     28  C   UNL     1       1.325  -2.212  -2.654  0.00  0.00    -0.000 A 
ATOM     29  C   UNL     1       0.670  -1.748  -1.522  0.00  0.00    +0.124 A 
BRANCH  24  31
ATOM     30  C   UNL     1      -0.139   1.655  -0.071  0.00  0.00    +0.015 C 
ATOM     31  C   UNL     1      -0.158   0.125  -0.075  0.00  0.00    -0.009 C 
ATOM     32  C   UNL     1       0.545  -0.397   1.180  0.00  0.00    +0.015 C 
ATOM     33  C   UNL     1      -1.607  -0.367  -0.090  0.00  0.00    +0.015 C 
ENDBRANCH  24  31
BRANCH  28  34
ATOM     34  C   UNL     1       1.443  -3.694  -2.901  0.00  0.00    -0.009 C 
ATOM     35  C   UNL     1       2.210  -3.934  -4.204  0.00  0.00    +0.015 C 
ATOM     36  C   UNL     1       2.195  -4.347  -1.740  0.00  0.00    +0.015 C 
ATOM     37  C   UNL     1       0.045  -4.306  -3.013  0.00  0.00    +0.015 C 
ENDBRANCH  28  34
BRANCH  29  38
ATOM     38  O   UNL     1       0.135  -2.628  -0.636  0.00  0.00    -0.506 OA
ATOM     39  H   UNL     1      -0.780  -2.872  -0.828  0.00  0.00    +0.292 HD
ENDBRANCH  29  38
ENDBRANCH   1  26
TORSDOF 7
