REMARK  Name = ZINC22034374
REMARK  7 active torsions:
REMARK  status: ('A' for Active; 'I' for Inactive)
REMARK    1  A    between atoms: C_1  and  C_2
REMARK    2  A    between atoms: C_3  and  C_29
REMARK    3  A    between atoms: N_9  and  C_24
REMARK    4  A    between atoms: C_10  and  S_12
REMARK    5  A    between atoms: S_12  and  C_13
REMARK    6  A    between atoms: C_13  and  C_14
REMARK    7  A    between atoms: N_16  and  C_17
REMARK                            x       y       z     vdW  Elec       q    Type
REMARK                         _______ _______ _______ _____ _____    ______ ____
ROOT
ATOM      1  C   UNL     1       1.576   9.403   0.101  0.00  0.00    +0.045 C 
ATOM      2  C   UNL     1       0.572   8.280   0.084  0.00  0.00    -0.026 A 
ATOM      3  C   UNL     1      -0.743   8.546   0.089  0.00  0.00    -0.008 A 
ATOM      4  S   UNL     1      -1.493   6.928   0.065  0.00  0.00    -0.073 S 
ATOM      5  C   UNL     1      -0.018   5.941   0.049  0.00  0.00    +0.117 A 
ATOM      6  C   UNL     1       1.016   6.897   0.063  0.00  0.00    +0.075 A 
ATOM      7  C   UNL     1       2.347   6.373   0.055  0.00  0.00    +0.263 A 
ATOM      8  O   UNL     1       3.306   7.125   0.066  0.00  0.00    -0.267 OA
ATOM      9  N   UNL     1       2.526   5.040   0.035  0.00  0.00    -0.284 N 
ATOM     10  C   UNL     1       1.465   4.182   0.023  0.00  0.00    +0.173 A 
ATOM     11  N   UNL     1       0.228   4.637   0.025  0.00  0.00    -0.216 NA
ATOM     12  C   UNL     1      -1.423   9.890   0.110  0.00  0.00    +0.052 C 
ENDROOT
BRANCH   9  13
ATOM     13  C   UNL     1       3.888   4.498   0.027  0.00  0.00    +0.093 C 
ATOM     14  C   UNL     1       4.630   4.916   1.313  0.00  0.00    +0.025 C 
ATOM     15  C   UNL     1       6.083   5.179   0.843  0.00  0.00    +0.002 C 
ATOM     16  C   UNL     1       5.880   5.843  -0.542  0.00  0.00    +0.002 C 
ATOM     17  C   UNL     1       4.682   5.087  -1.152  0.00  0.00    +0.025 C 
ENDBRANCH   9  13
BRANCH  10  18
ATOM     18  S   UNL     1       1.751   2.444  -0.003  0.00  0.00    -0.078 S 
BRANCH  18  19
ATOM     19  C   UNL     1       0.043   1.844  -0.011  0.00  0.00    +0.173 C 
BRANCH  19  20
ATOM     20  C   UNL     1       0.041   0.337  -0.033  0.00  0.00    +0.228 C 
ATOM     21  O   UNL     1       1.090  -0.271  -0.043  0.00  0.00    -0.275 OA
ATOM     22  N   UNL     1      -1.128  -0.334  -0.042  0.00  0.00    -0.284 N 
ATOM     23  H   UNL     1      -2.078   0.214   0.040  0.00  0.00    +0.155 HD
BRANCH  22  24
ATOM     24  C   UNL     1      -1.133  -1.729  -0.157  0.00  0.00    +0.047 A 
ATOM     25  C   UNL     1      -0.121  -2.479   0.428  0.00  0.00    +0.024 A 
ATOM     26  C   UNL     1      -0.130  -3.856   0.316  0.00  0.00    +0.002 A 
ATOM     27  C   UNL     1      -1.141  -4.487  -0.385  0.00  0.00    +0.001 A 
ATOM     28  C   UNL     1      -2.148  -3.744  -0.973  0.00  0.00    +0.017 A 
ATOM     29  C   UNL     1      -2.147  -2.367  -0.861  0.00  0.00    +0.039 A 
ATOM     30 BR   UNL     1      -3.523  -1.351  -1.666  0.00  0.00    -0.048 Br
ENDBRANCH  22  24
ENDBRANCH  19  20
ENDBRANCH  18  19
ENDBRANCH  10  18
TORSDOF 5
