REMARK  Name = ZINC40729758
REMARK  6 active torsions:
REMARK  status: ('A' for Active; 'I' for Inactive)
REMARK    1  A    between atoms: C_4  and  C_7
REMARK    2  A    between atoms: C_7  and  C_8
REMARK    3  A    between atoms: C_7  and  N_14
REMARK    4  A    between atoms: C_21  and  N_37
REMARK    5  A    between atoms: C_22  and  N_26
REMARK    6  A    between atoms: N_26  and  C_27
REMARK                            x       y       z     vdW  Elec       q    Type
REMARK                         _______ _______ _______ _____ _____    ______ ____
ROOT
ATOM      1  N   UNL     1       3.665  -1.919  -0.885  0.00  0.00    -0.289 NA
ATOM      2  C   UNL     1       3.223  -1.502  -2.223  0.00  0.00    +0.104 C 
ATOM      3  C   UNL     1       2.951  -2.744  -3.078  0.00  0.00    +0.122 C 
ATOM      4  N   UNL     1       4.149  -3.597  -3.057  0.00  0.00    -0.311 N 
ATOM      5  C   UNL     1       4.732  -3.946  -1.753  0.00  0.00    +0.122 C 
ATOM      6  C   UNL     1       4.934  -2.656  -0.950  0.00  0.00    +0.104 C 
ATOM      7  C   UNL     1       4.714  -4.062  -4.239  0.00  0.00    +0.147 A 
ATOM      8  C   UNL     1       4.381  -5.323  -4.736  0.00  0.00    +0.106 A 
ATOM      9  C   UNL     1       4.977  -5.741  -5.926  0.00  0.00    +0.149 A 
ATOM     10  N   UNL     1       5.835  -4.927  -6.538  0.00  0.00    -0.219 NA
ATOM     11  C   UNL     1       6.122  -3.744  -6.035  0.00  0.00    +0.225 A 
ATOM     12  N   UNL     1       5.577  -3.309  -4.917  0.00  0.00    -0.219 NA
ENDROOT
BRANCH   8  13
ATOM     13  N   UNL     1       3.471  -6.149  -4.056  0.00  0.00    -0.353 N 
ATOM     14  H   UNL     1       3.009  -5.818  -3.270  0.00  0.00    +0.143 HD
ATOM     15  H   UNL     1       3.304  -7.051  -4.373  0.00  0.00    +0.143 HD
ENDBRANCH   8  13
BRANCH   9  16
ATOM     16  N   UNL     1       4.681  -6.989  -6.465  0.00  0.00    -0.297 N 
ATOM     17  H   UNL     1       3.992  -7.540  -6.062  0.00  0.00    +0.154 HD
BRANCH  16  18
ATOM     18  C   UNL     1       5.373  -7.447  -7.585  0.00  0.00    +0.040 A 
ATOM     19  C   UNL     1       6.636  -6.970  -7.865  0.00  0.00    +0.024 A 
ATOM     20  C   UNL     1       7.336  -7.420  -8.980  0.00  0.00    +0.002 A 
ATOM     21  C   UNL     1       6.796  -8.343  -9.823  0.00  0.00    +0.008 A 
ATOM     22  C   UNL     1       5.511  -8.854  -9.574  0.00  0.00    -0.016 A 
ATOM     23  C   UNL     1       4.791  -8.408  -8.438  0.00  0.00    +0.003 A 
ATOM     24  C   UNL     1       3.510  -8.924  -8.188  0.00  0.00    +0.010 A 
ATOM     25  C   UNL     1       2.979  -9.850  -9.033  0.00  0.00    +0.001 A 
ATOM     26  C   UNL     1       3.689 -10.295 -10.146  0.00  0.00    +0.001 A 
ATOM     27  C   UNL     1       4.928  -9.807 -10.428  0.00  0.00    +0.008 A 
ENDBRANCH  16  18
ENDBRANCH   9  16
BRANCH   1  28
ATOM     28  C   UNL     1       3.772  -0.766   0.018  0.00  0.00    +0.117 C 
BRANCH  28  32
ATOM     29  C   UNL     1       0.036   1.302   0.130  0.00  0.00    +0.000 A 
ATOM     30  C   UNL     1       1.220   2.015   0.113  0.00  0.00    +0.000 A 
ATOM     31  C   UNL     1       2.429   1.346   0.077  0.00  0.00    +0.005 A 
ATOM     32  C   UNL     1       2.454  -0.036   0.058  0.00  0.00    -0.026 A 
ATOM     33  C   UNL     1       1.269  -0.749   0.076  0.00  0.00    +0.005 A 
ATOM     34  C   UNL     1       0.060  -0.080   0.110  0.00  0.00    +0.000 A 
ENDBRANCH  28  32
BRANCH  28  35
ATOM     35  C   UNL     1       4.124  -1.243   1.403  0.00  0.00    -0.026 A 
ATOM     36  C   UNL     1       3.547  -2.395   1.905  0.00  0.00    +0.005 A 
ATOM     37  C   UNL     1       3.870  -2.833   3.175  0.00  0.00    +0.000 A 
ATOM     38  C   UNL     1       4.771  -2.120   3.944  0.00  0.00    +0.000 A 
ATOM     39  C   UNL     1       5.348  -0.968   3.442  0.00  0.00    +0.000 A 
ATOM     40  C   UNL     1       5.028  -0.533   2.170  0.00  0.00    +0.005 A 
ENDBRANCH  28  35
ENDBRANCH   1  28
TORSDOF 6
