REMARK  Name = ZINC39491776
REMARK  16 active torsions:
REMARK  status: ('A' for Active; 'I' for Inactive)
REMARK    1  A    between atoms: C_1  and  C_2
REMARK    2  A    between atoms: C_2  and  N_3
REMARK    3  A    between atoms: N_3  and  C_4
REMARK    4  A    between atoms: C_4  and  C_5
REMARK    5  A    between atoms: N_7  and  C_18
REMARK    6  A    between atoms: C_11  and  C_14
REMARK    7  A    between atoms: C_14  and  O_16
REMARK    8  A    between atoms: O_16  and  C_17
REMARK    9  A    between atoms: C_18  and  C_19
REMARK   10  A    between atoms: C_19  and  S_21
REMARK   11  A    between atoms: C_19  and  S_27
REMARK   12  A    between atoms: S_21  and  C_24
REMARK   13  A    between atoms: C_24  and  C_25
REMARK   14  A    between atoms: C_24  and  C_26
REMARK   15  A    between atoms: S_27  and  O_30
REMARK   16  A    between atoms: O_30  and  C_31
REMARK                            x       y       z     vdW  Elec       q    Type
REMARK                         _______ _______ _______ _____ _____    ______ ____
ROOT
ATOM      1  C   UNL     1      -5.504  -1.178   0.262  0.00  0.00    -0.039 A 
ATOM      2  C   UNL     1      -6.029  -1.960   1.218  0.00  0.00    +0.088 A 
ATOM      3  N   UNL     1      -6.671  -3.026   0.649  0.00  0.00    -0.343 N 
ATOM      4  C   UNL     1      -6.574  -2.958  -0.720  0.00  0.00    +0.049 A 
ATOM      5  C   UNL     1      -5.844  -1.792  -1.025  0.00  0.00    +0.002 A 
ATOM      6  C   UNL     1      -5.591  -1.456  -2.353  0.00  0.00    +0.025 A 
ATOM      7  C   UNL     1      -6.069  -2.280  -3.368  0.00  0.00    +0.060 A 
ATOM      8  C   UNL     1      -6.798  -3.435  -3.051  0.00  0.00    +0.017 A 
ATOM      9  C   UNL     1      -7.039  -3.770  -1.752  0.00  0.00    +0.027 A 
ENDROOT
BRANCH   7  10
ATOM     10  C   UNL     1      -5.809  -1.937  -4.779  0.00  0.00    +0.339 C 
ATOM     11  O   UNL     1      -5.178  -0.936  -5.055  0.00  0.00    -0.245 OA
BRANCH  10  12
ATOM     12  O   UNL     1      -6.271  -2.734  -5.763  0.00  0.00    -0.464 OA
ATOM     13  C   UNL     1      -5.983  -2.341  -7.106  0.00  0.00    +0.280 C 
ENDBRANCH  10  12
ENDBRANCH   7  10
BRANCH   1  14
ATOM     14  C   UNL     1      -4.721   0.093   0.471  0.00  0.00    -0.045 C 
BRANCH  14  15
ATOM     15  N   UNL     1      -5.601   1.250   0.263  0.00  0.00    +0.382 N 
ATOM     16  H   UNL     1      -6.366   1.214   0.920  0.00  0.00    -0.085 HD
ATOM     17  H   UNL     1      -5.966   1.231  -0.678  0.00  0.00    -0.085 HD
BRANCH  15  19
ATOM     18  C   UNL     1      -5.755   3.695   0.250  0.00  0.00    -0.017 C 
ATOM     19  C   UNL     1      -4.838   2.489   0.467  0.00  0.00    -0.086 C 
ENDBRANCH  15  19
ENDBRANCH  14  15
ENDBRANCH   1  14
BRANCH   3  20
ATOM     20  C   UNL     1      -7.359  -4.086   1.391  0.00  0.00    +0.175 C 
BRANCH  20  21
ATOM     21  C   UNL     1      -6.409  -5.269   1.588  0.00  0.00    +0.330 C 
BRANCH  21  22
ATOM     22  S   UNL     1      -6.006  -5.996  -0.024  0.00  0.00    -0.001 S 
ATOM     23  O   UNL     1      -7.197  -6.526  -0.589  0.00  0.00    -0.172 OA
ATOM     24  O   UNL     1      -5.249  -5.050  -0.767  0.00  0.00    -0.172 OA
BRANCH  22  25
ATOM     25  C   UNL     1      -4.918  -7.379   0.421  0.00  0.00    +0.127 C 
ATOM     26  C   UNL     1      -4.468  -8.102  -0.850  0.00  0.00    +0.031 C 
ATOM     27  C   UNL     1      -3.693  -6.845   1.165  0.00  0.00    +0.031 C 
ENDBRANCH  22  25
ENDBRANCH  21  22
BRANCH  21  28
ATOM     28  S   UNL     1      -7.210  -6.519   2.632  0.00  0.00    +0.146 S 
ATOM     29  O   UNL     1      -8.097  -5.895   3.549  0.00  0.00    -0.135 OA
ATOM     30  O   UNL     1      -7.641  -7.616   1.838  0.00  0.00    -0.135 OA
BRANCH  28  31
ATOM     31  O   UNL     1      -6.090  -7.082   3.496  0.00  0.00    -0.345 OA
BRANCH  31  32
ATOM     32  C   UNL     1      -5.691  -6.251   4.494  0.00  0.00    +0.156 A 
ATOM     33  C   UNL     1      -4.573  -5.448   4.325  0.00  0.00    +0.048 A 
ATOM     34  C   UNL     1      -4.169  -4.604   5.341  0.00  0.00    +0.004 A 
ATOM     35  C   UNL     1      -4.880  -4.558   6.527  0.00  0.00    +0.000 A 
ATOM     36  C   UNL     1      -5.995  -5.358   6.698  0.00  0.00    +0.004 A 
ATOM     37  C   UNL     1      -6.405  -6.199   5.683  0.00  0.00    +0.048 A 
ENDBRANCH  31  32
ENDBRANCH  28  31
ENDBRANCH  21  28
ENDBRANCH  20  21
ENDBRANCH   3  20
TORSDOF 12
