REMARK  Name = ZINC09442278
REMARK  8 active torsions:
REMARK  status: ('A' for Active; 'I' for Inactive)
REMARK    1  A    between atoms: C_1  and  C_2
REMARK    2  A    between atoms: C_2  and  C_3
REMARK    3  A    between atoms: C_3  and  N_52
REMARK    4  A    between atoms: C_4  and  C_5
REMARK    5  A    between atoms: C_4  and  N_52
REMARK    6  A    between atoms: N_7  and  C_8
REMARK    7  A    between atoms: C_16  and  N_17
REMARK    8  A    between atoms: C_16  and  N_52
REMARK                            x       y       z     vdW  Elec       q    Type
REMARK                         _______ _______ _______ _____ _____    ______ ____
ROOT
ATOM      1  N   UNL     1      -4.888   0.917  -0.354  0.00  0.00    +0.396 N 
ATOM      2  H   UNL     1      -4.768   0.267  -1.140  0.00  0.00    -0.079 HD
ENDROOT
BRANCH   1   3
ATOM      3  C   UNL     1      -5.336   0.158   0.833  0.00  0.00    -0.076 C 
BRANCH   3   5
ATOM      4  C   UNL     1      -6.979  -1.542   1.641  0.00  0.00    +0.002 C 
ATOM      5  C   UNL     1      -6.448  -0.804   0.410  0.00  0.00    -0.022 C 
ENDBRANCH   3   5
ENDBRANCH   1   3
BRANCH   1   6
ATOM      6  C   UNL     1      -3.595   1.576  -0.074  0.00  0.00    +0.021 C 
BRANCH   6   7
ATOM      7  C   UNL     1      -2.533   0.518   0.077  0.00  0.00    +0.201 C 
ATOM      8  O   UNL     1      -2.826  -0.655  -0.021  0.00  0.00    -0.278 OA
ATOM      9  N   UNL     1      -1.256   0.875   0.321  0.00  0.00    -0.286 N 
ATOM     10  H   UNL     1      -1.035   1.806   0.477  0.00  0.00    +0.155 HD
BRANCH   9  11
ATOM     11  C   UNL     1      -0.250  -0.098   0.348  0.00  0.00    +0.052 A 
ATOM     12  C   UNL     1      -0.462  -1.334  -0.249  0.00  0.00    +0.026 A 
ATOM     13  C   UNL     1       0.535  -2.290  -0.226  0.00  0.00    +0.022 A 
ATOM     14  C   UNL     1       1.743  -2.018   0.391  0.00  0.00    +0.042 A 
ATOM     15  C   UNL     1       1.958  -0.788   0.986  0.00  0.00    +0.041 A 
ATOM     16  C   UNL     1       0.964   0.173   0.967  0.00  0.00    +0.064 A 
ATOM     17 CL   UNL     1       1.233   1.717   1.714  0.00  0.00    -0.082 Cl
ATOM     18 CL   UNL     1       2.993  -3.223   0.418  0.00  0.00    -0.083 Cl
ENDBRANCH   9  11
ENDBRANCH   6   7
ENDBRANCH   1   6
BRANCH   1  19
ATOM     19  C   UNL     1      -5.903   1.928  -0.719  0.00  0.00    +0.043 C 
BRANCH  19  20
ATOM     20  N   UNL     1      -5.791   2.206  -2.153  0.00  0.00    -0.241 N 
ATOM     21  C   UNL     1      -6.355   1.450  -3.119  0.00  0.00    +0.245 C 
ATOM     22  O   UNL     1      -7.025   0.450  -2.974  0.00  0.00    -0.273 OA
ATOM     23  C   UNL     1      -5.974   2.114  -4.418  0.00  0.00    +0.112 C 
ATOM     24  C   UNL     1      -7.220   2.552  -5.199  0.00  0.00    +0.035 C 
ATOM     25  C   UNL     1      -6.824   2.341  -6.684  0.00  0.00    +0.003 C 
ATOM     26  C   UNL     1      -5.975   1.045  -6.634  0.00  0.00    +0.003 C 
ATOM     27  C   UNL     1      -5.178   1.164  -5.316  0.00  0.00    +0.035 C 
ATOM     28  N   UNL     1      -5.169   3.270  -4.016  0.00  0.00    -0.285 N 
ATOM     29  C   UNL     1      -5.121   3.245  -2.668  0.00  0.00    +0.308 C 
ATOM     30  O   UNL     1      -4.533   4.070  -1.998  0.00  0.00    -0.252 OA
ATOM     31  H   UNL     1      -4.757   3.924  -4.601  0.00  0.00    +0.151 HD
ENDBRANCH  19  20
ENDBRANCH   1  19
TORSDOF 7
