REMARK  Name = ZINC59057631
REMARK  9 active torsions:
REMARK  status: ('A' for Active; 'I' for Inactive)
REMARK    1  A    between atoms: C_1  and  C_2
REMARK    2  A    between atoms: C_5  and  C_36
REMARK    3  A    between atoms: N_8  and  C_10
REMARK    4  A    between atoms: C_10  and  C_11
REMARK    5  A    between atoms: C_14  and  C_17
REMARK    6  A    between atoms: C_17  and  N_18
REMARK    7  A    between atoms: C_19  and  C_21
REMARK    8  A    between atoms: C_22  and  C_23
REMARK    9  A    between atoms: C_26  and  N_29
REMARK                            x       y       z     vdW  Elec       q    Type
REMARK                         _______ _______ _______ _____ _____    ______ ____
ROOT
ATOM      1  N   UNL     1      -0.844   2.866   6.580  0.00  0.00    -0.308 N 
ATOM      2  C   UNL     1      -1.586   3.542   7.480  0.00  0.00    +0.237 C 
ATOM      3  O   UNL     1      -1.329   3.457   8.667  0.00  0.00    -0.271 OA
ATOM      4  H   UNL     1      -1.049   2.933   5.634  0.00  0.00    +0.149 HD
ENDROOT
BRANCH   2   5
ATOM      5  C   UNL     1      -2.699   4.376   7.030  0.00  0.00    +0.068 C 
ATOM      6  C   UNL     1      -3.442   5.053   7.932  0.00  0.00    +0.013 C 
BRANCH   6   7
ATOM      7  C   UNL     1      -4.561   5.891   7.480  0.00  0.00    -0.025 A 
ATOM      8  C   UNL     1      -4.862   5.985   6.116  0.00  0.00    +0.010 A 
ATOM      9  C   UNL     1      -5.907   6.768   5.699  0.00  0.00    +0.025 A 
ATOM     10  C   UNL     1      -6.669   7.470   6.630  0.00  0.00    +0.051 A 
ATOM     11  C   UNL     1      -6.373   7.380   7.987  0.00  0.00    +0.025 A 
ATOM     12  C   UNL     1      -5.333   6.594   8.413  0.00  0.00    +0.010 A 
BRANCH  10  13
ATOM     13  N   UNL     1      -7.728   8.263   6.202  0.00  0.00    -0.207 N 
ATOM     14  C   UNL     1      -7.895   8.883   4.875  0.00  0.00    +0.133 C 
ATOM     15  C   UNL     1      -9.387   9.040   4.526  0.00  0.00    +0.045 C 
ATOM     16  C   UNL     1     -10.044   9.619   5.815  0.00  0.00    +0.190 C 
ATOM     17  S   UNL     1      -9.081   8.705   7.087  0.00  0.00    +0.046 S 
ATOM     18  O   UNL     1      -9.726   7.485   7.429  0.00  0.00    -0.155 OA
ATOM     19  O   UNL     1      -8.606   9.592   8.090  0.00  0.00    -0.155 OA
ENDBRANCH  10  13
ENDBRANCH   6   7
ENDBRANCH   2   5
BRANCH   1  20
ATOM     20  C   UNL     1       0.272   2.030   7.030  0.00  0.00    +0.139 C 
BRANCH  20  24
ATOM     21  C   UNL     1       2.146   0.211   3.650  0.00  0.00    -0.064 A 
ATOM     22  C   UNL     1       2.582   1.442   4.103  0.00  0.00    +0.002 A 
ATOM     23  C   UNL     1       1.975   2.031   5.197  0.00  0.00    +0.005 A 
ATOM     24  C   UNL     1       0.932   1.388   5.838  0.00  0.00    -0.030 A 
ATOM     25  C   UNL     1       0.496   0.158   5.384  0.00  0.00    +0.005 A 
ATOM     26  C   UNL     1       1.100  -0.429   4.288  0.00  0.00    +0.002 A 
BRANCH  21  27
ATOM     27  C   UNL     1       2.808  -0.431   2.458  0.00  0.00    -0.043 C 
BRANCH  27  33
ATOM     28  C   UNL     1      -0.019   1.526   0.010  0.00  0.00    +0.005 C 
ATOM     29  C   UNL     1       0.002  -0.004   0.002  0.00  0.00    -0.031 C 
ATOM     30  C   UNL     1       0.721  -0.499  -1.257  0.00  0.00    +0.003 C 
ATOM     31  C   UNL     1       2.177  -0.027  -1.220  0.00  0.00    -0.031 C 
ATOM     32  C   UNL     1       2.839  -0.534   0.063  0.00  0.00    -0.075 C 
ATOM     33  N   UNL     1       2.123  -0.005   1.230  0.00  0.00    +0.383 N 
ATOM     34  C   UNL     1       0.744  -0.512   1.240  0.00  0.00    -0.075 C 
ATOM     35  C   UNL     1       2.924  -0.581  -2.434  0.00  0.00    +0.005 C 
ATOM     36  H   UNL     1       2.109   1.003   1.187  0.00  0.00    -0.081 HD
ENDBRANCH  27  33
ENDBRANCH  21  27
ENDBRANCH  20  24
ENDBRANCH   1  20
TORSDOF 7
