REMARK  Name = ZINC14749277
REMARK  14 active torsions:
REMARK  status: ('A' for Active; 'I' for Inactive)
REMARK    1  A    between atoms: C_1  and  C_2
REMARK    2  A    between atoms: C_2  and  C_3
REMARK    3  A    between atoms: C_3  and  C_5
REMARK    4  A    between atoms: C_3  and  C_6
REMARK    5  A    between atoms: N_8  and  C_9
REMARK    6  A    between atoms: C_12  and  N_29
REMARK    7  A    between atoms: N_16  and  C_22
REMARK    8  A    between atoms: C_17  and  C_18
REMARK    9  A    between atoms: C_18  and  O_20
REMARK   10  A    between atoms: O_20  and  C_21
REMARK   11  A    between atoms: C_22  and  C_23
REMARK   12  A    between atoms: N_29  and  C_30
REMARK   13  A    between atoms: C_30  and  C_31
REMARK   14  A    between atoms: C_32  and  C_36
REMARK                            x       y       z     vdW  Elec       q    Type
REMARK                         _______ _______ _______ _____ _____    ______ ____
ROOT
ATOM      1  C   UNL     1      -1.109  -0.821   0.012  0.00  0.00    +0.075 A 
ATOM      2  C   UNL     1      -0.362  -1.345  -1.132  0.00  0.00    +0.043 A 
ATOM      3  C   UNL     1      -0.692  -1.596  -2.469  0.00  0.00    +0.038 A 
ATOM      4  C   UNL     1       0.294  -2.110  -3.298  0.00  0.00    +0.047 A 
ATOM      5  C   UNL     1       1.562  -2.356  -2.775  0.00  0.00    +0.136 A 
ATOM      6  N   UNL     1       1.845  -2.111  -1.514  0.00  0.00    -0.235 NA
ATOM      7  C   UNL     1       0.941  -1.619  -0.676  0.00  0.00    +0.143 A 
ATOM      8  N   UNL     1       0.999  -1.282   0.656  0.00  0.00    -0.316 N 
ATOM      9  C   UNL     1      -0.234  -0.806   1.079  0.00  0.00    +0.151 A 
ENDROOT
BRANCH   1  12
ATOM     10  C   UNL     1      -3.418  -1.320   0.229  0.00  0.00    +0.220 C 
ATOM     11  O   UNL     1      -3.135  -2.470   0.492  0.00  0.00    -0.275 OA
ATOM     12  N   UNL     1      -2.440  -0.416   0.022  0.00  0.00    -0.283 N 
ATOM     13  H   UNL     1      -2.665   0.517  -0.120  0.00  0.00    +0.155 HD
BRANCH  10  14
ATOM     14  C   UNL     1      -4.863  -0.903   0.133  0.00  0.00    +0.072 C 
ATOM     15  C   UNL     1      -5.146  -0.366  -1.272  0.00  0.00    +0.017 C 
BRANCH  14  17
ATOM     16  C   UNL     1      -7.224  -1.661   0.434  0.00  0.00    +0.004 C 
ATOM     17  C   UNL     1      -5.762  -2.110   0.409  0.00  0.00    +0.009 C 
ENDBRANCH  14  17
ENDBRANCH  10  14
ENDBRANCH   1  12
BRANCH   9  18
ATOM     18  C   UNL     1      -0.542  -0.369   2.392  0.00  0.00    +0.358 C 
ATOM     19  O   UNL     1      -1.659   0.041   2.650  0.00  0.00    -0.243 OA
BRANCH  18  20
ATOM     20  O   UNL     1       0.404  -0.402   3.353  0.00  0.00    -0.463 OA
ATOM     21  C   UNL     1       0.024   0.053   4.654  0.00  0.00    +0.280 C 
ENDBRANCH  18  20
ENDBRANCH   9  18
BRANCH   4  22
ATOM     22  N   UNL     1       0.019  -2.379  -4.644  0.00  0.00    -0.338 N 
ATOM     23  H   UNL     1      -0.866  -2.205  -5.002  0.00  0.00    +0.146 HD
BRANCH  22  24
ATOM     24  C   UNL     1       1.067  -2.922  -5.512  0.00  0.00    +0.144 C 
BRANCH  24  25
ATOM     25  C   UNL     1       0.516  -3.119  -6.901  0.00  0.00    +0.010 A 
ATOM     26  C   UNL     1       0.495  -2.250  -7.942  0.00  0.00    -0.039 A 
ATOM     27  C   UNL     1      -0.065  -2.653  -9.139  0.00  0.00    +0.011 A 
ATOM     28  C   UNL     1      -0.586  -3.901  -9.235  0.00  0.00    +0.046 A 
ATOM     29  S   UNL     1      -0.283  -4.553  -7.601  0.00  0.00    -0.100 S 
ATOM     30  C   UNL     1       1.077  -0.868  -7.796  0.00  0.00    +0.044 C 
ENDBRANCH  24  25
ENDBRANCH  22  24
ENDBRANCH   4  22
BRANCH   8  31
ATOM     31  C   UNL     1       2.186  -1.411   1.504  0.00  0.00    +0.155 C 
BRANCH  31  32
ATOM     32  C   UNL     1       2.201  -2.797   2.152  0.00  0.00    +0.138 C 
ATOM     33  C   UNL     1       3.495  -2.988   2.983  0.00  0.00    +0.035 C 
ATOM     34  C   UNL     1       3.032  -4.063   4.005  0.00  0.00    +0.031 C 
ATOM     35  C   UNL     1       1.550  -3.691   4.225  0.00  0.00    +0.160 C 
ATOM     36  O   UNL     1       1.126  -2.918   3.097  0.00  0.00    -0.375 OA
ENDBRANCH  31  32
ENDBRANCH   8  31
TORSDOF 10
