REMARK  Name = ZINC14653713
REMARK  12 active torsions:
REMARK  status: ('A' for Active; 'I' for Inactive)
REMARK    1  A    between atoms: C_1  and  C_2
REMARK    2  A    between atoms: C_2  and  C_3
REMARK    3  A    between atoms: C_2  and  C_4
REMARK    4  A    between atoms: C_4  and  O_5
REMARK    5  A    between atoms: O_5  and  C_6
REMARK    6  A    between atoms: C_9  and  C_13
REMARK    7  A    between atoms: N_15  and  C_16
REMARK    8  A    between atoms: C_16  and  N_18
REMARK    9  A    between atoms: N_18  and  C_19
REMARK   10  A    between atoms: C_21  and  N_27
REMARK   11  A    between atoms: C_24  and  O_25
REMARK   12  A    between atoms: O_25  and  C_26
REMARK                            x       y       z     vdW  Elec       q    Type
REMARK                         _______ _______ _______ _____ _____    ______ ____
ROOT
ATOM      1  C   UNL     1      -2.528   3.765   0.523  0.00  0.00    +0.250 C 
ATOM      2  O   UNL     1      -2.533   4.956   0.766  0.00  0.00    -0.270 OA
ATOM      3  N   UNL     1      -3.687   3.121   0.285  0.00  0.00    -0.264 N 
ATOM      4  H   UNL     1      -3.683   2.170   0.091  0.00  0.00    +0.157 HD
ENDROOT
BRANCH   1   8
ATOM      5  C   UNL     1       1.144   1.633   0.423  0.00  0.00    +0.134 A 
ATOM      6  C   UNL     1      -0.051   0.968   0.177  0.00  0.00    +0.047 A 
ATOM      7  C   UNL     1      -1.243   1.656   0.203  0.00  0.00    +0.017 A 
ATOM      8  C   UNL     1      -1.252   3.025   0.488  0.00  0.00    +0.038 A 
ATOM      9  C   UNL     1      -0.048   3.691   0.734  0.00  0.00    +0.032 A 
ATOM     10  C   UNL     1       1.141   2.996   0.701  0.00  0.00    +0.060 A 
ATOM     11 BR   UNL     1       2.770   3.895   1.034  0.00  0.00    -0.046 Br
BRANCH   5  12
ATOM     12  O   UNL     1       2.317   0.952   0.392  0.00  0.00    -0.491 OA
BRANCH  12  13
ATOM     13  C   UNL     1       2.248  -0.446   0.100  0.00  0.00    +0.232 C 
BRANCH  13  15
ATOM     14  C   UNL     1       3.575  -2.555  -0.081  0.00  0.00    +0.010 C 
ATOM     15  C   UNL     1       3.658  -1.039   0.108  0.00  0.00    +0.020 C 
ATOM     16  C   UNL     1       4.475  -0.427  -1.032  0.00  0.00    +0.010 C 
ENDBRANCH  13  15
ENDBRANCH  12  13
ENDBRANCH   5  12
ENDBRANCH   1   8
BRANCH   3  17
ATOM     17  C   UNL     1      -4.853   3.797   0.317  0.00  0.00    +0.141 C 
ATOM     18  S   UNL     1      -4.860   5.474   0.660  0.00  0.00    -0.018 S 
BRANCH  17  19
ATOM     19  N   UNL     1      -6.013   3.153   0.080  0.00  0.00    -0.294 N 
ATOM     20  H   UNL     1      -6.004   2.217  -0.176  0.00  0.00    +0.154 HD
BRANCH  19  21
ATOM     21  C   UNL     1      -7.230   3.834   0.202  0.00  0.00    +0.077 A 
ATOM     22  C   UNL     1      -7.389   5.084  -0.380  0.00  0.00    +0.059 A 
ATOM     23  C   UNL     1      -8.593   5.752  -0.262  0.00  0.00    +0.128 A 
ATOM     24  C   UNL     1      -9.638   5.183   0.443  0.00  0.00    +0.036 A 
ATOM     25  C   UNL     1      -9.485   3.941   1.030  0.00  0.00    +0.050 A 
ATOM     26  C   UNL     1      -8.283   3.262   0.912  0.00  0.00    +0.141 A 
BRANCH  23  27
ATOM     27  N   UNL     1      -8.763   7.083  -0.888  0.00  0.00    +0.056 N 
ATOM     28  O   UNL     1      -9.822   7.675  -0.781  0.00  0.00    -0.126 OA
ATOM     29  O   UNL     1      -7.844   7.585  -1.510  0.00  0.00    -0.126 OA
ENDBRANCH  23  27
BRANCH  26  30
ATOM     30  O   UNL     1      -8.131   2.040   1.489  0.00  0.00    -0.493 OA
ATOM     31  C   UNL     1      -9.253   1.515   2.202  0.00  0.00    +0.277 C 
ENDBRANCH  26  30
ENDBRANCH  19  21
ENDBRANCH  17  19
ENDBRANCH   3  17
TORSDOF 9
