REMARK  Name = ZINC03283325
REMARK  9 active torsions:
REMARK  status: ('A' for Active; 'I' for Inactive)
REMARK    1  A    between atoms: C_1  and  C_2
REMARK    2  A    between atoms: C_2  and  O_3
REMARK    3  A    between atoms: O_3  and  C_4
REMARK    4  A    between atoms: C_4  and  C_6
REMARK    5  A    between atoms: C_10  and  N_11
REMARK    6  A    between atoms: N_11  and  C_12
REMARK    7  A    between atoms: N_22  and  C_25
REMARK    8  A    between atoms: C_28  and  C_32
REMARK    9  A    between atoms: C_30  and  C_31
REMARK                            x       y       z     vdW  Elec       q    Type
REMARK                         _______ _______ _______ _____ _____    ______ ____
ROOT
ATOM      1  C   UNL     1       2.460   1.299  -0.015  0.00  0.00    +0.086 C 
ATOM      2  C   UNL     1       1.336   2.061   0.212  0.00  0.00    +0.059 C 
ATOM      3  C   UNL     1       1.418   3.534   0.290  0.00  0.00    +0.000 A 
ATOM      4  C   UNL     1       2.624   4.209   0.139  0.00  0.00    +0.009 A 
ATOM      5  C   UNL     1       2.649   5.586   0.220  0.00  0.00    +0.001 A 
ATOM      6  C   UNL     1       1.482   6.300   0.451  0.00  0.00    +0.001 A 
ATOM      7  C   UNL     1       0.277   5.649   0.603  0.00  0.00    +0.014 A 
ATOM      8  C   UNL     1       0.230   4.256   0.524  0.00  0.00    +0.046 A 
ATOM      9  C   UNL     1      -1.034   3.524   0.679  0.00  0.00    +0.258 C 
ATOM     10  O   UNL     1      -2.062   4.141   0.881  0.00  0.00    -0.269 OA
ATOM     11  N   UNL     1      -1.073   2.184   0.597  0.00  0.00    -0.202 N 
ATOM     12  C   UNL     1       0.020   1.434   0.382  0.00  0.00    +0.259 C 
ATOM     13  O   UNL     1      -0.083   0.222   0.323  0.00  0.00    -0.269 OA
ENDROOT
BRANCH  11  14
ATOM     14  C   UNL     1      -2.308   1.540   0.748  0.00  0.00    +0.047 A 
ATOM     15  C   UNL     1      -2.736   1.142   2.007  0.00  0.00    +0.024 A 
ATOM     16  C   UNL     1      -3.956   0.512   2.153  0.00  0.00    +0.005 A 
ATOM     17  C   UNL     1      -4.747   0.268   1.045  0.00  0.00    -0.050 A 
ATOM     18  C   UNL     1      -4.321   0.658  -0.211  0.00  0.00    +0.008 A 
ATOM     19  C   UNL     1      -3.104   1.293  -0.363  0.00  0.00    -0.028 A 
ATOM     20  C   UNL     1      -2.641   1.719  -1.732  0.00  0.00    +0.046 C 
ATOM     21  C   UNL     1      -6.075  -0.426   1.207  0.00  0.00    +0.044 C 
ENDBRANCH  11  14
BRANCH   1  22
ATOM     22  N   UNL     1       3.513   1.825  -0.698  0.00  0.00    -0.314 N 
ATOM     23  H   UNL     1       3.423   2.815  -1.169  0.00  0.00    +0.152 HD
BRANCH  22  28
ATOM     24  C   UNL     1       5.867   1.479  -1.454  0.00  0.00    +0.091 A 
ATOM     25  C   UNL     1       6.979   0.544  -1.406  0.00  0.00    -0.021 A 
ATOM     26  C   UNL     1       6.741  -0.600  -0.729  0.00  0.00    -0.004 A 
ATOM     27  S   UNL     1       5.074  -0.446  -0.152  0.00  0.00    -0.077 S 
ATOM     28  C   UNL     1       4.696   1.115  -0.801  0.00  0.00    +0.084 A 
ATOM     29  C   UNL     1       7.689  -1.740  -0.520  0.00  0.00    +0.043 C 
ATOM     30  C   UNL     1       8.856  -1.586  -1.507  0.00  0.00    +0.005 C 
ATOM     31  C   UNL     1       9.364  -0.142  -1.449  0.00  0.00    +0.005 C 
ATOM     32  C   UNL     1       8.329   0.799  -2.066  0.00  0.00    +0.037 C 
BRANCH  24  33
ATOM     33  C   UNL     1       5.979   2.757  -2.160  0.00  0.00    +0.342 C 
ATOM     34  O   UNL     1       6.375   3.744  -1.571  0.00  0.00    -0.245 OA
BRANCH  33  35
ATOM     35  O   UNL     1       5.641   2.839  -3.463  0.00  0.00    -0.461 OA
BRANCH  35  37
ATOM     36  C   UNL     1       5.350   4.035  -5.564  0.00  0.00    +0.048 C 
ATOM     37  C   UNL     1       5.776   4.138  -4.098  0.00  0.00    +0.229 C 
ENDBRANCH  35  37
ENDBRANCH  33  35
ENDBRANCH  24  33
ENDBRANCH  22  28
ENDBRANCH   1  22
TORSDOF 6
