REMARK  Name = ZINC08042801
REMARK  6 active torsions:
REMARK  status: ('A' for Active; 'I' for Inactive)
REMARK    1  A    between atoms: C_3  and  C_9
REMARK    2  A    between atoms: C_4  and  O_8
REMARK    3  A    between atoms: C_5  and  O_7
REMARK    4  A    between atoms: N_10  and  N_11
REMARK    5  A    between atoms: C_12  and  C_17
REMARK    6  A    between atoms: C_15  and  S_16
REMARK                            x       y       z     vdW  Elec       q    Type
REMARK                         _______ _______ _______ _____ _____    ______ ____
ROOT
ATOM      1  N   UNL     1       1.296   1.731  -0.001  0.00  0.00    -0.187 N 
ATOM      2  C   UNL     1      -0.016   1.310   0.009  0.00  0.00    +0.187 A 
ATOM      3  N   UNL     1       0.002  -0.004   0.002  0.00  0.00    -0.126 NA
ATOM      4  N   UNL     1       1.215  -0.428  -0.012  0.00  0.00    -0.121 NA
ATOM      5  C   UNL     1       2.049   0.589  -0.014  0.00  0.00    +0.209 A 
ENDROOT
BRANCH   2   6
ATOM      6  C   UNL     1      -1.216   2.172   0.020  0.00  0.00    +0.039 A 
ATOM      7  C   UNL     1      -1.080   3.561   0.032  0.00  0.00    +0.014 A 
ATOM      8  C   UNL     1      -2.204   4.361   0.036  0.00  0.00    +0.021 A 
ATOM      9  C   UNL     1      -3.465   3.789   0.040  0.00  0.00    +0.042 A 
ATOM     10  C   UNL     1      -3.607   2.412   0.034  0.00  0.00    +0.040 A 
ATOM     11  C   UNL     1      -2.490   1.600   0.024  0.00  0.00    +0.053 A 
ATOM     12 CL   UNL     1      -2.669  -0.127   0.016  0.00  0.00    -0.083 Cl
ATOM     13 CL   UNL     1      -4.874   4.803   0.053  0.00  0.00    -0.083 Cl
ENDBRANCH   2   6
BRANCH   1  15
ATOM     14  C   UNL     1       1.987   3.659   1.126  0.00  0.00    +0.145 C 
ATOM     15  N   UNL     1       1.761   3.053   0.001  0.00  0.00    -0.170 NA
BRANCH  14  18
ATOM     16  C   UNL     1       3.179   7.006   2.336  0.00  0.00    +0.004 A 
ATOM     17  C   UNL     1       2.721   5.706   2.338  0.00  0.00    +0.013 A 
ATOM     18  C   UNL     1       2.476   5.049   1.129  0.00  0.00    +0.040 A 
ATOM     19  C   UNL     1       2.704   5.717  -0.081  0.00  0.00    +0.167 A 
ATOM     20  C   UNL     1       3.161   7.029  -0.067  0.00  0.00    +0.159 A 
ATOM     21  C   UNL     1       3.399   7.668   1.140  0.00  0.00    +0.049 A 
BRANCH  20  22
ATOM     22  O   UNL     1       3.381   7.686  -1.238  0.00  0.00    -0.503 OA
ATOM     23  H   UNL     1       4.277   7.581  -1.585  0.00  0.00    +0.292 HD
ENDBRANCH  20  22
BRANCH  19  24
ATOM     24  O   UNL     1       2.474   5.087  -1.262  0.00  0.00    -0.503 OA
ATOM     25  H   UNL     1       1.575   5.198  -1.599  0.00  0.00    +0.292 HD
ENDBRANCH  19  24
ENDBRANCH  14  18
ENDBRANCH   1  15
BRANCH   5  26
ATOM     26  S   UNL     1       3.809   0.496  -0.032  0.00  0.00    -0.102 S 
ATOM     27  H   UNL     1       4.040   0.491  -1.423  0.00  0.00    +0.110 HD
ENDBRANCH   5  26
TORSDOF 6
