REMARK  Name = ZINC44737548
REMARK  11 active torsions:
REMARK  status: ('A' for Active; 'I' for Inactive)
REMARK    1  A    between atoms: C_1  and  C_2
REMARK    2  A    between atoms: C_9  and  C_11
REMARK    3  A    between atoms: C_11  and  C_13
REMARK    4  A    between atoms: C_11  and  N_14
REMARK    5  A    between atoms: C_15  and  C_17
REMARK    6  A    between atoms: C_28  and  C_30
REMARK    7  A    between atoms: C_30  and  C_32
REMARK    8  A    between atoms: C_30  and  O_35
REMARK    9  A    between atoms: C_32  and  C_33
REMARK   10  A    between atoms: C_32  and  C_34
REMARK   11  A    between atoms: O_35  and  C_36
REMARK                            x       y       z     vdW  Elec       q    Type
REMARK                         _______ _______ _______ _____ _____    ______ ____
ROOT
ATOM      1  C   UNL     1       1.713  -8.399  -0.222  0.00  0.00    +0.100 C 
ATOM      2  C   UNL     1       3.009  -7.711  -0.705  0.00  0.00    +0.121 C 
ATOM      3  N   UNL     1       4.065  -8.226   0.199  0.00  0.00    -0.297 N 
ATOM      4  C   UNL     1       3.724  -9.656   0.387  0.00  0.00    +0.115 C 
ATOM      5  C   UNL     1       2.186  -9.677   0.491  0.00  0.00    -0.004 C 
ATOM      6  C   UNL     1       1.626 -10.911  -0.210  0.00  0.00    -0.010 C 
ATOM      7  C   UNL     1       2.062 -12.166   0.551  0.00  0.00    -0.082 C 
ATOM      8  N   UNL     1       1.570 -12.099   1.932  0.00  0.00    +0.379 N 
ATOM      9  C   UNL     1       2.186 -10.962   2.627  0.00  0.00    -0.082 C 
ATOM     10  C   UNL     1       1.756  -9.655   1.954  0.00  0.00    -0.010 C 
ATOM     11  C   UNL     1       5.102  -7.547   0.729  0.00  0.00    +0.257 C 
ATOM     12  O   UNL     1       5.936  -8.131   1.387  0.00  0.00    -0.272 OA
ATOM     13  H   UNL     1       0.568 -11.984   1.926  0.00  0.00    -0.086 HD
ATOM     14  H   UNL     1       1.806 -12.953   2.414  0.00  0.00    -0.086 HD
ENDROOT
BRANCH   1  16
ATOM     15  N   UNL     1      -0.367  -7.380   0.646  0.00  0.00    -0.305 N 
ATOM     16  C   UNL     1       0.971  -7.506   0.739  0.00  0.00    +0.219 C 
ATOM     17  O   UNL     1       1.579  -6.900   1.596  0.00  0.00    -0.275 OA
ATOM     18  H   UNL     1      -0.854  -7.865  -0.039  0.00  0.00    +0.149 HD
BRANCH  15  19
ATOM     19  C   UNL     1      -1.088  -6.512   1.581  0.00  0.00    +0.136 C 
ATOM     20  C   UNL     1      -1.396  -7.288   2.863  0.00  0.00    +0.036 C 
BRANCH  19  29
ATOM     21  C   UNL     1      -7.351  -3.210  -0.710  0.00  0.00    +0.044 C 
ATOM     22  C   UNL     1      -6.214  -4.189  -0.570  0.00  0.00    -0.048 A 
ATOM     23  C   UNL     1      -6.179  -5.323  -1.368  0.00  0.00    +0.005 A 
ATOM     24  C   UNL     1      -5.157  -6.223  -1.256  0.00  0.00    +0.030 A 
ATOM     25  C   UNL     1      -4.134  -6.003  -0.330  0.00  0.00    +0.089 A 
ATOM     26  C   UNL     1      -4.169  -4.854   0.478  0.00  0.00    +0.067 A 
ATOM     27  C   UNL     1      -5.213  -3.948   0.347  0.00  0.00    +0.031 A 
ATOM     28  N   UNL     1      -3.044  -4.915   1.276  0.00  0.00    -0.340 N 
ATOM     29  C   UNL     1      -2.377  -6.054   0.949  0.00  0.00    +0.128 A 
ATOM     30  N   UNL     1      -3.014  -6.691   0.009  0.00  0.00    -0.231 NA
ATOM     31  H   UNL     1      -2.779  -4.266   1.947  0.00  0.00    +0.167 HD
ENDBRANCH  19  29
ENDBRANCH  15  19
ENDBRANCH   1  16
BRANCH  11  32
ATOM     32  C   UNL     1       5.224  -6.062   0.504  0.00  0.00    +0.261 C 
BRANCH  32  33
ATOM     33  C   UNL     1       5.106  -5.332   1.844  0.00  0.00    +0.033 C 
ATOM     34  C   UNL     1       5.301  -3.830   1.625  0.00  0.00    +0.011 C 
ATOM     35  C   UNL     1       3.721  -5.585   2.442  0.00  0.00    +0.011 C 
ENDBRANCH  32  33
BRANCH  32  36
ATOM     36  O   UNL     1       6.493  -5.772  -0.086  0.00  0.00    -0.479 OA
BRANCH  36  37
ATOM     37  C   UNL     1       6.528  -4.786  -1.020  0.00  0.00    +0.122 A 
ATOM     38  C   UNL     1       7.730  -4.439  -1.620  0.00  0.00    +0.045 A 
ATOM     39  C   UNL     1       7.763  -3.436  -2.569  0.00  0.00    +0.004 A 
ATOM     40  C   UNL     1       6.600  -2.779  -2.922  0.00  0.00    +0.000 A 
ATOM     41  C   UNL     1       5.400  -3.122  -2.326  0.00  0.00    +0.004 A 
ATOM     42  C   UNL     1       5.361  -4.128  -1.381  0.00  0.00    +0.045 A 
ENDBRANCH  36  37
ENDBRANCH  32  36
ENDBRANCH  11  32
TORSDOF 7
