REMARK  Name = ZINC10000678
REMARK  15 active torsions:
REMARK  status: ('A' for Active; 'I' for Inactive)
REMARK    1  A    between atoms: C_1  and  C_2
REMARK    2  A    between atoms: C_5  and  C_8
REMARK    3  A    between atoms: N_10  and  C_11
REMARK    4  A    between atoms: C_11  and  C_13
REMARK    5  A    between atoms: C_11  and  C_16
REMARK    6  A    between atoms: C_13  and  C_14
REMARK    7  A    between atoms: C_13  and  C_15
REMARK    8  A    between atoms: N_18  and  N_19
REMARK    9  A    between atoms: C_20  and  C_21
REMARK   10  A    between atoms: C_24  and  C_26
REMARK   11  A    between atoms: C_29  and  C_32
REMARK   12  A    between atoms: C_32  and  O_34
REMARK   13  A    between atoms: O_34  and  C_35
REMARK   14  A    between atoms: C_35  and  C_36
REMARK   15  A    between atoms: C_35  and  C_37
REMARK                            x       y       z     vdW  Elec       q    Type
REMARK                         _______ _______ _______ _____ _____    ______ ____
ROOT
ATOM      1  C   UNL     1      -2.247   1.561   0.907  0.00  0.00    +0.253 C 
ATOM      2  O   UNL     1      -1.079   1.888   0.917  0.00  0.00    -0.272 OA
ATOM      3  N   UNL     1      -2.587   0.281   0.661  0.00  0.00    -0.205 N 
ATOM      4  H   UNL     1      -1.903  -0.365   0.422  0.00  0.00    +0.177 HD
ENDROOT
BRANCH   3   5
ATOM      5  N   UNL     1      -3.927  -0.119   0.751  0.00  0.00    -0.185 NA
ATOM      6  C   UNL     1      -4.243  -1.374   0.612  0.00  0.00    +0.176 C 
BRANCH   6   7
ATOM      7  C   UNL     1      -3.190  -2.388   0.522  0.00  0.00    +0.148 A 
ATOM      8  C   UNL     1      -3.378  -3.727   0.255  0.00  0.00    +0.051 A 
ATOM      9  C   UNL     1      -2.111  -4.322   0.261  0.00  0.00    +0.050 A 
ATOM     10  C   UNL     1      -1.207  -3.338   0.536  0.00  0.00    +0.136 A 
ATOM     11  O   UNL     1      -1.870  -2.175   0.692  0.00  0.00    -0.454 OA
BRANCH  10  12
ATOM     12  C   UNL     1       0.251  -3.516   0.646  0.00  0.00    +0.017 A 
ATOM     13  C   UNL     1       0.827  -4.760   0.364  0.00  0.00    +0.012 A 
ATOM     14  C   UNL     1       2.179  -4.924   0.461  0.00  0.00    +0.015 A 
ATOM     15  C   UNL     1       2.988  -3.852   0.853  0.00  0.00    +0.059 A 
ATOM     16  C   UNL     1       2.411  -2.610   1.141  0.00  0.00    +0.015 A 
ATOM     17  C   UNL     1       1.060  -2.444   1.039  0.00  0.00    +0.012 A 
BRANCH  15  18
ATOM     18  C   UNL     1       4.447  -4.030   0.964  0.00  0.00    +0.339 C 
ATOM     19  O   UNL     1       5.149  -3.099   1.305  0.00  0.00    -0.245 OA
BRANCH  18  20
ATOM     20  O   UNL     1       5.002  -5.227   0.686  0.00  0.00    -0.458 OA
BRANCH  20  21
ATOM     21  C   UNL     1       6.444  -5.330   0.817  0.00  0.00    +0.171 C 
ATOM     22  C   UNL     1       6.820  -6.761   1.207  0.00  0.00    +0.052 C 
ATOM     23  C   UNL     1       7.104  -4.976  -0.518  0.00  0.00    +0.052 C 
ENDBRANCH  20  21
ENDBRANCH  18  20
ENDBRANCH  15  18
ENDBRANCH  10  12
ENDBRANCH   6   7
ENDBRANCH   3   5
BRANCH   1  24
ATOM     24  C   UNL     1      -3.319   2.588   1.169  0.00  0.00    +0.163 C 
BRANCH  24  27
ATOM     25  C   UNL     1      -3.685   4.895   0.474  0.00  0.00    +0.245 C 
ATOM     26  O   UNL     1      -4.880   4.672   0.467  0.00  0.00    -0.270 OA
ATOM     27  N   UNL     1      -2.819   3.918   0.812  0.00  0.00    -0.300 N 
ATOM     28  H   UNL     1      -1.866   4.096   0.817  0.00  0.00    +0.150 HD
BRANCH  25  33
ATOM     29  C   UNL     1      -1.722  10.119  -0.929  0.00  0.00    +0.044 C 
ATOM     30  C   UNL     1      -2.236   8.751  -0.561  0.00  0.00    -0.050 A 
ATOM     31  C   UNL     1      -3.597   8.501  -0.572  0.00  0.00    +0.004 A 
ATOM     32  C   UNL     1      -4.074   7.250  -0.236  0.00  0.00    +0.013 A 
ATOM     33  C   UNL     1      -3.180   6.237   0.113  0.00  0.00    +0.037 A 
ATOM     34  C   UNL     1      -1.809   6.497   0.126  0.00  0.00    +0.013 A 
ATOM     35  C   UNL     1      -1.345   7.750  -0.216  0.00  0.00    +0.004 A 
ENDBRANCH  25  33
ENDBRANCH  24  27
BRANCH  24  36
ATOM     36  C   UNL     1      -3.694   2.566   2.652  0.00  0.00    +0.012 C 
ATOM     37  C   UNL     1      -4.271   1.195   3.012  0.00  0.00    +0.009 C 
ATOM     38  C   UNL     1      -4.739   3.648   2.930  0.00  0.00    +0.009 C 
ENDBRANCH  24  36
ENDBRANCH   1  24
TORSDOF 10
