REMARK  Name = ZINC12877644
REMARK  8 active torsions:
REMARK  status: ('A' for Active; 'I' for Inactive)
REMARK    1  A    between atoms: C_1  and  C_2
REMARK    2  A    between atoms: C_2  and  C_3
REMARK    3  A    between atoms: C_2  and  C_4
REMARK    4  A    between atoms: C_4  and  C_6
REMARK    5  A    between atoms: C_4  and  N_12
REMARK    6  A    between atoms: N_12  and  C_13
REMARK    7  A    between atoms: C_13  and  C_14
REMARK    8  A    between atoms: C_27  and  C_29
REMARK                            x       y       z     vdW  Elec       q    Type
REMARK                         _______ _______ _______ _____ _____    ______ ____
ROOT
ATOM      1  C   UNL     1      -3.183   1.526  -2.533  0.00  0.00    +0.234 C 
ATOM      2  O   UNL     1      -3.123   0.768  -3.478  0.00  0.00    -0.274 OA
ATOM      3  N   UNL     1      -3.753   2.739  -2.676  0.00  0.00    -0.256 N 
ATOM      4  C   UNL     1      -3.823   3.627  -1.594  0.00  0.00    +0.058 A 
ATOM      5  C   UNL     1      -4.691   3.391  -0.541  0.00  0.00    +0.025 A 
ATOM      6  C   UNL     1      -4.763   4.291   0.507  0.00  0.00    +0.002 A 
ATOM      7  C   UNL     1      -3.973   5.426   0.506  0.00  0.00    +0.002 A 
ATOM      8  C   UNL     1      -3.098   5.665  -0.538  0.00  0.00    +0.025 A 
ATOM      9  C   UNL     1      -3.012   4.763  -1.585  0.00  0.00    +0.055 A 
ATOM     10  N   UNL     1      -2.094   4.955  -2.624  0.00  0.00    -0.284 N 
ATOM     11  C   UNL     1      -2.483   4.840  -3.912  0.00  0.00    +0.219 C 
ATOM     12  O   UNL     1      -1.661   4.925  -4.800  0.00  0.00    -0.275 OA
ATOM     13  C   UNL     1      -3.931   4.605  -4.253  0.00  0.00    +0.128 C 
ATOM     14  C   UNL     1      -4.306   3.155  -3.967  0.00  0.00    +0.194 C 
ATOM     15  H   UNL     1      -1.171   5.172  -2.417  0.00  0.00    +0.155 HD
ENDROOT
BRANCH  14  16
ATOM     16  C   UNL     1      -5.830   3.025  -3.933  0.00  0.00    +0.409 C 
ATOM     17  F   UNL     1      -6.344   3.841  -2.920  0.00  0.00    -0.169 F 
ATOM     18  F   UNL     1      -6.359   3.422  -5.165  0.00  0.00    -0.169 F 
ATOM     19  F   UNL     1      -6.179   1.694  -3.682  0.00  0.00    -0.169 F 
ENDBRANCH  14  16
BRANCH   1  20
ATOM     20  C   UNL     1      -2.618   1.113  -1.198  0.00  0.00    +0.178 C 
BRANCH  20  21
ATOM     21  N   UNL     1      -2.057  -0.241  -1.302  0.00  0.00    -0.301 NA
ATOM     22  H   UNL     1      -1.305  -0.270  -1.974  0.00  0.00    +0.123 HD
BRANCH  21  23
ATOM     23  C   UNL     1      -1.611  -0.728   0.010  0.00  0.00    +0.087 C 
BRANCH  23  24
ATOM     24  C   UNL     1      -1.665  -2.234   0.031  0.00  0.00    -0.030 A 
ATOM     25  C   UNL     1      -1.267  -2.956  -1.078  0.00  0.00    +0.005 A 
ATOM     26  C   UNL     1      -1.317  -4.337  -1.058  0.00  0.00    +0.000 A 
ATOM     27  C   UNL     1      -1.764  -4.997   0.071  0.00  0.00    +0.000 A 
ATOM     28  C   UNL     1      -2.160  -4.275   1.181  0.00  0.00    +0.000 A 
ATOM     29  C   UNL     1      -2.107  -2.894   1.163  0.00  0.00    +0.005 A 
ENDBRANCH  23  24
BRANCH  23  31
ATOM     30  C   UNL     1       0.246  -0.663   1.680  0.00  0.00    +0.009 C 
ATOM     31  C   UNL     1      -0.174  -0.266   0.264  0.00  0.00    +0.004 C 
ATOM     32  C   UNL     1       0.761  -0.927  -0.751  0.00  0.00    +0.009 C 
ENDBRANCH  23  31
ENDBRANCH  21  23
ENDBRANCH  20  21
ENDBRANCH   1  20
TORSDOF 6
