REMARK  Name = ZINC09563229
REMARK  10 active torsions:
REMARK  status: ('A' for Active; 'I' for Inactive)
REMARK    1  A    between atoms: C_1  and  C_2
REMARK    2  A    between atoms: C_5  and  S_8
REMARK    3  A    between atoms: S_8  and  N_11
REMARK    4  A    between atoms: N_11  and  C_12
REMARK    5  A    between atoms: C_16  and  C_18
REMARK    6  A    between atoms: C_18  and  N_20
REMARK    7  A    between atoms: N_22  and  C_30
REMARK    8  A    between atoms: C_30  and  C_31
REMARK    9  A    between atoms: C_31  and  S_32
REMARK   10  A    between atoms: S_32  and  C_33
REMARK                            x       y       z     vdW  Elec       q    Type
REMARK                         _______ _______ _______ _____ _____    ______ ____
ROOT
ATOM      1  C   UNL     1       0.606   0.019  -0.079  0.00  0.00    +0.049 A 
ATOM      2  C   UNL     1       1.868  -0.562  -0.132  0.00  0.00    +0.024 A 
ATOM      3  C   UNL     1       3.000   0.227  -0.063  0.00  0.00    +0.003 A 
ATOM      4  C   UNL     1       2.885   1.597   0.059  0.00  0.00    +0.013 A 
ATOM      5  C   UNL     1       1.623   2.190   0.112  0.00  0.00    +0.041 A 
ATOM      6  C   UNL     1       0.481   1.394   0.043  0.00  0.00    +0.037 A 
ENDROOT
BRANCH   1   7
ATOM      7  N   UNL     1      -0.536  -0.783  -0.150  0.00  0.00    -0.216 N 
ATOM      8  H   UNL     1      -1.268  -0.641   0.470  0.00  0.00    +0.174 HD
BRANCH   7   9
ATOM      9  S   UNL     1      -0.640  -1.977  -1.293  0.00  0.00    +0.072 S 
ATOM     10  O   UNL     1       0.535  -2.765  -1.165  0.00  0.00    -0.150 OA
ATOM     11  O   UNL     1      -1.944  -2.530  -1.185  0.00  0.00    -0.150 OA
BRANCH   9  16
ATOM     12  C   UNL     1      -0.343   0.697  -6.694  0.00  0.00    +0.044 C 
ATOM     13  C   UNL     1      -0.417   0.028  -5.346  0.00  0.00    -0.050 A 
ATOM     14  C   UNL     1       0.727  -0.485  -4.765  0.00  0.00    +0.005 A 
ATOM     15  C   UNL     1       0.659  -1.097  -3.527  0.00  0.00    +0.029 A 
ATOM     16  C   UNL     1      -0.553  -1.196  -2.871  0.00  0.00    +0.109 A 
ATOM     17  C   UNL     1      -1.699  -0.688  -3.454  0.00  0.00    +0.029 A 
ATOM     18  C   UNL     1      -1.630  -0.072  -4.690  0.00  0.00    +0.005 A 
ENDBRANCH   9  16
ENDBRANCH   7   9
ENDBRANCH   1   7
BRANCH   5  19
ATOM     19  C   UNL     1       1.498   3.660   0.242  0.00  0.00    +0.269 C 
ATOM     20  O   UNL     1       0.394   4.176   0.288  0.00  0.00    -0.268 OA
BRANCH  19  21
ATOM     21  N   UNL     1       2.594   4.421   0.309  0.00  0.00    -0.152 NA
ATOM     22  C   UNL     1       2.482   5.740   0.425  0.00  0.00    +0.167 A 
ATOM     23  N   UNL     1       3.474   6.667   0.513  0.00  0.00    -0.320 N 
ATOM     24  C   UNL     1       3.160   8.009   0.626  0.00  0.00    +0.058 A 
ATOM     25  C   UNL     1       4.035   9.102   0.723  0.00  0.00    +0.027 A 
ATOM     26  C   UNL     1       3.549  10.383   0.837  0.00  0.00    +0.002 A 
ATOM     27  C   UNL     1       2.187  10.635   0.860  0.00  0.00    +0.001 A 
ATOM     28  C   UNL     1       1.302   9.576   0.766  0.00  0.00    +0.017 A 
ATOM     29  C   UNL     1       1.787   8.294   0.652  0.00  0.00    +0.039 A 
ATOM     30  S   UNL     1       1.035   6.693   0.511  0.00  0.00    -0.052 S 
BRANCH  23  31
ATOM     31  C   UNL     1       4.876   6.244   0.482  0.00  0.00    +0.135 C 
BRANCH  31  32
ATOM     32  C   UNL     1       5.025   4.920   1.235  0.00  0.00    +0.090 C 
BRANCH  32  33
ATOM     33  S   UNL     1       6.783   4.486   1.352  0.00  0.00    -0.162 S 
ATOM     34  C   UNL     1       6.787   2.915   2.259  0.00  0.00    +0.084 C 
ENDBRANCH  32  33
ENDBRANCH  31  32
ENDBRANCH  23  31
ENDBRANCH  19  21
ENDBRANCH   5  19
TORSDOF 8
