REMARK  Name = ZINC39597890
REMARK  7 active torsions:
REMARK  status: ('A' for Active; 'I' for Inactive)
REMARK    1  A    between atoms: C_1  and  O_2
REMARK    2  A    between atoms: O_2  and  C_3
REMARK    3  A    between atoms: C_6  and  C_10
REMARK    4  A    between atoms: C_14  and  C_23
REMARK    5  A    between atoms: N_25  and  C_26
REMARK    6  A    between atoms: C_26  and  C_27
REMARK    7  A    between atoms: C_27  and  C_28
REMARK                            x       y       z     vdW  Elec       q    Type
REMARK                         _______ _______ _______ _____ _____    ______ ____
ROOT
ATOM      1  C   UNL     1       2.492  -2.490  -4.359  0.00  0.00    +0.247 C 
ATOM      2  O   UNL     1       1.827  -2.862  -5.307  0.00  0.00    -0.270 OA
ATOM      3  N   UNL     1       3.824  -2.692  -4.350  0.00  0.00    -0.296 N 
ATOM      4  C   UNL     1       4.775  -2.429  -3.244  0.00  0.00    +0.121 C 
ATOM      5  C   UNL     1       5.762  -3.617  -3.287  0.00  0.00    +0.100 C 
ATOM      6  C   UNL     1       5.690  -4.135  -4.734  0.00  0.00    -0.004 C 
ATOM      7  C   UNL     1       4.669  -3.233  -5.442  0.00  0.00    +0.115 C 
ATOM      8  C   UNL     1       5.209  -5.582  -4.753  0.00  0.00    -0.010 C 
ATOM      9  C   UNL     1       5.200  -6.093  -6.197  0.00  0.00    -0.082 C 
ATOM     10  N   UNL     1       6.552  -5.998  -6.760  0.00  0.00    +0.379 N 
ATOM     11  C   UNL     1       6.971  -4.593  -6.823  0.00  0.00    -0.082 C 
ATOM     12  C   UNL     1       7.055  -4.019  -5.405  0.00  0.00    -0.010 C 
ATOM     13  H   UNL     1       7.194  -6.513  -6.177  0.00  0.00    -0.086 HD
ATOM     14  H   UNL     1       6.557  -6.391  -7.689  0.00  0.00    -0.086 HD
ENDROOT
BRANCH   1  18
ATOM     15  C   UNL     1       0.614  -0.557  -1.076  0.00  0.00    +0.157 A 
ATOM     16  C   UNL     1      -0.120  -1.415  -1.887  0.00  0.00    +0.085 A 
ATOM     17  C   UNL     1       0.486  -2.044  -2.953  0.00  0.00    +0.036 A 
ATOM     18  C   UNL     1       1.839  -1.818  -3.218  0.00  0.00    +0.040 A 
ATOM     19  C   UNL     1       2.573  -0.955  -2.401  0.00  0.00    +0.036 A 
ATOM     20  C   UNL     1       1.959  -0.325  -1.340  0.00  0.00    +0.085 A 
ATOM     21 CL   UNL     1       2.868   0.753  -0.328  0.00  0.00    -0.080 Cl
ATOM     22 CL   UNL     1      -1.800  -1.696  -1.556  0.00  0.00    -0.080 Cl
BRANCH  15  24
ATOM     23  C   UNL     1      -0.589   1.332  -0.281  0.00  0.00    +0.277 C 
ATOM     24  O   UNL     1       0.014   0.062  -0.027  0.00  0.00    -0.492 OA
ENDBRANCH  15  24
ENDBRANCH   1  18
BRANCH   5  25
ATOM     25  C   UNL     1       7.158  -3.152  -2.963  0.00  0.00    +0.218 C 
ATOM     26  O   UNL     1       7.474  -1.997  -3.160  0.00  0.00    -0.275 OA
ATOM     27  N   UNL     1       8.057  -4.018  -2.454  0.00  0.00    -0.315 N 
ATOM     28  H   UNL     1       7.804  -4.941  -2.297  0.00  0.00    +0.149 HD
BRANCH  27  29
ATOM     29  C   UNL     1       9.414  -3.566  -2.139  0.00  0.00    +0.109 C 
BRANCH  29  30
ATOM     30  C   UNL     1      10.225  -4.736  -1.580  0.00  0.00    +0.056 C 
BRANCH  30  31
ATOM     31  C   UNL     1      11.621  -4.270  -1.256  0.00  0.00    -0.021 A 
ATOM     32  C   UNL     1      12.059  -3.627  -0.015  0.00  0.00    +0.003 A 
ATOM     33  C   UNL     1      11.415  -3.261   1.168  0.00  0.00    +0.010 A 
ATOM     34  C   UNL     1      12.124  -2.660   2.169  0.00  0.00    +0.001 A 
ATOM     35  C   UNL     1      13.481  -2.410   2.019  0.00  0.00    +0.002 A 
ATOM     36  C   UNL     1      14.137  -2.763   0.860  0.00  0.00    +0.026 A 
ATOM     37  C   UNL     1      13.434  -3.376  -0.172  0.00  0.00    +0.047 A 
ATOM     38  N   UNL     1      13.792  -3.837  -1.419  0.00  0.00    -0.360 N 
ATOM     39  C   UNL     1      12.700  -4.372  -2.047  0.00  0.00    +0.087 A 
ATOM     40  H   UNL     1      14.685  -3.793  -1.794  0.00  0.00    +0.165 HD
ENDBRANCH  30  31
ENDBRANCH  29  30
ENDBRANCH  27  29
ENDBRANCH   5  25
TORSDOF 6
