REMARK  Name = ZINC64890613
REMARK  10 active torsions:
REMARK  status: ('A' for Active; 'I' for Inactive)
REMARK    1  A    between atoms: C_1  and  C_2
REMARK    2  A    between atoms: C_2  and  N_3
REMARK    3  A    between atoms: C_7  and  C_16
REMARK    4  A    between atoms: C_18  and  C_22
REMARK    5  A    between atoms: C_22  and  C_24
REMARK    6  A    between atoms: C_22  and  N_27
REMARK    7  A    between atoms: C_24  and  C_25
REMARK    8  A    between atoms: C_24  and  C_26
REMARK    9  A    between atoms: N_27  and  S_28
REMARK   10  A    between atoms: S_28  and  C_31
REMARK                            x       y       z     vdW  Elec       q    Type
REMARK                         _______ _______ _______ _____ _____    ______ ____
ROOT
ATOM      1  C   UNL     1       6.196  -0.949   0.956  0.00  0.00    +0.134 C 
ATOM      2  N   UNL     1       6.727  -1.351  -0.158  0.00  0.00    -0.341 N 
ATOM      3  C   UNL     1       8.107  -1.774   0.105  0.00  0.00    +0.262 C 
ATOM      4  O   UNL     1       8.310  -1.566   1.511  0.00  0.00    -0.246 OA
ATOM      5  N   UNL     1       7.085  -1.043   1.998  0.00  0.00    -0.247 N 
ATOM      6  H   UNL     1       6.904  -0.794   2.918  0.00  0.00    +0.196 HD
ATOM      7  H   UNL     1       6.284  -1.369  -1.021  0.00  0.00    +0.164 HD
ENDROOT
BRANCH   1  12
ATOM      8  N   UNL     1       0.907   0.977   1.422  0.00  0.00    -0.303 N 
ATOM      9  C   UNL     1       2.208   0.499   1.319  0.00  0.00    +0.068 A 
ATOM     10  C   UNL     1       2.908   0.666   0.126  0.00  0.00    +0.028 A 
ATOM     11  C   UNL     1       4.196   0.198   0.008  0.00  0.00    +0.013 A 
ATOM     12  C   UNL     1       4.810  -0.446   1.086  0.00  0.00    +0.019 A 
ATOM     13  C   UNL     1       4.116  -0.615   2.281  0.00  0.00    +0.039 A 
ATOM     14  C   UNL     1       2.817  -0.143   2.401  0.00  0.00    +0.067 A 
ATOM     15  N   UNL     1       2.130  -0.316   3.600  0.00  0.00    -0.316 N 
ATOM     16  H   UNL     1       2.561  -0.764   4.345  0.00  0.00    +0.169 HD
ATOM     17  C   UNL     1       0.866   0.138   3.726  0.00  0.00    +0.314 A 
ATOM     18  O   UNL     1       0.263  -0.010   4.770  0.00  0.00    -0.262 OA
ATOM     19  C   UNL     1       0.220   0.828   2.573  0.00  0.00    +0.316 A 
ATOM     20  O   UNL     1      -0.915   1.249   2.668  0.00  0.00    -0.262 OA
BRANCH   8  22
ATOM     21  C   UNL     1       0.574   3.150   0.350  0.00  0.00    +0.027 C 
ATOM     22  C   UNL     1       0.283   1.649   0.280  0.00  0.00    +0.122 C 
ENDBRANCH   8  22
ENDBRANCH   1  12
BRANCH   3  23
ATOM     23  C   UNL     1       9.086  -0.921  -0.705  0.00  0.00    +0.131 C 
BRANCH  23  24
ATOM     24  C   UNL     1      10.507  -1.456  -0.515  0.00  0.00    +0.006 C 
ATOM     25  C   UNL     1      10.608  -2.859  -1.116  0.00  0.00    +0.009 C 
ATOM     26  C   UNL     1      11.499  -0.527  -1.217  0.00  0.00    +0.009 C 
ENDBRANCH  23  24
BRANCH  23  27
ATOM     27  N   UNL     1       8.727  -0.981  -2.124  0.00  0.00    -0.182 NA
ATOM     28  H   UNL     1       8.795  -1.820  -2.606  0.00  0.00    +0.148 HD
BRANCH  27  29
ATOM     29  S   UNL     1       8.206   0.383  -2.904  0.00  0.00    +0.059 S 
ATOM     30  O   UNL     1       7.947   0.007  -4.250  0.00  0.00    -0.153 OA
ATOM     31  O   UNL     1       7.214   0.973  -2.074  0.00  0.00    -0.153 OA
BRANCH  29  32
ATOM     32  C   UNL     1       9.560   1.509  -2.948  0.00  0.00    +0.105 A 
ATOM     33  C   UNL     1       9.731   2.424  -1.926  0.00  0.00    +0.028 A 
ATOM     34  C   UNL     1      10.794   3.307  -1.960  0.00  0.00    +0.002 A 
ATOM     35  C   UNL     1      11.687   3.275  -3.016  0.00  0.00    +0.000 A 
ATOM     36  C   UNL     1      11.516   2.358  -4.037  0.00  0.00    +0.002 A 
ATOM     37  C   UNL     1      10.456   1.473  -4.001  0.00  0.00    +0.028 A 
ENDBRANCH  29  32
ENDBRANCH  27  29
ENDBRANCH  23  27
ENDBRANCH   3  23
TORSDOF 7
