REMARK  Name = ZINC40689075
REMARK  7 active torsions:
REMARK  status: ('A' for Active; 'I' for Inactive)
REMARK    1  A    between atoms: C_1  and  C_2
REMARK    2  A    between atoms: C_2  and  C_3
REMARK    3  A    between atoms: C_3  and  O_41
REMARK    4  A    between atoms: C_15  and  C_39
REMARK    5  A    between atoms: C_19  and  C_31
REMARK    6  A    between atoms: C_31  and  N_32
REMARK    7  A    between atoms: C_35  and  C_38
REMARK                            x       y       z     vdW  Elec       q    Type
REMARK                         _______ _______ _______ _____ _____    ______ ____
ROOT
ATOM      1  C   UNL     1       1.612   0.189  -1.949  0.00  0.00    +0.162 C 
ATOM      2  C   UNL     1       1.560  -1.321  -1.736  0.00  0.00    +0.054 C 
ATOM      3  C   UNL     1       1.388  -2.058  -3.048  0.00  0.00    +0.032 C 
ATOM      4  C   UNL     1       1.837  -3.487  -2.934  0.00  0.00    +0.003 C 
ATOM      5  C   UNL     1       2.150  -4.158  -4.048  0.00  0.00    +0.058 C 
ATOM      6  C   UNL     1       2.551  -5.556  -4.197  0.00  0.00    +0.085 C 
ATOM      7  N   UNL     1       2.881  -6.463  -3.321  0.00  0.00    -0.273 NA
ATOM      8  C   UNL     1       3.386  -7.755  -3.794  0.00  0.00    +0.141 C 
ATOM      9  C   UNL     1       4.880  -7.674  -3.959  0.00  0.00    +0.020 C 
ATOM     10  C   UNL     1       5.517  -8.511  -4.771  0.00  0.00    +0.042 C 
ATOM     11  C   UNL     1       4.758  -9.533  -5.511  0.00  0.00    -0.036 C 
ATOM     12  C   UNL     1       3.447  -9.393  -5.668  0.00  0.00    -0.012 C 
ATOM     13  C   UNL     1       2.743  -8.199  -5.095  0.00  0.00    +0.065 C 
ATOM     14  C   UNL     1       2.678  -7.088  -6.114  0.00  0.00    -0.070 C 
ATOM     15  C   UNL     1       2.535  -5.862  -5.654  0.00  0.00    -0.005 C 
ATOM     16  C   UNL     1       2.327  -4.554  -6.355  0.00  0.00    +0.151 C 
ATOM     17  N   UNL     1       2.126  -3.545  -5.317  0.00  0.00    -0.265 N 
ATOM     18  C   UNL     1       1.980  -2.211  -5.468  0.00  0.00    +0.227 C 
ATOM     19  O   UNL     1       1.804  -1.722  -6.564  0.00  0.00    -0.275 OA
ATOM     20  C   UNL     1       2.054  -1.353  -4.227  0.00  0.00    +0.120 C 
ATOM     21  C   UNL     1       3.512  -1.015  -3.930  0.00  0.00    +0.245 C 
ATOM     22  O   UNL     1       3.597   0.308  -3.378  0.00  0.00    -0.462 OA
ATOM     23  C   UNL     1       3.073   0.546  -2.182  0.00  0.00    +0.339 C 
ATOM     24  O   UNL     1       3.752   1.010  -1.298  0.00  0.00    -0.248 OA
ATOM     25  C   UNL     1       5.465 -10.732  -6.088  0.00  0.00    +0.045 C 
ATOM     26 CL   UNL     1       7.239  -8.399  -4.961  0.00  0.00    -0.084 Cl
ENDROOT
BRANCH   1  28
ATOM     27  C   UNL     1       1.212   2.424  -0.904  0.00  0.00    +0.007 C 
ATOM     28  C   UNL     1       1.089   0.912  -0.705  0.00  0.00    +0.043 C 
ENDBRANCH   1  28
BRANCH   1  29
ATOM     29  O   UNL     1       0.832   0.552  -3.089  0.00  0.00    -0.377 OA
ATOM     30  H   UNL     1       0.843   1.498  -3.289  0.00  0.00    +0.211 HD
ENDBRANCH   1  29
BRANCH  14  31
ATOM     31  C   UNL     1       2.744  -7.374  -7.592  0.00  0.00    -0.046 C 
BRANCH  31  32
ATOM     32  N   UNL     1       1.423  -7.805  -8.067  0.00  0.00    +0.382 N 
ATOM     33  C   UNL     1       0.471  -6.695  -7.937  0.00  0.00    -0.078 C 
ATOM     34  C   UNL     1      -0.924  -7.163  -8.354  0.00  0.00    -0.016 C 
ATOM     35  C   UNL     1      -0.885  -7.635  -9.810  0.00  0.00    -0.018 C 
ATOM     36  C   UNL     1       0.164  -8.742  -9.948  0.00  0.00    -0.016 C 
ATOM     37  C   UNL     1       1.520  -8.216  -9.472  0.00  0.00    -0.078 C 
ATOM     38  C   UNL     1      -2.258  -8.178 -10.209  0.00  0.00    +0.007 C 
ATOM     39  H   UNL     1       1.105  -8.585  -7.511  0.00  0.00    -0.081 HD
ENDBRANCH  31  32
ENDBRANCH  14  31
TORSDOF 4
