REMARK  Name = ZINC11812892
REMARK  8 active torsions:
REMARK  status: ('A' for Active; 'I' for Inactive)
REMARK    1  A    between atoms: C_1  and  O_2
REMARK    2  A    between atoms: O_2  and  C_3
REMARK    3  A    between atoms: C_6  and  O_36
REMARK    4  A    between atoms: C_7  and  C_9
REMARK    5  A    between atoms: C_9  and  N_65
REMARK    6  A    between atoms: C_16  and  C_26
REMARK    7  A    between atoms: C_18  and  O_19
REMARK    8  A    between atoms: O_19  and  C_20
REMARK                            x       y       z     vdW  Elec       q    Type
REMARK                         _______ _______ _______ _____ _____    ______ ____
ROOT
ATOM      1  C   UNL     1       0.110   4.292   2.315  0.00  0.00    -0.036 C 
ATOM      2  C   UNL     1       0.616   4.328   3.741  0.00  0.00    +0.211 C 
ATOM      3  O   UNL     1       1.080   5.640   4.081  0.00  0.00    -0.490 OA
ATOM      4  C   UNL     1       2.369   5.910   3.736  0.00  0.00    +0.163 A 
ATOM      5  C   UNL     1       2.720   6.033   2.405  0.00  0.00    -0.018 A 
ATOM      6  C   UNL     1       4.028   6.264   2.040  0.00  0.00    +0.014 A 
ATOM      7  C   UNL     1       5.008   6.391   3.026  0.00  0.00    -0.013 A 
ATOM      8  C   UNL     1       4.656   6.285   4.371  0.00  0.00    +0.058 A 
ATOM      9  C   UNL     1       3.340   6.046   4.726  0.00  0.00    +0.163 A 
ATOM     10  C   UNL     1       1.642   5.916   1.343  0.00  0.00    -0.039 C 
ATOM     11  N   UNL     1       1.181   4.508   1.318  0.00  0.00    +0.387 N 
ATOM     12  H   UNL     1       1.973   3.898   1.548  0.00  0.00    -0.081 HD
ENDROOT
BRANCH   7  13
ATOM     13  C   UNL     1       6.419   6.636   2.644  0.00  0.00    -0.003 A 
ATOM     14  C   UNL     1       7.024   5.864   1.712  0.00  0.00    +0.055 A 
ATOM     15  S   UNL     1       8.668   6.544   1.612  0.00  0.00    -0.096 S 
ATOM     16  C   UNL     1       8.510   7.839   2.813  0.00  0.00    +0.020 A 
ATOM     17  C   UNL     1       7.179   7.721   3.264  0.00  0.00    -0.003 A 
ATOM     18  C   UNL     1       6.761   8.638   4.254  0.00  0.00    +0.009 A 
ATOM     19  C   UNL     1       7.612   9.588   4.726  0.00  0.00    +0.001 A 
ATOM     20  C   UNL     1       8.916   9.689   4.262  0.00  0.00    +0.001 A 
ATOM     21  C   UNL     1       9.364   8.806   3.300  0.00  0.00    +0.015 A 
ENDBRANCH   7  13
BRANCH  11  22
ATOM     22  C   UNL     1       0.689   4.164  -0.025  0.00  0.00    -0.039 C 
BRANCH  22  27
ATOM     23  C   UNL     1      -1.121   0.847  -0.114  0.00  0.00    +0.121 A 
ATOM     24  C   UNL     1      -0.061  -0.046  -0.165  0.00  0.00    +0.049 A 
ATOM     25  C   UNL     1       1.238   0.423  -0.169  0.00  0.00    +0.049 A 
ATOM     26  C   UNL     1       1.483   1.788  -0.124  0.00  0.00    +0.118 A 
ATOM     27  C   UNL     1       0.423   2.681  -0.074  0.00  0.00    -0.019 A 
ATOM     28  C   UNL     1      -0.876   2.212  -0.069  0.00  0.00    +0.051 A 
BRANCH  23  30
ATOM     29  C   UNL     1      -2.578  -1.032  -0.158  0.00  0.00    +0.277 C 
ATOM     30  O   UNL     1      -2.400   0.385  -0.110  0.00  0.00    -0.495 OA
ENDBRANCH  23  30
BRANCH  26  31
ATOM     31  O   UNL     1       2.761   2.250  -0.128  0.00  0.00    -0.507 OA
ATOM     32  H   UNL     1       3.117   2.416  -1.012  0.00  0.00    +0.292 HD
ENDBRANCH  26  31
ENDBRANCH  22  27
ENDBRANCH  11  22
BRANCH   9  33
ATOM     33  O   UNL     1       2.996   5.943   6.038  0.00  0.00    -0.483 OA
BRANCH  33  34
ATOM     34  C   UNL     1       4.019   6.209   7.000  0.00  0.00    +0.201 C 
ATOM     35  C   UNL     1       3.403   6.495   8.397  0.00  0.00    +0.075 C 
ATOM     36  C   UNL     1       4.554   6.035   9.326  0.00  0.00    +0.163 C 
ATOM     37  O   UNL     1       5.126   4.890   8.674  0.00  0.00    -0.376 OA
ATOM     38  C   UNL     1       4.864   4.945   7.267  0.00  0.00    +0.204 C 
ENDBRANCH  33  34
ENDBRANCH   9  33
TORSDOF 7
