REMARK  Name = ZINC64375497
REMARK  6 active torsions:
REMARK  status: ('A' for Active; 'I' for Inactive)
REMARK    1  A    between atoms: C_7  and  C_10
REMARK    2  A    between atoms: C_10  and  C_11
REMARK    3  A    between atoms: C_11  and  N_12
REMARK    4  A    between atoms: C_13  and  C_15
REMARK    5  A    between atoms: C_23  and  N_26
REMARK    6  A    between atoms: C_27  and  C_29
REMARK                            x       y       z     vdW  Elec       q    Type
REMARK                         _______ _______ _______ _____ _____    ______ ____
ROOT
ATOM      1  C   UNL     1      -1.694  -6.485  -2.622  0.00  0.00    +0.032 C 
ATOM      2  H   UNL     1      -1.508  -5.732  -5.301  0.00  0.00    +0.148 HD
ATOM      3  C   UNL     1      -2.215  -6.977  -1.310  0.00  0.00    +0.042 C 
ATOM      4  C   UNL     1      -3.219  -8.108  -1.449  0.00  0.00    +0.006 C 
ATOM      5  C   UNL     1      -2.874  -9.028  -2.618  0.00  0.00    +0.020 C 
ATOM      6  C   UNL     1      -2.989  -8.231  -3.921  0.00  0.00    +0.094 C 
ATOM      7  C   UNL     1      -2.029  -7.039  -3.803  0.00  0.00    +0.027 C 
ATOM      8  N   UNL     1      -1.553  -6.660  -5.024  0.00  0.00    -0.320 N 
ATOM      9  C   UNL     1      -1.110  -7.774  -5.893  0.00  0.00    +0.220 C 
ATOM     10  S   UNL     1      -2.142  -9.170  -5.263  0.00  0.00    -0.110 S 
ENDROOT
BRANCH   1  12
ATOM     11  N   UNL     1      -0.458  -4.798  -1.460  0.00  0.00    -0.311 N 
ATOM     12  C   UNL     1      -0.811  -5.380  -2.623  0.00  0.00    +0.242 C 
ATOM     13  O   UNL     1      -0.369  -4.955  -3.675  0.00  0.00    -0.270 OA
ATOM     14  H   UNL     1      -0.810  -5.136  -0.622  0.00  0.00    +0.149 HD
BRANCH  11  15
ATOM     15  C   UNL     1       0.457  -3.653  -1.462  0.00  0.00    +0.109 C 
BRANCH  15  16
ATOM     16  C   UNL     1       0.691  -3.186  -0.024  0.00  0.00    +0.052 C 
BRANCH  16  23
ATOM     17  C   UNL     1      -0.016   1.348   0.009  0.00  0.00    +0.001 A 
ATOM     18  C   UNL     1       1.166   2.101   0.002  0.00  0.00    +0.002 A 
ATOM     19  C   UNL     1       2.391   1.535  -0.013  0.00  0.00    +0.026 A 
ATOM     20  C   UNL     1       2.529   0.120  -0.022  0.00  0.00    +0.043 A 
ATOM     21  N   UNL     1       3.587  -0.654  -0.037  0.00  0.00    -0.380 N 
ATOM     22  C   UNL     1       3.143  -2.053  -0.041  0.00  0.00    +0.144 C 
ATOM     23  C   UNL     1       1.631  -2.008  -0.025  0.00  0.00    -0.040 C 
ATOM     24  C   UNL     1       1.295  -0.698  -0.014  0.00  0.00    -0.001 A 
ATOM     25  C   UNL     1       0.002  -0.004   0.002  0.00  0.00    +0.010 A 
ATOM     26  H   UNL     1       4.509  -0.353  -0.045  0.00  0.00    +0.160 HD
ENDBRANCH  16  23
ENDBRANCH  15  16
ENDBRANCH  11  15
ENDBRANCH   1  12
BRANCH   9  27
ATOM     27  N   UNL     1      -1.401  -7.490  -7.301  0.00  0.00    -0.284 N 
ATOM     28  C   UNL     1      -0.816  -8.221  -8.271  0.00  0.00    +0.246 C 
ATOM     29  O   UNL     1      -0.048  -9.117  -7.977  0.00  0.00    -0.270 OA
ATOM     30  H   UNL     1      -2.014  -6.776  -7.535  0.00  0.00    +0.152 HD
BRANCH  28  31
ATOM     31  C   UNL     1      -1.109  -7.935  -9.689  0.00  0.00    +0.040 A 
ATOM     32  C   UNL     1      -1.988  -6.903 -10.028  0.00  0.00    +0.017 A 
ATOM     33  C   UNL     1      -2.259  -6.636 -11.352  0.00  0.00    +0.050 A 
ATOM     34  C   UNL     1      -1.663  -7.391 -12.353  0.00  0.00    +0.166 A 
ATOM     35  C   UNL     1      -0.785  -8.424 -12.021  0.00  0.00    +0.167 A 
ATOM     36  C   UNL     1      -0.505  -8.692 -10.695  0.00  0.00    +0.062 A 
ATOM     37  O   UNL     1      -0.340  -9.005 -13.174  0.00  0.00    -0.453 OA
ATOM     38  C   UNL     1      -1.266  -8.588 -14.195  0.00  0.00    +0.466 C 
ATOM     39  O   UNL     1      -1.765  -7.327 -13.711  0.00  0.00    -0.453 OA
ENDBRANCH  28  31
ENDBRANCH   9  27
TORSDOF 6
