REMARK  Name = ZINC43090857
REMARK  5 active torsions:
REMARK  status: ('A' for Active; 'I' for Inactive)
REMARK    1  A    between atoms: C_1  and  C_2
REMARK    2  A    between atoms: C_2  and  C_4
REMARK    3  A    between atoms: C_2  and  N_23
REMARK    4  A    between atoms: C_4  and  C_6
REMARK    5  A    between atoms: C_4  and  N_13
REMARK                            x       y       z     vdW  Elec       q    Type
REMARK                         _______ _______ _______ _____ _____    ______ ____
ROOT
ATOM      1  C   UNL     1       0.848  -0.509   1.173  0.00  0.00    +0.074 C 
ENDROOT
BRANCH   1   2
ATOM      2  N   UNL     1       2.198   0.049   1.023  0.00  0.00    -0.292 NA
ATOM      3  C   UNL     1       2.797  -0.357  -0.259  0.00  0.00    +0.090 C 
ATOM      4  C   UNL     1       4.015   0.527  -0.527  0.00  0.00    +0.051 C 
ATOM      5  C   UNL     1       4.914   0.544   0.683  0.00  0.00    -0.042 A 
ATOM      6  C   UNL     1       6.221   0.982   0.529  0.00  0.00    +0.004 A 
ATOM      7  C   UNL     1       7.076   1.016   1.612  0.00  0.00    +0.000 A 
ATOM      8  C   UNL     1       6.628   0.614   2.857  0.00  0.00    +0.000 A 
ATOM      9  C   UNL     1       5.327   0.177   3.010  0.00  0.00    +0.005 A 
ATOM     10  C   UNL     1       4.467   0.139   1.922  0.00  0.00    -0.030 A 
ATOM     11  C   UNL     1       3.061  -0.357   2.137  0.00  0.00    +0.120 C 
ENDBRANCH   1   2
BRANCH   1  12
ATOM     12  C   UNL     1       0.259  -0.054   2.483  0.00  0.00    -0.018 A 
ATOM     13  C   UNL     1       0.577   1.194   2.988  0.00  0.00    +0.006 A 
ATOM     14  C   UNL     1       0.036   1.612   4.189  0.00  0.00    +0.000 A 
ATOM     15  C   UNL     1      -0.822   0.783   4.887  0.00  0.00    +0.001 A 
ATOM     16  C   UNL     1      -1.141  -0.464   4.384  0.00  0.00    +0.015 A 
ATOM     17  C   UNL     1      -0.604  -0.881   3.179  0.00  0.00    +0.022 A 
ATOM     18 BR   UNL     1      -1.045  -2.584   2.486  0.00  0.00    -0.050 Br
ENDBRANCH   1  12
BRANCH   1  20
ATOM     19  C   UNL     1      -0.036   1.505  -0.012  0.00  0.00    -0.012 C 
ATOM     20  C   UNL     1      -0.035  -0.025   0.021  0.00  0.00    -0.056 C 
BRANCH  20  21
ATOM     21  N   UNL     1      -1.408  -0.511   0.218  0.00  0.00    +0.381 N 
ATOM     22  H   UNL     1      -1.768  -0.155   1.091  0.00  0.00    -0.090 HD
ATOM     23  H   UNL     1      -1.990  -0.191  -0.541  0.00  0.00    -0.090 HD
ATOM     24  H   UNL     1      -1.407  -1.519   0.240  0.00  0.00    -0.090 HD
ENDBRANCH  20  21
ENDBRANCH   1  20
TORSDOF 4
