REMARK  Name = ZINC12052499
REMARK  9 active torsions:
REMARK  status: ('A' for Active; 'I' for Inactive)
REMARK    1  A    between atoms: C_1  and  C_2
REMARK    2  A    between atoms: C_2  and  C_3
REMARK    3  A    between atoms: C_3  and  C_4
REMARK    4  A    between atoms: C_4  and  C_19
REMARK    5  A    between atoms: N_7  and  C_11
REMARK    6  A    between atoms: C_11  and  C_12
REMARK    7  A    between atoms: C_12  and  C_13
REMARK    8  A    between atoms: C_18  and  N_68
REMARK    9  A    between atoms: C_25  and  C_27
REMARK                            x       y       z     vdW  Elec       q    Type
REMARK                         _______ _______ _______ _____ _____    ______ ____
ROOT
ATOM      1  C   UNL     1       2.670   0.434  -1.868  0.00  0.00    +0.115 C 
ATOM      2  C   UNL     1       1.837   1.232  -2.851  0.00  0.00    +0.247 C 
ATOM      3  O   UNL     1       2.100   1.470  -4.010  0.00  0.00    -0.273 OA
ATOM      4  N   UNL     1       0.743   1.623  -2.168  0.00  0.00    -0.224 N 
ATOM      5  C   UNL     1       0.766   1.182  -0.905  0.00  0.00    +0.309 C 
ATOM      6  O   UNL     1      -0.114   1.403  -0.096  0.00  0.00    -0.252 OA
ATOM      7  N   UNL     1       1.871   0.465  -0.631  0.00  0.00    -0.285 N 
ATOM      8  H   UNL     1       2.097   0.050   0.215  0.00  0.00    +0.151 HD
ENDROOT
BRANCH   1   9
ATOM      9  C   UNL     1       2.845  -1.004  -2.360  0.00  0.00    +0.024 C 
ATOM     10  C   UNL     1       3.768  -1.017  -3.581  0.00  0.00    +0.025 C 
ATOM     11  C   UNL     1       3.968  -2.461  -4.050  0.00  0.00    +0.108 C 
ATOM     12  N   UNL     1       2.651  -3.070  -4.282  0.00  0.00    -0.298 N 
ATOM     13  C   UNL     1       1.655  -3.032  -3.203  0.00  0.00    +0.108 C 
ATOM     14  C   UNL     1       1.480  -1.581  -2.744  0.00  0.00    +0.025 C 
ATOM     15  C   UNL     1       2.362  -3.653  -5.463  0.00  0.00    +0.247 C 
ATOM     16  O   UNL     1       3.157  -3.592  -6.381  0.00  0.00    -0.270 OA
BRANCH  15  17
ATOM     17  C   UNL     1       1.079  -4.366  -5.641  0.00  0.00    +0.042 A 
ATOM     18  C   UNL     1       0.527  -5.089  -4.584  0.00  0.00    +0.051 A 
ATOM     19  C   UNL     1      -0.674  -5.750  -4.755  0.00  0.00    +0.127 A 
ATOM     20  C   UNL     1      -1.325  -5.704  -5.977  0.00  0.00    +0.076 A 
ATOM     21  C   UNL     1      -0.779  -4.991  -7.032  0.00  0.00    +0.127 A 
ATOM     22  C   UNL     1       0.419  -4.322  -6.870  0.00  0.00    +0.051 A 
ATOM     23  F   UNL     1      -1.420  -4.950  -8.220  0.00  0.00    -0.205 F 
ATOM     24  F   UNL     1      -1.212  -6.448  -3.730  0.00  0.00    -0.205 F 
ENDBRANCH  15  17
ENDBRANCH   1   9
BRANCH   1  25
ATOM     25  C   UNL     1       4.031   1.098  -1.647  0.00  0.00    +0.035 C 
BRANCH  25  27
ATOM     26  C   UNL     1       5.186   3.172  -0.868  0.00  0.00    +0.004 C 
ATOM     27  C   UNL     1       3.826   2.508  -1.090  0.00  0.00    -0.001 C 
ENDBRANCH  25  27
ENDBRANCH   1  25
BRANCH   4  28
ATOM     28  C   UNL     1      -0.340   2.427  -2.739  0.00  0.00    +0.116 C 
BRANCH  28  29
ATOM     29  C   UNL     1      -0.038   3.913  -2.530  0.00  0.00    +0.004 C 
BRANCH  29  30
ATOM     30  C   UNL     1      -1.224   4.748  -3.017  0.00  0.00    -0.068 C 
ATOM     31  C   UNL     1      -2.465   4.454  -2.149  0.00  0.00    -0.017 C 
ATOM     32  C   UNL     1      -3.133   5.848  -2.011  0.00  0.00    -0.020 C 
ATOM     33  C   UNL     1      -1.898   6.780  -1.939  0.00  0.00    -0.079 C 
ATOM     34  C   UNL     1       0.455   6.384  -2.393  0.00  0.00    -0.096 C 
ATOM     35  N   UNL     1      -0.934   6.187  -2.884  0.00  0.00    +0.380 N 
ATOM     36  H   UNL     1      -1.033   6.640  -3.800  0.00  0.00    -0.082 HD
ENDBRANCH  29  30
ENDBRANCH  28  29
ENDBRANCH   4  28
TORSDOF 7
