REMARK  Name = ZINC39683960
REMARK  8 active torsions:
REMARK  status: ('A' for Active; 'I' for Inactive)
REMARK    1  A    between atoms: C_1  and  C_2
REMARK    2  A    between atoms: C_2  and  C_4
REMARK    3  A    between atoms: C_2  and  N_8
REMARK    4  A    between atoms: N_6  and  C_7
REMARK    5  A    between atoms: C_9  and  C_11
REMARK    6  A    between atoms: C_22  and  C_24
REMARK    7  A    between atoms: C_28  and  O_29
REMARK    8  A    between atoms: O_29  and  C_30
REMARK                            x       y       z     vdW  Elec       q    Type
REMARK                         _______ _______ _______ _____ _____    ______ ____
ROOT
ATOM      1  C   UNL     1      -3.478  -1.172  -1.123  0.00  0.00    +0.100 C 
ATOM      2  C   UNL     1      -4.374  -0.273  -0.242  0.00  0.00    +0.121 C 
ATOM      3  N   UNL     1      -4.991   0.684  -1.190  0.00  0.00    -0.296 N 
ATOM      4  C   UNL     1      -5.295  -0.130  -2.391  0.00  0.00    +0.115 C 
ATOM      5  C   UNL     1      -4.087  -1.078  -2.531  0.00  0.00    -0.004 C 
ATOM      6  C   UNL     1      -3.071  -0.494  -3.509  0.00  0.00    -0.010 C 
ATOM      7  C   UNL     1      -3.680  -0.464  -4.913  0.00  0.00    -0.082 C 
ATOM      8  N   UNL     1      -4.052  -1.825  -5.317  0.00  0.00    +0.379 N 
ATOM      9  C   UNL     1      -5.097  -2.344  -4.427  0.00  0.00    -0.082 C 
ATOM     10  C   UNL     1      -4.548  -2.454  -3.002  0.00  0.00    -0.010 C 
ATOM     11  C   UNL     1      -5.224   1.998  -1.002  0.00  0.00    +0.251 C 
ATOM     12  O   UNL     1      -4.827   2.548   0.008  0.00  0.00    -0.270 OA
ATOM     13  H   UNL     1      -4.397  -1.810  -6.266  0.00  0.00    -0.086 HD
ATOM     14  H   UNL     1      -3.241  -2.423  -5.266  0.00  0.00    -0.086 HD
ENDROOT
BRANCH  11  15
ATOM     15  C   UNL     1      -5.957   2.768  -2.018  0.00  0.00    +0.087 A 
ATOM     16  C   UNL     1      -6.979   2.205  -2.751  0.00  0.00    +0.063 A 
ATOM     17  S   UNL     1      -7.497   3.442  -3.759  0.00  0.00    -0.081 S 
ATOM     18  C   UNL     1      -6.390   4.741  -3.253  0.00  0.00    +0.120 A 
ATOM     19  C   UNL     1      -5.644   4.152  -2.291  0.00  0.00    +0.158 A 
ATOM     20 CL   UNL     1      -6.296   6.370  -3.845  0.00  0.00    -0.072 Cl
BRANCH  19  21
ATOM     21  O   UNL     1      -4.659   4.818  -1.627  0.00  0.00    -0.492 OA
ATOM     22  C   UNL     1      -3.348   4.771  -2.194  0.00  0.00    +0.277 C 
ENDBRANCH  19  21
ENDBRANCH  11  15
BRANCH   1  24
ATOM     23  N   UNL     1      -1.032  -1.515  -1.272  0.00  0.00    -0.304 N 
ATOM     24  C   UNL     1      -2.062  -0.656  -1.128  0.00  0.00    +0.219 C 
ATOM     25  O   UNL     1      -1.848   0.531  -1.002  0.00  0.00    -0.275 OA
ATOM     26  H   UNL     1      -1.203  -2.464  -1.373  0.00  0.00    +0.149 HD
BRANCH  23  28
ATOM     27  C   UNL     1       0.845  -0.884   0.163  0.00  0.00    +0.038 C 
ATOM     28  C   UNL     1       0.344  -1.013  -1.277  0.00  0.00    +0.156 C 
BRANCH  28  29
ATOM     29  C   UNL     1       1.226  -1.975  -2.032  0.00  0.00    +0.233 C 
ATOM     30  O   UNL     1       0.751  -2.979  -2.518  0.00  0.00    -0.274 OA
ATOM     31  N   UNL     1       2.542  -1.718  -2.167  0.00  0.00    -0.317 N 
ATOM     32  C   UNL     1       3.399  -2.652  -2.901  0.00  0.00    +0.128 C 
ATOM     33  H   UNL     1       2.922  -0.914  -1.778  0.00  0.00    +0.148 HD
ENDBRANCH  28  29
ENDBRANCH  23  28
ENDBRANCH   1  24
TORSDOF 5
