REMARK  Name = ZINC02039722
REMARK  3 active torsions:
REMARK  status: ('A' for Active; 'I' for Inactive)
REMARK    1  A    between atoms: C_4  and  C_7
REMARK    2  A    between atoms: C_7  and  C_15
REMARK    3  A    between atoms: N_10  and  N_14
REMARK                            x       y       z     vdW  Elec       q    Type
REMARK                         _______ _______ _______ _____ _____    ______ ____
ROOT
ATOM      1  C   UNL     1       3.711  -0.707  -0.038  0.00  0.00    +0.165 C 
ATOM      2  C   UNL     1       4.277  -0.758   1.368  0.00  0.00    +0.269 C 
ATOM      3  O   UNL     1       3.770  -1.270   2.343  0.00  0.00    -0.271 OA
ATOM      4  N   UNL     1       5.461  -0.117   1.307  0.00  0.00    -0.157 N 
ATOM      5  C   UNL     1       5.719   0.327   0.072  0.00  0.00    +0.324 C 
ATOM      6  O   UNL     1       6.727   0.934  -0.231  0.00  0.00    -0.251 OA
ATOM      7  N   UNL     1       4.739   0.025  -0.798  0.00  0.00    -0.276 N 
ATOM      8  H   UNL     1       4.713   0.246  -1.742  0.00  0.00    +0.152 HD
ENDROOT
BRANCH   1  12
ATOM      9  C   UNL     1       0.004   1.414  -0.091  0.00  0.00    +0.000 A 
ATOM     10  C   UNL     1       0.954   1.658  -1.065  0.00  0.00    +0.000 A 
ATOM     11  C   UNL     1       2.153   0.972  -1.048  0.00  0.00    +0.006 A 
ATOM     12  C   UNL     1       2.404   0.042  -0.056  0.00  0.00    -0.011 A 
ATOM     13  C   UNL     1       1.454  -0.201   0.919  0.00  0.00    +0.006 A 
ATOM     14  C   UNL     1       0.254   0.484   0.901  0.00  0.00    +0.000 A 
ENDBRANCH   1  12
BRANCH   1  15
ATOM     15  C   UNL     1       3.532  -2.097  -0.591  0.00  0.00    -0.011 A 
ATOM     16  C   UNL     1       4.301  -2.520  -1.659  0.00  0.00    +0.006 A 
ATOM     17  C   UNL     1       4.136  -3.796  -2.167  0.00  0.00    +0.000 A 
ATOM     18  C   UNL     1       3.204  -4.648  -1.607  0.00  0.00    +0.000 A 
ATOM     19  C   UNL     1       2.435  -4.225  -0.538  0.00  0.00    +0.000 A 
ATOM     20  C   UNL     1       2.603  -2.951  -0.027  0.00  0.00    +0.006 A 
ENDBRANCH   1  15
BRANCH   4  21
ATOM     21  N   UNL     1       6.294   0.058   2.375  0.00  0.00    -0.243 NA
ATOM     22  H   UNL     1       7.125   0.564   2.107  0.00  0.00    +0.141 HD
ATOM     23  H   UNL     1       5.817   0.522   3.134  0.00  0.00    +0.141 HD
ENDBRANCH   4  21
TORSDOF 3
