REMARK  Name = ZINC40423015
REMARK  8 active torsions:
REMARK  status: ('A' for Active; 'I' for Inactive)
REMARK    1  A    between atoms: C_1  and  C_2
REMARK    2  A    between atoms: C_2  and  O_3
REMARK    3  A    between atoms: O_3  and  C_4
REMARK    4  A    between atoms: C_6  and  O_33
REMARK    5  A    between atoms: C_14  and  N_32
REMARK    6  A    between atoms: C_15  and  N_20
REMARK    7  A    between atoms: N_18  and  C_19
REMARK    8  A    between atoms: O_33  and  C_34
REMARK                            x       y       z     vdW  Elec       q    Type
REMARK                         _______ _______ _______ _____ _____    ______ ____
ROOT
ATOM      1  C   UNL     1       0.976  -1.815  -1.256  0.00  0.00    +0.137 A 
ATOM      2  C   UNL     1       0.554  -2.676  -0.261  0.00  0.00    +0.092 A 
ATOM      3  C   UNL     1       0.683  -4.051  -0.426  0.00  0.00    +0.126 A 
ATOM      4  C   UNL     1       1.236  -4.576  -1.583  0.00  0.00    +0.072 A 
ATOM      5  C   UNL     1       1.667  -3.728  -2.595  0.00  0.00    +0.060 A 
ATOM      6  C   UNL     1       1.527  -2.336  -2.435  0.00  0.00    +0.088 A 
ATOM      7  C   UNL     1       1.967  -1.448  -3.521  0.00  0.00    +0.201 A 
ATOM      8  O   UNL     1       2.088  -0.247  -3.353  0.00  0.00    -0.286 OA
ATOM      9  C   UNL     1       2.257  -2.075  -4.823  0.00  0.00    +0.048 A 
ATOM     10  C   UNL     1       2.420  -1.297  -5.973  0.00  0.00    +0.038 A 
ATOM     11  C   UNL     1       2.686  -1.909  -7.180  0.00  0.00    +0.047 A 
ATOM     12  C   UNL     1       2.792  -3.305  -7.251  0.00  0.00    +0.053 A 
ATOM     13  C   UNL     1       2.633  -4.080  -6.115  0.00  0.00    +0.051 A 
ATOM     14  C   UNL     1       2.366  -3.476  -4.892  0.00  0.00    +0.055 A 
ATOM     15  N   UNL     1       2.223  -4.245  -3.748  0.00  0.00    -0.343 N 
ATOM     16  C   UNL     1       2.655  -5.645  -3.767  0.00  0.00    +0.149 C 
ENDROOT
BRANCH  12  17
ATOM     17  N   UNL     1       3.059  -3.917  -8.474  0.00  0.00    -0.325 N 
ATOM     18  C   UNL     1       4.443  -4.168  -8.898  0.00  0.00    +0.124 C 
ATOM     19  C   UNL     1       4.596  -5.661  -9.214  0.00  0.00    +0.125 C 
ATOM     20  N   UNL     1       3.498  -6.067 -10.103  0.00  0.00    -0.314 N 
ATOM     21  C   UNL     1       2.113  -5.816  -9.679  0.00  0.00    +0.125 C 
ATOM     22  C   UNL     1       1.961  -4.328  -9.360  0.00  0.00    +0.124 C 
ATOM     23  C   UNL     1       3.764  -6.678 -11.323  0.00  0.00    +0.099 A 
ATOM     24  C   UNL     1       5.070  -7.031 -11.646  0.00  0.00    +0.042 A 
ATOM     25  C   UNL     1       5.321  -7.638 -12.864  0.00  0.00    +0.005 A 
ATOM     26  C   UNL     1       4.253  -7.872 -13.720  0.00  0.00    +0.018 A 
ATOM     27  C   UNL     1       2.982  -7.495 -13.335  0.00  0.00    +0.084 A 
ATOM     28  N   UNL     1       2.772  -6.923 -12.164  0.00  0.00    -0.350 N 
ATOM     29  H   UNL     1       1.868  -6.672 -11.916  0.00  0.00    +0.166 HD
ENDBRANCH  12  17
BRANCH  11  30
ATOM     30  N   UNL     1       2.850  -1.135  -8.337  0.00  0.00    -0.357 N 
ATOM     31  H   UNL     1       2.776  -0.169  -8.288  0.00  0.00    +0.142 HD
ATOM     32  H   UNL     1       3.037  -1.565  -9.186  0.00  0.00    +0.142 HD
ENDBRANCH  11  30
BRANCH   3  33
ATOM     33  O   UNL     1       0.263  -4.888   0.556  0.00  0.00    -0.495 OA
ATOM     34  C   UNL     1      -0.298  -4.287   1.725  0.00  0.00    +0.277 C 
ENDBRANCH   3  33
BRANCH   1  35
ATOM     35  O   UNL     1       0.853  -0.473  -1.095  0.00  0.00    -0.491 OA
BRANCH  35  37
ATOM     36  C   UNL     1       0.226   1.512   0.132  0.00  0.00    +0.048 C 
ATOM     37  C   UNL     1       0.283  -0.017   0.134  0.00  0.00    +0.226 C 
ENDBRANCH  35  37
ENDBRANCH   1  35
TORSDOF 5
