REMARK  Name = ZINC06149431
REMARK  15 active torsions:
REMARK  status: ('A' for Active; 'I' for Inactive)
REMARK    1  A    between atoms: C_1  and  C_2
REMARK    2  A    between atoms: C_2  and  C_3
REMARK    3  A    between atoms: C_3  and  C_4
REMARK    4  A    between atoms: C_3  and  C_5
REMARK    5  A    between atoms: C_3  and  N_6
REMARK    6  A    between atoms: C_7  and  C_11
REMARK    7  A    between atoms: C_11  and  C_13
REMARK    8  A    between atoms: C_11  and  N_73
REMARK    9  A    between atoms: C_17  and  C_25
REMARK   10  A    between atoms: C_26  and  C_27
REMARK   11  A    between atoms: C_26  and  N_73
REMARK   12  A    between atoms: C_30  and  O_33
REMARK   13  A    between atoms: O_33  and  C_34
REMARK   14  A    between atoms: C_35  and  C_36
REMARK   15  A    between atoms: C_35  and  N_73
REMARK                            x       y       z     vdW  Elec       q    Type
REMARK                         _______ _______ _______ _____ _____    ______ ____
ROOT
ATOM      1  C   UNL     1      -2.976   1.880   0.358  0.00  0.00    +0.040 C 
ENDROOT
BRANCH   1   2
ATOM      2  C   UNL     1      -3.461   1.735  -1.061  0.00  0.00    +0.011 A 
ATOM      3  C   UNL     1      -2.616   1.980  -2.093  0.00  0.00    +0.017 A 
ATOM      4  C   UNL     1      -3.118   1.825  -3.459  0.00  0.00    -0.001 A 
ATOM      5  C   UNL     1      -2.291   2.058  -4.564  0.00  0.00    +0.013 A 
ATOM      6  C   UNL     1      -2.791   1.910  -5.827  0.00  0.00    -0.050 A 
ATOM      7  C   UNL     1      -4.111   1.529  -6.024  0.00  0.00    +0.005 A 
ATOM      8  C   UNL     1      -4.943   1.294  -4.951  0.00  0.00    +0.026 A 
ATOM      9  C   UNL     1      -4.457   1.439  -3.655  0.00  0.00    +0.049 A 
ATOM     10  N   UNL     1      -5.267   1.210  -2.563  0.00  0.00    -0.322 N 
ATOM     11  H   UNL     1      -6.218   0.935  -2.704  0.00  0.00    +0.169 HD
ATOM     12  C   UNL     1      -4.796   1.350  -1.312  0.00  0.00    +0.251 A 
ATOM     13  O   UNL     1      -5.540   1.139  -0.370  0.00  0.00    -0.268 OA
ATOM     14  C   UNL     1      -1.901   2.161  -7.016  0.00  0.00    +0.044 C 
ENDBRANCH   1   2
BRANCH   1  16
ATOM     15  N   UNL     1      -0.497   1.354   0.648  0.00  0.00    -0.225 N 
ATOM     16  C   UNL     1      -1.503   2.199   0.355  0.00  0.00    +0.143 A 
ATOM     17  N   UNL     1      -0.953   3.353   0.069  0.00  0.00    -0.115 NA
ATOM     18  N   UNL     1       0.325   3.222   0.173  0.00  0.00    -0.023 NA
ATOM     19  N   UNL     1       0.603   2.015   0.523  0.00  0.00    -0.043 NA
BRANCH  15  20
ATOM     20  C   UNL     1      -0.627  -0.054   1.032  0.00  0.00    +0.061 C 
ATOM     21  C   UNL     1      -1.350  -0.152   2.377  0.00  0.00    +0.036 C 
ATOM     22  C   UNL     1      -1.431  -0.801  -0.034  0.00  0.00    +0.036 C 
BRANCH  20  24
ATOM     23  C   UNL     1       0.628  -2.151   1.555  0.00  0.00    +0.006 C 
ATOM     24  C   UNL     1       0.763  -0.680   1.154  0.00  0.00    +0.026 C 
ENDBRANCH  20  24
ENDBRANCH  15  20
ENDBRANCH   1  16
BRANCH   1  25
ATOM     25  N   UNL     1      -3.739   2.959   1.019  0.00  0.00    +0.397 N 
ATOM     26  H   UNL     1      -4.731   2.699   1.045  0.00  0.00    -0.079 HD
BRANCH  25  27
ATOM     27  C   UNL     1      -3.255   3.145   2.404  0.00  0.00    -0.041 C 
BRANCH  27  28
ATOM     28  C   UNL     1      -4.256   3.982   3.158  0.00  0.00    -0.064 A 
ATOM     29  C   UNL     1      -4.099   5.354   3.224  0.00  0.00    +0.005 A 
ATOM     30  C   UNL     1      -5.018   6.123   3.910  0.00  0.00    +0.046 A 
ATOM     31  C   UNL     1      -6.093   5.517   4.543  0.00  0.00    +0.120 A 
ATOM     32  C   UNL     1      -6.245   4.139   4.481  0.00  0.00    +0.046 A 
ATOM     33  C   UNL     1      -5.327   3.375   3.788  0.00  0.00    +0.005 A 
BRANCH  31  34
ATOM     34  O   UNL     1      -6.996   6.271   5.224  0.00  0.00    -0.495 OA
ATOM     35  C   UNL     1      -6.840   7.690   5.154  0.00  0.00    +0.277 C 
ENDBRANCH  31  34
ENDBRANCH  27  28
ENDBRANCH  25  27
BRANCH  25  36
ATOM     36  C   UNL     1      -3.592   4.219   0.260  0.00  0.00    -0.001 C 
BRANCH  36  37
ATOM     37  C   UNL     1      -4.673   4.274  -0.790  0.00  0.00    +0.089 A 
ATOM     38  C   UNL     1      -5.940   4.680  -0.594  0.00  0.00    +0.042 A 
ATOM     39  C   UNL     1      -6.602   4.571  -1.838  0.00  0.00    +0.041 A 
ATOM     40  C   UNL     1      -5.700   4.105  -2.720  0.00  0.00    +0.195 A 
ATOM     41  O   UNL     1      -4.531   3.933  -2.081  0.00  0.00    -0.470 OA
ENDBRANCH  36  37
ENDBRANCH  25  36
ENDBRANCH   1  25
TORSDOF 10
