REMARK  Name = ZINC40490277
REMARK  3 active torsions:
REMARK  status: ('A' for Active; 'I' for Inactive)
REMARK    1  A    between atoms: C_1  and  C_2
REMARK    2  A    between atoms: C_9  and  N_14
REMARK    3  A    between atoms: N_14  and  C_15
REMARK                            x       y       z     vdW  Elec       q    Type
REMARK                         _______ _______ _______ _____ _____    ______ ____
ROOT
ATOM      1  C   UNL     1      -0.083   1.290   0.093  0.00  0.00    +0.062 C 
ATOM      2  C   UNL     1       0.002  -0.237   0.048  0.00  0.00    +0.256 C 
ATOM      3  C   UNL     1       0.715  -0.663  -1.210  0.00  0.00    +0.258 C 
ATOM      4  O   UNL     1       0.083  -0.893  -2.220  0.00  0.00    -0.271 OA
ATOM      5  N   UNL     1       2.060  -0.786  -1.208  0.00  0.00    -0.279 N 
ATOM      6  C   UNL     1       2.763  -0.548  -0.019  0.00  0.00    +0.077 A 
ATOM      7  C   UNL     1       4.133  -0.348  -0.036  0.00  0.00    +0.050 A 
ATOM      8  C   UNL     1       4.811  -0.115   1.153  0.00  0.00    +0.030 A 
ATOM      9  C   UNL     1       4.116  -0.082   2.355  0.00  0.00    +0.026 A 
ATOM     10  C   UNL     1       2.748  -0.281   2.372  0.00  0.00    +0.049 A 
ATOM     11  C   UNL     1       2.068  -0.513   1.189  0.00  0.00    +0.143 A 
ATOM     12  O   UNL     1       0.721  -0.708   1.190  0.00  0.00    -0.478 OA
ATOM     13  H   UNL     1       2.532  -1.036  -2.018  0.00  0.00    +0.155 HD
ENDROOT
BRANCH   8  14
ATOM     14  N   UNL     1       6.196   0.088   1.140  0.00  0.00    -0.333 N 
ATOM     15  H   UNL     1       6.681   0.065   0.301  0.00  0.00    +0.147 HD
BRANCH  14  16
ATOM     16  C   UNL     1       6.911   0.334   2.395  0.00  0.00    +0.157 C 
ATOM     17  C   UNL     1       8.293   0.917   2.092  0.00  0.00    +0.032 C 
ATOM     18  C   UNL     1       8.859   0.324   0.815  0.00  0.00    +0.004 C 
ATOM     19  C   UNL     1       9.180  -1.156   0.915  0.00  0.00    +0.019 C 
ATOM     20  C   UNL     1       7.902  -1.981   1.077  0.00  0.00    +0.104 C 
ATOM     21  N   UNL     1       7.562  -2.047   2.508  0.00  0.00    -0.314 N 
ATOM     22  C   UNL     1       7.089  -0.970   3.144  0.00  0.00    +0.233 C 
ATOM     23  O   UNL     1       6.806  -1.034   4.321  0.00  0.00    -0.274 OA
ATOM     24  H   UNL     1       7.680  -2.878   2.994  0.00  0.00    +0.149 HD
ENDBRANCH  14  16
ENDBRANCH   8  14
TORSDOF 2
