REMARK  Name = ZINC59437321
REMARK  10 active torsions:
REMARK  status: ('A' for Active; 'I' for Inactive)
REMARK    1  A    between atoms: C_1  and  C_2
REMARK    2  A    between atoms: C_2  and  O_3
REMARK    3  A    between atoms: O_3  and  C_4
REMARK    4  A    between atoms: C_4  and  C_6
REMARK    5  A    between atoms: C_7  and  C_34
REMARK    6  A    between atoms: C_14  and  N_15
REMARK    7  A    between atoms: N_15  and  C_16
REMARK    8  A    between atoms: C_21  and  O_22
REMARK    9  A    between atoms: O_22  and  C_23
REMARK   10  A    between atoms: C_25  and  C_27
REMARK                            x       y       z     vdW  Elec       q    Type
REMARK                         _______ _______ _______ _____ _____    ______ ____
ROOT
ATOM      1  C   UNL     1       1.658  -2.379   2.313  0.00  0.00    +0.085 C 
ATOM      2  C   UNL     1       1.507  -3.699   2.637  0.00  0.00    +0.053 C 
ATOM      3  N   UNL     1       1.954  -4.167   3.794  0.00  0.00    -0.228 NA
ATOM      4  C   UNL     1       2.561  -3.449   4.710  0.00  0.00    +0.178 A 
ATOM      5  N   UNL     1       2.811  -2.105   4.582  0.00  0.00    -0.275 N 
ATOM      6  C   UNL     1       3.439  -1.480   5.589  0.00  0.00    +0.269 A 
ATOM      7  O   UNL     1       3.693  -0.289   5.543  0.00  0.00    -0.266 OA
ATOM      8  C   UNL     1       3.793  -2.274   6.710  0.00  0.00    +0.094 A 
ATOM      9  C   UNL     1       4.425  -1.913   7.855  0.00  0.00    +0.092 C 
ATOM     10  S   UNL     1       3.183  -3.873   6.211  0.00  0.00    -0.045 S 
ATOM     11  C   UNL     1       2.353  -1.480   3.310  0.00  0.00    +0.162 C 
ATOM     12  C   UNL     1       0.825  -4.632   1.669  0.00  0.00    +0.066 C 
ENDROOT
BRANCH  11  13
ATOM     13  C   UNL     1       3.551  -0.870   2.629  0.00  0.00    -0.020 A 
ATOM     14  C   UNL     1       4.715  -1.603   2.493  0.00  0.00    +0.007 A 
ATOM     15  C   UNL     1       5.814  -1.044   1.868  0.00  0.00    +0.020 A 
ATOM     16  C   UNL     1       5.749   0.248   1.379  0.00  0.00    +0.041 A 
ATOM     17  C   UNL     1       4.583   0.981   1.516  0.00  0.00    +0.020 A 
ATOM     18  C   UNL     1       3.483   0.419   2.136  0.00  0.00    +0.007 A 
ATOM     19 CL   UNL     1       7.129   0.951   0.595  0.00  0.00    -0.084 Cl
ENDBRANCH  11  13
BRANCH   1  20
ATOM     20  C   UNL     1       1.188  -1.876   1.090  0.00  0.00    +0.339 C 
ATOM     21  O   UNL     1       0.748  -2.637   0.247  0.00  0.00    -0.245 OA
BRANCH  20  22
ATOM     22  O   UNL     1       1.222  -0.547   0.849  0.00  0.00    -0.462 OA
BRANCH  22  24
ATOM     23  C   UNL     1       0.846   1.418  -0.507  0.00  0.00    +0.048 C 
ATOM     24  C   UNL     1       0.727  -0.105  -0.417  0.00  0.00    +0.229 C 
ENDBRANCH  22  24
ENDBRANCH  20  22
ENDBRANCH   1  20
BRANCH   9  25
ATOM     25  N   UNL     1       4.814  -0.615   8.042  0.00  0.00    -0.317 N 
ATOM     26  H   UNL     1       4.638   0.048   7.355  0.00  0.00    +0.152 HD
BRANCH  25  27
ATOM     27  C   UNL     1       5.465  -0.242   9.222  0.00  0.00    +0.073 A 
ATOM     28  C   UNL     1       5.723  -1.189  10.203  0.00  0.00    +0.027 A 
ATOM     29  C   UNL     1       6.367  -0.819  11.369  0.00  0.00    +0.002 A 
ATOM     30  C   UNL     1       6.755   0.494  11.561  0.00  0.00    +0.004 A 
ATOM     31  C   UNL     1       6.502   1.444  10.588  0.00  0.00    +0.047 A 
ATOM     32  C   UNL     1       5.863   1.080   9.414  0.00  0.00    +0.141 A 
BRANCH  32  33
ATOM     33  O   UNL     1       5.618   2.011   8.454  0.00  0.00    -0.493 OA
ATOM     34  C   UNL     1       6.053   3.346   8.719  0.00  0.00    +0.277 C 
ENDBRANCH  32  33
ENDBRANCH  25  27
ENDBRANCH   9  25
TORSDOF 7
