REMARK  Name = ZINC27531180
REMARK  8 active torsions:
REMARK  status: ('A' for Active; 'I' for Inactive)
REMARK    1  A    between atoms: C_1  and  C_2
REMARK    2  A    between atoms: C_2  and  C_3
REMARK    3  A    between atoms: C_9  and  C_10
REMARK    4  A    between atoms: C_14  and  O_16
REMARK    5  A    between atoms: O_16  and  C_17
REMARK    6  A    between atoms: C_17  and  C_18
REMARK    7  A    between atoms: C_18  and  O_19
REMARK    8  A    between atoms: O_19  and  C_20
REMARK                            x       y       z     vdW  Elec       q    Type
REMARK                         _______ _______ _______ _____ _____    ______ ____
ROOT
ATOM      1  C   UNL     1       5.539  -0.812   6.458  0.00  0.00    -0.021 A 
ATOM      2  C   UNL     1       5.462  -2.211   6.478  0.00  0.00    +0.008 A 
ATOM      3  C   UNL     1       6.384  -2.940   7.198  0.00  0.00    +0.004 A 
ATOM      4  C   UNL     1       7.386  -2.296   7.901  0.00  0.00    +0.045 A 
ATOM      5  C   UNL     1       7.473  -0.909   7.888  0.00  0.00    +0.121 A 
ATOM      6  C   UNL     1       6.558  -0.164   7.166  0.00  0.00    +0.053 A 
ENDROOT
BRANCH   1  13
ATOM      7  C   UNL     1      -0.409  -1.336   2.782  0.00  0.00    +0.100 C 
ATOM      8  N   UNL     1       0.537  -0.500   3.102  0.00  0.00    -0.169 NA
ATOM      9  N   UNL     1       1.286  -0.673   4.247  0.00  0.00    -0.152 N 
ATOM     10  C   UNL     1       2.270   0.217   4.731  0.00  0.00    +0.152 C 
ATOM     11  N   UNL     1       2.311   1.483   4.413  0.00  0.00    -0.283 NA
ATOM     12  C   UNL     1       3.256  -0.432   5.642  0.00  0.00    +0.081 C 
ATOM     13  C   UNL     1       4.560  -0.030   5.693  0.00  0.00    +0.024 C 
ATOM     14  C   UNL     1       2.744  -1.538   6.490  0.00  0.00    +0.273 C 
ATOM     15  O   UNL     1       3.288  -1.824   7.545  0.00  0.00    -0.268 OA
ATOM     16  N   UNL     1       1.662  -2.216   6.062  0.00  0.00    -0.152 NA
ATOM     17  C   UNL     1       1.028  -1.802   4.994  0.00  0.00    +0.181 C 
ATOM     18  S   UNL     1      -0.343  -2.515   4.123  0.00  0.00    -0.038 S 
ATOM     19  H   UNL     1       1.644   1.855   3.815  0.00  0.00    +0.188 HD
BRANCH   7  21
ATOM     20  C   UNL     1      -0.999  -0.098   0.716  0.00  0.00    +0.011 C 
ATOM     21  C   UNL     1      -1.329  -1.310   1.589  0.00  0.00    +0.061 C 
ENDBRANCH   7  21
ENDBRANCH   1  13
BRANCH   5  22
ATOM     22  O   UNL     1       8.460  -0.285   8.582  0.00  0.00    -0.489 OA
BRANCH  22  23
ATOM     23  C   UNL     1       9.373  -1.116   9.302  0.00  0.00    +0.270 C 
BRANCH  23  24
ATOM     24  C   UNL     1      10.406  -0.240  10.015  0.00  0.00    +0.270 C 
BRANCH  24  25
ATOM     25  O   UNL     1       9.753   0.552  11.009  0.00  0.00    -0.489 OA
BRANCH  25  26
ATOM     26  C   UNL     1      10.534   1.392  11.739  0.00  0.00    +0.121 A 
ATOM     27  C   UNL     1      11.899   1.455  11.500  0.00  0.00    +0.047 A 
ATOM     28  C   UNL     1      12.690   2.309  12.244  0.00  0.00    +0.019 A 
ATOM     29  C   UNL     1      12.122   3.101  13.226  0.00  0.00    +0.018 A 
ATOM     30  C   UNL     1      10.761   3.039  13.466  0.00  0.00    +0.019 A 
ATOM     31  C   UNL     1       9.965   2.191  12.721  0.00  0.00    +0.047 A 
ATOM     32 BR   UNL     1      13.208   4.269  14.242  0.00  0.00    -0.050 Br
ENDBRANCH  25  26
ENDBRANCH  24  25
ENDBRANCH  23  24
ENDBRANCH  22  23
ENDBRANCH   5  22
TORSDOF 7
