REMARK  Name = ZINC02087848
REMARK  7 active torsions:
REMARK  status: ('A' for Active; 'I' for Inactive)
REMARK    1  A    between atoms: C_1  and  C_2
REMARK    2  A    between atoms: C_9  and  N_13
REMARK    3  A    between atoms: C_10  and  C_11
REMARK    4  A    between atoms: C_14  and  C_16
REMARK    5  A    between atoms: N_18  and  C_19
REMARK    6  A    between atoms: C_20  and  C_30
REMARK    7  A    between atoms: C_25  and  C_29
REMARK                            x       y       z     vdW  Elec       q    Type
REMARK                         _______ _______ _______ _____ _____    ______ ____
ROOT
ATOM      1  N   UNL     1       4.501   0.939  -4.547  0.00  0.00    -0.271 N 
ATOM      2  C   UNL     1       5.796   1.144  -4.233  0.00  0.00    +0.304 C 
ATOM      3  O   UNL     1       6.107   1.429  -3.095  0.00  0.00    -0.265 OA
ATOM      4  H   UNL     1       4.253   0.711  -5.456  0.00  0.00    +0.156 HD
ENDROOT
BRANCH   1  12
ATOM      5  C   UNL     1      -0.735   1.582   1.262  0.00  0.00    +0.008 C 
ATOM      6  C   UNL     1      -0.013   1.086   0.008  0.00  0.00    -0.009 C 
ATOM      7  C   UNL     1      -0.736   1.597  -1.242  0.00  0.00    +0.008 C 
ATOM      8  C   UNL     1      -0.175   0.906  -2.485  0.00  0.00    +0.037 C 
ATOM      9  C   UNL     1       1.343   1.062  -2.494  0.00  0.00    -0.018 A 
ATOM     10  C   UNL     1       2.010   1.382  -1.362  0.00  0.00    -0.004 A 
ATOM     11  S   UNL     1       3.713   1.455  -1.842  0.00  0.00    -0.077 S 
ATOM     12  C   UNL     1       3.526   1.053  -3.570  0.00  0.00    +0.090 A 
ATOM     13  C   UNL     1       2.151   0.883  -3.687  0.00  0.00    +0.084 A 
ATOM     14  C   UNL     1       1.427   1.621  -0.003  0.00  0.00    +0.046 C 
BRANCH  13  15
ATOM     15  C   UNL     1       1.552   0.543  -4.942  0.00  0.00    +0.102 C 
ATOM     16  N   UNL     1       1.077   0.273  -5.938  0.00  0.00    -0.191 NA
ENDBRANCH  13  15
ENDBRANCH   1  12
BRANCH   2  17
ATOM     17  C   UNL     1       6.846   1.021  -5.284  0.00  0.00    +0.304 C 
ATOM     18  O   UNL     1       6.535   0.736  -6.423  0.00  0.00    -0.265 OA
ATOM     19  N   UNL     1       8.141   1.226  -4.971  0.00  0.00    -0.271 N 
ATOM     20  H   UNL     1       8.389   1.454  -4.061  0.00  0.00    +0.156 HD
BRANCH  19  21
ATOM     21  C   UNL     1       9.116   1.112  -5.947  0.00  0.00    +0.090 A 
ATOM     22  C   UNL     1      10.491   1.281  -5.831  0.00  0.00    +0.084 A 
ATOM     23  C   UNL     1      11.300   1.101  -7.023  0.00  0.00    -0.018 A 
ATOM     24  C   UNL     1      10.633   0.779  -8.155  0.00  0.00    -0.004 A 
ATOM     25  S   UNL     1       8.930   0.701  -7.673  0.00  0.00    -0.077 S 
ATOM     26  C   UNL     1      11.216   0.537  -9.513  0.00  0.00    +0.046 C 
ATOM     27  C   UNL     1      12.732   0.344  -9.362  0.00  0.00    -0.009 C 
ATOM     28  C   UNL     1      13.284   1.462  -8.474  0.00  0.00    +0.008 C 
ATOM     29  C   UNL     1      12.818   1.259  -7.032  0.00  0.00    +0.037 C 
ATOM     30  C   UNL     1      13.399   0.404 -10.738  0.00  0.00    +0.008 C 
BRANCH  22  31
ATOM     31  C   UNL     1      11.090   1.623  -4.576  0.00  0.00    +0.102 C 
ATOM     32  N   UNL     1      11.565   1.894  -3.580  0.00  0.00    -0.191 NA
ENDBRANCH  22  31
ENDBRANCH  19  21
ENDBRANCH   2  17
TORSDOF 5
