REMARK  Name = ZINC32643718
REMARK  7 active torsions:
REMARK  status: ('A' for Active; 'I' for Inactive)
REMARK    1  A    between atoms: C_8  and  C_25
REMARK    2  A    between atoms: N_10  and  S_12
REMARK    3  A    between atoms: S_12  and  C_15
REMARK    4  A    between atoms: C_18  and  C_21
REMARK    5  A    between atoms: N_27  and  C_28
REMARK    6  A    between atoms: C_28  and  C_29
REMARK    7  A    between atoms: C_29  and  C_30
REMARK                            x       y       z     vdW  Elec       q    Type
REMARK                         _______ _______ _______ _____ _____    ______ ____
ROOT
ATOM      1  C   UNL     1      -0.308   1.185   0.963  0.00  0.00    +0.000 A 
ATOM      2  C   UNL     1       0.745   1.968   0.528  0.00  0.00    +0.000 A 
ATOM      3  C   UNL     1       1.904   1.369   0.082  0.00  0.00    +0.005 A 
ATOM      4  C   UNL     1       2.021  -0.014   0.063  0.00  0.00    -0.028 A 
ATOM      5  C   UNL     1       0.969  -0.796   0.486  0.00  0.00    -0.041 A 
ATOM      6  C   UNL     1      -0.195  -0.189   0.942  0.00  0.00    +0.004 A 
ATOM      7  C   UNL     1       1.010  -2.301   0.466  0.00  0.00    +0.065 C 
ATOM      8  C   UNL     1       2.452  -2.805   0.416  0.00  0.00    +0.170 C 
ATOM      9  N   UNL     1       3.161  -2.048  -0.628  0.00  0.00    -0.160 NA
ATOM     10  C   UNL     1       3.321  -0.605  -0.422  0.00  0.00    +0.145 C 
ENDROOT
BRANCH   8  11
ATOM     11  C   UNL     1       2.467  -4.275   0.081  0.00  0.00    +0.232 C 
ATOM     12  O   UNL     1       1.768  -4.699  -0.815  0.00  0.00    -0.274 OA
ATOM     13  N   UNL     1       3.256  -5.117   0.777  0.00  0.00    -0.314 N 
ATOM     14  H   UNL     1       3.814  -4.777   1.494  0.00  0.00    +0.149 HD
BRANCH  13  15
ATOM     15  C   UNL     1       3.270  -6.545   0.451  0.00  0.00    +0.110 C 
BRANCH  15  16
ATOM     16  C   UNL     1       4.242  -7.271   1.383  0.00  0.00    +0.073 C 
BRANCH  16  17
ATOM     17  C   UNL     1       4.257  -8.740   1.048  0.00  0.00    +0.035 A 
ATOM     18  C   UNL     1       3.399  -9.675   1.499  0.00  0.00    +0.105 A 
ATOM     19  N   UNL     1       3.754 -10.854   0.967  0.00  0.00    -0.352 N 
ATOM     20  C   UNL     1       4.799 -10.686   0.204  0.00  0.00    +0.171 A 
ATOM     21  N   UNL     1       5.142  -9.380   0.222  0.00  0.00    -0.350 N 
ATOM     22  H   UNL     1       5.878  -8.971  -0.259  0.00  0.00    +0.166 HD
ATOM     23  H   UNL     1       3.305 -11.699   1.125  0.00  0.00    +0.166 HD
ENDBRANCH  16  17
ENDBRANCH  15  16
ENDBRANCH  13  15
ENDBRANCH   8  11
BRANCH   9  24
ATOM     24  S   UNL     1       3.756  -2.796  -1.981  0.00  0.00    +0.062 S 
ATOM     25  O   UNL     1       4.892  -2.049  -2.391  0.00  0.00    -0.153 OA
ATOM     26  O   UNL     1       3.823  -4.184  -1.681  0.00  0.00    -0.153 OA
BRANCH  24  27
ATOM     27  C   UNL     1       2.547  -2.613  -3.250  0.00  0.00    +0.106 A 
ATOM     28  C   UNL     1       1.556  -3.565  -3.403  0.00  0.00    +0.029 A 
ATOM     29  C   UNL     1       0.608  -3.421  -4.399  0.00  0.00    +0.014 A 
ATOM     30  C   UNL     1       0.651  -2.326  -5.242  0.00  0.00    +0.055 A 
ATOM     31  C   UNL     1       1.642  -1.375  -5.088  0.00  0.00    +0.014 A 
ATOM     32  C   UNL     1       2.587  -1.516  -4.090  0.00  0.00    +0.029 A 
BRANCH  30  33
ATOM     33  C   UNL     1      -0.381  -2.171  -6.328  0.00  0.00    +0.417 C 
ATOM     34  F   UNL     1      -1.474  -1.452  -5.833  0.00  0.00    -0.166 F 
ATOM     35  F   UNL     1       0.179  -1.481  -7.409  0.00  0.00    -0.166 F 
ATOM     36  F   UNL     1      -0.807  -3.434  -6.752  0.00  0.00    -0.166 F 
ENDBRANCH  30  33
ENDBRANCH  24  27
ENDBRANCH   9  24
TORSDOF 7
