REMARK  Name = ZINC63712246
REMARK  4 active torsions:
REMARK  status: ('A' for Active; 'I' for Inactive)
REMARK    1  A    between atoms: C_13  and  C_14
REMARK    2  A    between atoms: N_21  and  C_22
REMARK    3  A    between atoms: C_22  and  C_23
REMARK    4  A    between atoms: C_23  and  C_24
REMARK                            x       y       z     vdW  Elec       q    Type
REMARK                         _______ _______ _______ _____ _____    ______ ____
ROOT
ATOM      1  C   UNL     1      -0.017   1.373   0.010  0.00  0.00    +0.001 A 
ATOM      2  C   UNL     1       1.170   2.093   0.002  0.00  0.00    +0.002 A 
ATOM      3  C   UNL     1       2.387   1.443  -0.013  0.00  0.00    +0.028 A 
ATOM      4  C   UNL     1       2.427   0.056  -0.021  0.00  0.00    +0.080 A 
ATOM      5  C   UNL     1       1.225  -0.675  -0.013  0.00  0.00    +0.040 A 
ATOM      6  C   UNL     1       0.002  -0.004   0.002  0.00  0.00    +0.013 A 
ATOM      7  C   UNL     1       1.301  -2.143  -0.022  0.00  0.00    +0.130 A 
ATOM      8  N   UNL     1       2.485  -2.720  -0.037  0.00  0.00    -0.210 NA
ATOM      9  C   UNL     1       3.622  -2.009  -0.044  0.00  0.00    +0.186 A 
ATOM     10  N   UNL     1       3.622  -0.640  -0.036  0.00  0.00    -0.193 N 
ATOM     11  N   UNL     1       4.963  -0.237  -0.047  0.00  0.00    -0.058 NA
ATOM     12  N   UNL     1       5.712  -1.283  -0.060  0.00  0.00    -0.127 NA
ATOM     13  C   UNL     1       4.965  -2.391  -0.060  0.00  0.00    +0.139 A 
ATOM     14  N   UNL     1       0.151  -2.904  -0.015  0.00  0.00    -0.328 N 
ATOM     15  H   UNL     1      -0.717  -2.471  -0.004  0.00  0.00    +0.147 HD
ENDROOT
BRANCH  13  16
ATOM     16  C   UNL     1       5.473  -3.782  -0.072  0.00  0.00    +0.007 A 
ATOM     17  C   UNL     1       4.788  -4.784   0.617  0.00  0.00    +0.010 A 
ATOM     18  C   UNL     1       5.266  -6.078   0.601  0.00  0.00    +0.002 A 
ATOM     19  C   UNL     1       6.422  -6.383  -0.095  0.00  0.00    +0.015 A 
ATOM     20  C   UNL     1       7.106  -5.394  -0.780  0.00  0.00    +0.019 A 
ATOM     21  C   UNL     1       6.634  -4.096  -0.777  0.00  0.00    +0.025 A 
ATOM     22 BR   UNL     1       8.685  -5.822  -1.728  0.00  0.00    -0.050 Br
ENDBRANCH  13  16
BRANCH  14  23
ATOM     23  C   UNL     1       0.240  -4.366  -0.025  0.00  0.00    +0.107 C 
BRANCH  23  24
ATOM     24  C   UNL     1      -1.169  -4.963  -0.014  0.00  0.00    +0.052 C 
BRANCH  24  25
ATOM     25  C   UNL     1      -1.078  -6.467  -0.023  0.00  0.00    -0.040 C 
ATOM     26  C   UNL     1      -1.117  -7.291   1.049  0.00  0.00    -0.001 A 
ATOM     27  C   UNL     1      -1.250  -7.043   2.489  0.00  0.00    +0.010 A 
ATOM     28  C   UNL     1      -1.257  -8.095   3.338  0.00  0.00    +0.001 A 
ATOM     29  C   UNL     1      -1.139  -9.414   2.879  0.00  0.00    +0.002 A 
ATOM     30  C   UNL     1      -1.013  -9.721   1.570  0.00  0.00    +0.026 A 
ATOM     31  C   UNL     1      -0.995  -8.693   0.589  0.00  0.00    +0.043 A 
ATOM     32  N   UNL     1      -0.885  -8.734  -0.717  0.00  0.00    -0.380 N 
ATOM     33  C   UNL     1      -0.930  -7.361  -1.234  0.00  0.00    +0.144 C 
ATOM     34  H   UNL     1      -0.792  -9.537  -1.252  0.00  0.00    +0.160 HD
ENDBRANCH  24  25
ENDBRANCH  23  24
ENDBRANCH  14  23
TORSDOF 4
