REMARK  Name = ZINC39571144
REMARK  7 active torsions:
REMARK  status: ('A' for Active; 'I' for Inactive)
REMARK    1  A    between atoms: C_1  and  C_2
REMARK    2  A    between atoms: C_4  and  C_17
REMARK    3  A    between atoms: C_6  and  C_16
REMARK    4  A    between atoms: N_8  and  C_10
REMARK    5  A    between atoms: N_18  and  N_19
REMARK    6  A    between atoms: C_20  and  C_22
REMARK    7  A    between atoms: C_25  and  C_28
REMARK                            x       y       z     vdW  Elec       q    Type
REMARK                         _______ _______ _______ _____ _____    ______ ____
ROOT
ATOM      1  C   UNL     1      -2.320   0.294   0.944  0.00  0.00    +0.110 C 
ATOM      2  N   UNL     1      -3.385   0.805   0.451  0.00  0.00    -0.192 NA
ENDROOT
BRANCH   1   5
ATOM      3  C   UNL     1      -0.019   1.526   0.010  0.00  0.00    +0.026 C 
ATOM      4  C   UNL     1       0.002  -0.004   0.002  0.00  0.00    +0.080 C 
ATOM      5  C   UNL     1      -1.438  -0.580   0.090  0.00  0.00    +0.072 C 
ATOM      6  C   UNL     1      -1.173  -1.943   0.774  0.00  0.00    +0.098 C 
ATOM      7  N   UNL     1       0.143  -1.809   1.419  0.00  0.00    -0.263 N 
ATOM      8  N   UNL     1       0.619  -0.534   1.245  0.00  0.00    -0.236 NA
ATOM      9  C   UNL     1      -2.252  -2.227   1.822  0.00  0.00    +0.030 C 
ATOM     10  H   UNL     1       0.392   0.048   2.038  0.00  0.00    +0.145 HD
BRANCH   7  11
ATOM     11  C   UNL     1       0.809  -2.827   2.104  0.00  0.00    +0.045 A 
ATOM     12  C   UNL     1       0.232  -4.086   2.213  0.00  0.00    +0.024 A 
ATOM     13  C   UNL     1       0.893  -5.091   2.891  0.00  0.00    +0.002 A 
ATOM     14  C   UNL     1       2.128  -4.845   3.462  0.00  0.00    +0.000 A 
ATOM     15  C   UNL     1       2.705  -3.593   3.357  0.00  0.00    +0.002 A 
ATOM     16  C   UNL     1       2.052  -2.585   2.675  0.00  0.00    +0.024 A 
ENDBRANCH   7  11
ENDBRANCH   1   5
BRANCH   2  17
ATOM     17  N   UNL     1      -4.205   1.618   1.245  0.00  0.00    -0.205 N 
ATOM     18  C   UNL     1      -5.326   2.155   0.725  0.00  0.00    +0.263 C 
ATOM     19  O   UNL     1      -5.625   1.935  -0.430  0.00  0.00    -0.271 OA
ATOM     20  H   UNL     1      -3.965   1.794   2.168  0.00  0.00    +0.177 HD
BRANCH  18  21
ATOM     21  C   UNL     1      -6.208   3.030   1.579  0.00  0.00    +0.240 C 
ATOM     22  C   UNL     1      -7.135   2.184   2.434  0.00  0.00    +0.041 C 
ATOM     23  C   UNL     1      -8.367   2.540   2.025  0.00  0.00    +0.092 C 
ATOM     24  N   UNL     1      -8.288   3.480   1.046  0.00  0.00    -0.153 NA
ATOM     25  N   UNL     1      -7.136   3.808   0.741  0.00  0.00    -0.170 NA
BRANCH  23  26
ATOM     26  C   UNL     1      -9.633   1.985   2.565  0.00  0.00    +0.002 A 
ATOM     27  C   UNL     1      -9.600   1.026   3.576  0.00  0.00    +0.011 A 
ATOM     28  C   UNL     1     -10.780   0.513   4.075  0.00  0.00    +0.016 A 
ATOM     29  C   UNL     1     -11.994   0.951   3.575  0.00  0.00    +0.018 A 
ATOM     30  C   UNL     1     -12.032   1.903   2.571  0.00  0.00    +0.016 A 
ATOM     31  C   UNL     1     -10.858   2.426   2.068  0.00  0.00    +0.011 A 
ATOM     32 BR   UNL     1     -13.606   0.243   4.264  0.00  0.00    -0.050 Br
ENDBRANCH  23  26
ENDBRANCH  18  21
ENDBRANCH   2  17
TORSDOF 5
