REMARK  Name = ZINC02255809
REMARK  13 active torsions:
REMARK  status: ('A' for Active; 'I' for Inactive)
REMARK    1  A    between atoms: C_1  and  C_2
REMARK    2  A    between atoms: N_8  and  C_9
REMARK    3  A    between atoms: C_9  and  C_10
REMARK    4  A    between atoms: C_10  and  C_11
REMARK    5  A    between atoms: C_14  and  O_19
REMARK    6  A    between atoms: C_15  and  O_17
REMARK    7  A    between atoms: O_17  and  C_18
REMARK    8  A    between atoms: O_19  and  C_20
REMARK    9  A    between atoms: C_21  and  C_31
REMARK   10  A    between atoms: C_23  and  C_27
REMARK   11  A    between atoms: C_24  and  N_26
REMARK   12  A    between atoms: C_27  and  O_29
REMARK   13  A    between atoms: O_29  and  C_30
REMARK                            x       y       z     vdW  Elec       q    Type
REMARK                         _______ _______ _______ _____ _____    ______ ____
ROOT
ATOM      1  C   UNL     1      -3.106   7.111  -0.679  0.00  0.00    +0.064 C 
ATOM      2  C   UNL     1      -4.364   6.321  -0.935  0.00  0.00    +0.022 A 
ATOM      3  C   UNL     1      -5.563   6.937  -0.862  0.00  0.00    +0.068 A 
ATOM      4  C   UNL     1      -6.743   6.203  -1.101  0.00  0.00    +0.141 A 
ATOM      5  C   UNL     1      -6.645   4.862  -1.405  0.00  0.00    +0.071 A 
ATOM      6  C   UNL     1      -5.379   4.267  -1.475  0.00  0.00    +0.259 A 
ATOM      7  O   UNL     1      -5.277   3.081  -1.748  0.00  0.00    -0.267 OA
ATOM      8  N   UNL     1      -4.275   4.999  -1.236  0.00  0.00    -0.312 N 
ATOM      9  C   UNL     1      -7.878   4.040  -1.667  0.00  0.00    +0.100 C 
ATOM     10  C   UNL     1      -9.097   4.761  -1.161  0.00  0.00    +0.105 C 
ATOM     11  C   UNL     1      -9.061   6.087  -0.875  0.00  0.00    +0.195 C 
ATOM     12  O   UNL     1      -7.944   6.817  -1.028  0.00  0.00    -0.441 OA
ENDROOT
BRANCH   9  13
ATOM     13  C   UNL     1      -8.015   3.804  -3.149  0.00  0.00    -0.035 A 
ATOM     14  C   UNL     1      -8.158   4.877  -4.009  0.00  0.00    +0.006 A 
ATOM     15  C   UNL     1      -8.279   4.662  -5.369  0.00  0.00    +0.020 A 
ATOM     16  C   UNL     1      -8.269   3.371  -5.868  0.00  0.00    +0.041 A 
ATOM     17  C   UNL     1      -8.132   2.298  -5.006  0.00  0.00    +0.020 A 
ATOM     18  C   UNL     1      -8.005   2.515  -3.647  0.00  0.00    +0.006 A 
ATOM     19 CL   UNL     1      -8.428   3.099  -7.575  0.00  0.00    -0.084 Cl
ENDBRANCH   9  13
BRANCH  11  20
ATOM     20  N   UNL     1     -10.197   6.700  -0.419  0.00  0.00    -0.329 N 
ATOM     21  H   UNL     1     -10.398   7.610  -0.685  0.00  0.00    +0.145 HD
ATOM     22  H   UNL     1     -10.802   6.223   0.171  0.00  0.00    +0.145 HD
ENDBRANCH  11  20
BRANCH  10  23
ATOM     23  C   UNL     1     -10.292   4.049  -0.981  0.00  0.00    +0.341 C 
ATOM     24  O   UNL     1     -11.314   4.641  -0.681  0.00  0.00    -0.245 OA
BRANCH  23  25
ATOM     25  O   UNL     1     -10.310   2.708  -1.140  0.00  0.00    -0.465 OA
ATOM     26  C   UNL     1     -11.562   2.048  -0.941  0.00  0.00    +0.280 C 
ENDBRANCH  23  25
ENDBRANCH  10  23
BRANCH   8  27
ATOM     27  C   UNL     1      -2.958   4.362  -1.307  0.00  0.00    +0.130 C 
BRANCH  27  28
ATOM     28  C   UNL     1      -2.580   3.816   0.071  0.00  0.00    +0.057 C 
BRANCH  28  29
ATOM     29  C   UNL     1      -1.225   3.161  -0.002  0.00  0.00    -0.042 A 
ATOM     30  C   UNL     1      -1.124   1.818  -0.314  0.00  0.00    +0.007 A 
ATOM     31  C   UNL     1       0.117   1.211  -0.378  0.00  0.00    +0.049 A 
ATOM     32  C   UNL     1       1.263   1.952  -0.140  0.00  0.00    +0.161 A 
ATOM     33  C   UNL     1       1.162   3.305   0.168  0.00  0.00    +0.162 A 
ATOM     34  C   UNL     1      -0.085   3.906   0.236  0.00  0.00    +0.053 A 
BRANCH  33  35
ATOM     35  O   UNL     1       2.284   4.037   0.403  0.00  0.00    -0.491 OA
ATOM     36  C   UNL     1       2.104   5.420   0.713  0.00  0.00    +0.277 C 
ENDBRANCH  33  35
BRANCH  32  37
ATOM     37  O   UNL     1       2.485   1.358  -0.208  0.00  0.00    -0.491 OA
ATOM     38  C   UNL     1       2.512  -0.034  -0.529  0.00  0.00    +0.277 C 
ENDBRANCH  32  37
ENDBRANCH  28  29
ENDBRANCH  27  28
ENDBRANCH   8  27
TORSDOF 9
