REMARK  Name = ZINC09282364
REMARK  16 active torsions:
REMARK  status: ('A' for Active; 'I' for Inactive)
REMARK    1  A    between atoms: C_1  and  C_2
REMARK    2  A    between atoms: C_2  and  C_3
REMARK    3  A    between atoms: C_2  and  C_4
REMARK    4  A    between atoms: C_2  and  C_5
REMARK    5  A    between atoms: C_8  and  C_11
REMARK    6  A    between atoms: C_13  and  C_24
REMARK    7  A    between atoms: C_14  and  O_23
REMARK    8  A    between atoms: N_17  and  C_18
REMARK    9  A    between atoms: C_18  and  C_19
REMARK   10  A    between atoms: C_19  and  C_20
REMARK   11  A    between atoms: C_20  and  N_70
REMARK   12  A    between atoms: C_21  and  N_70
REMARK   13  A    between atoms: C_22  and  N_70
REMARK   14  A    between atoms: C_24  and  C_26
REMARK   15  A    between atoms: C_32  and  O_35
REMARK   16  A    between atoms: O_35  and  C_36
REMARK                            x       y       z     vdW  Elec       q    Type
REMARK                         _______ _______ _______ _____ _____    ______ ____
ROOT
ATOM      1  C   UNL     1       3.214   4.031  -0.052  0.00  0.00    +0.145 C 
ATOM      2  C   UNL     1       3.514   2.551  -0.100  0.00  0.00    +0.074 C 
ATOM      3  C   UNL     1       4.859   2.428  -0.185  0.00  0.00    +0.188 C 
ATOM      4  C   UNL     1       5.470   3.773  -0.189  0.00  0.00    +0.282 C 
ATOM      5  O   UNL     1       6.663   3.997  -0.256  0.00  0.00    -0.267 OA
ATOM      6  N   UNL     1       4.512   4.713  -0.107  0.00  0.00    -0.284 N 
ENDROOT
BRANCH   1  10
ATOM      7  C   UNL     1       0.810   5.153  -3.400  0.00  0.00    -0.042 A 
ATOM      8  C   UNL     1       0.258   5.119  -2.133  0.00  0.00    +0.004 A 
ATOM      9  C   UNL     1       1.036   4.755  -1.049  0.00  0.00    +0.006 A 
ATOM     10  C   UNL     1       2.365   4.426  -1.233  0.00  0.00    -0.022 A 
ATOM     11  C   UNL     1       2.919   4.466  -2.499  0.00  0.00    +0.006 A 
ATOM     12  C   UNL     1       2.140   4.824  -3.583  0.00  0.00    +0.004 A 
BRANCH   7  14
ATOM     13  C   UNL     1      -0.573   6.968  -4.372  0.00  0.00    +0.015 C 
ATOM     14  C   UNL     1      -0.038   5.549  -4.581  0.00  0.00    -0.013 C 
ATOM     15  C   UNL     1       0.809   5.506  -5.854  0.00  0.00    +0.015 C 
ATOM     16  C   UNL     1      -1.212   4.577  -4.715  0.00  0.00    +0.015 C 
ENDBRANCH   7  14
ENDBRANCH   1  10
BRANCH   3  17
ATOM     17  O   UNL     1       5.537   1.259  -0.255  0.00  0.00    -0.502 OA
ATOM     18  H   UNL     1       6.518   1.445  -0.310  0.00  0.00    +0.292 HD
ENDBRANCH   3  17
BRANCH   2  19
ATOM     19  C   UNL     1       2.536   1.458  -0.068  0.00  0.00    +0.230 C 
ATOM     20  O   UNL     1       2.417   0.720  -1.030  0.00  0.00    -0.284 OA
BRANCH  19  21
ATOM     21  C   UNL     1       1.701   1.254   1.123  0.00  0.00    +0.176 A 
ATOM     22  C   UNL     1       0.689   0.350   1.225  0.00  0.00    +0.062 A 
ATOM     23  C   UNL     1       0.143   0.504   2.572  0.00  0.00    +0.025 A 
ATOM     24  C   UNL     1      -0.892  -0.115   3.281  0.00  0.00    +0.012 A 
ATOM     25  C   UNL     1      -1.159   0.267   4.564  0.00  0.00    +0.004 A 
ATOM     26  C   UNL     1      -0.411   1.266   5.173  0.00  0.00    +0.049 A 
ATOM     27  C   UNL     1       0.622   1.886   4.494  0.00  0.00    +0.163 A 
ATOM     28  C   UNL     1       0.909   1.514   3.181  0.00  0.00    +0.177 A 
ATOM     29  O   UNL     1       1.821   1.934   2.282  0.00  0.00    -0.448 OA
BRANCH  27  30
ATOM     30  O   UNL     1       1.346   2.864   5.101  0.00  0.00    -0.491 OA
ATOM     31  C   UNL     1       0.995   3.192   6.446  0.00  0.00    +0.277 C 
ENDBRANCH  27  30
ENDBRANCH  19  21
ENDBRANCH   2  19
BRANCH   6  32
ATOM     32  C   UNL     1       4.726   6.163  -0.085  0.00  0.00    +0.107 C 
BRANCH  32  33
ATOM     33  C   UNL     1       4.712   6.703  -1.516  0.00  0.00    +0.000 C 
BRANCH  33  34
ATOM     34  C   UNL     1       4.935   8.216  -1.492  0.00  0.00    -0.078 C 
BRANCH  34  37
ATOM     35  C   UNL     1       3.592   8.587  -3.473  0.00  0.00    -0.097 C 
ATOM     36  C   UNL     1       5.366  10.134  -2.905  0.00  0.00    -0.097 C 
ATOM     37  N   UNL     1       4.941   8.719  -2.882  0.00  0.00    +0.376 N 
ATOM     38  H   UNL     1       5.603   8.163  -3.436  0.00  0.00    -0.083 HD
ENDBRANCH  34  37
ENDBRANCH  33  34
ENDBRANCH  32  33
ENDBRANCH   6  32
TORSDOF 10
