REMARK  Name = ZINC39682557
REMARK  6 active torsions:
REMARK  status: ('A' for Active; 'I' for Inactive)
REMARK    1  A    between atoms: C_4  and  C_7
REMARK    2  A    between atoms: C_7  and  C_9
REMARK    3  A    between atoms: C_7  and  N_13
REMARK    4  A    between atoms: C_9  and  C_10
REMARK    5  A    between atoms: C_14  and  C_16
REMARK    6  A    between atoms: C_27  and  C_29
REMARK                            x       y       z     vdW  Elec       q    Type
REMARK                         _______ _______ _______ _____ _____    ______ ____
ROOT
ATOM      1  C   UNL     1       4.514  -2.164  -2.776  0.00  0.00    +0.100 C 
ATOM      2  C   UNL     1       4.048  -3.052  -1.600  0.00  0.00    +0.121 C 
ATOM      3  N   UNL     1       4.750  -4.341  -1.804  0.00  0.00    -0.296 N 
ATOM      4  C   UNL     1       6.105  -3.955  -2.266  0.00  0.00    +0.115 C 
ATOM      5  C   UNL     1       5.864  -2.759  -3.209  0.00  0.00    -0.004 C 
ATOM      6  C   UNL     1       6.974  -1.726  -3.045  0.00  0.00    -0.010 C 
ATOM      7  C   UNL     1       8.297  -2.321  -3.537  0.00  0.00    -0.082 C 
ATOM      8  N   UNL     1       8.167  -2.708  -4.947  0.00  0.00    +0.379 N 
ATOM      9  C   UNL     1       7.162  -3.769  -5.084  0.00  0.00    -0.082 C 
ATOM     10  C   UNL     1       5.791  -3.236  -4.657  0.00  0.00    -0.010 C 
ATOM     11  C   UNL     1       4.266  -5.584  -1.612  0.00  0.00    +0.248 C 
ATOM     12  O   UNL     1       5.000  -6.548  -1.730  0.00  0.00    -0.270 OA
ATOM     13  H   UNL     1       7.883  -1.906  -5.489  0.00  0.00    -0.086 HD
ATOM     14  H   UNL     1       9.056  -3.043  -5.285  0.00  0.00    -0.086 HD
ENDROOT
BRANCH  11  15
ATOM     15  C   UNL     1       2.853  -5.776  -1.261  0.00  0.00    +0.052 A 
ATOM     16  C   UNL     1       2.204  -4.891  -0.462  0.00  0.00    +0.059 A 
ATOM     17  S   UNL     1       0.640  -5.481  -0.321  0.00  0.00    -0.096 S 
ATOM     18  C   UNL     1       0.764  -6.940  -1.319  0.00  0.00    +0.020 A 
ATOM     19  C   UNL     1       2.099  -6.926  -1.767  0.00  0.00    +0.001 A 
ATOM     20  C   UNL     1       2.510  -7.980  -2.604  0.00  0.00    +0.010 A 
ATOM     21  C   UNL     1       1.626  -8.969  -2.960  0.00  0.00    +0.001 A 
ATOM     22  C   UNL     1       0.315  -8.957  -2.509  0.00  0.00    +0.001 A 
ATOM     23  C   UNL     1      -0.113  -7.940  -1.678  0.00  0.00    +0.015 A 
ENDBRANCH  11  15
BRANCH   1  25
ATOM     24  N   UNL     1       4.525   0.274  -3.193  0.00  0.00    -0.308 N 
ATOM     25  C   UNL     1       4.691  -0.739  -2.319  0.00  0.00    +0.219 C 
ATOM     26  O   UNL     1       4.983  -0.504  -1.166  0.00  0.00    -0.275 OA
ATOM     27  H   UNL     1       4.365   0.084  -4.130  0.00  0.00    +0.149 HD
BRANCH  24  28
ATOM     28  C   UNL     1       4.587   1.661  -2.726  0.00  0.00    +0.114 C 
BRANCH  28  32
ATOM     29  C   UNL     1       5.694   4.207  -5.973  0.00  0.00    +0.000 A 
ATOM     30  C   UNL     1       6.214   4.429  -4.712  0.00  0.00    +0.000 A 
ATOM     31  C   UNL     1       5.856   3.606  -3.661  0.00  0.00    +0.005 A 
ATOM     32  C   UNL     1       4.977   2.560  -3.871  0.00  0.00    -0.027 A 
ATOM     33  C   UNL     1       4.456   2.337  -5.132  0.00  0.00    +0.005 A 
ATOM     34  C   UNL     1       4.816   3.160  -6.184  0.00  0.00    +0.000 A 
ENDBRANCH  28  32
BRANCH  28  35
ATOM     35  C   UNL     1       3.216   2.081  -2.192  0.00  0.00    +0.152 C 
BRANCH  35  36
ATOM     36  C   UNL     1       3.320   3.446  -1.560  0.00  0.00    +0.358 C 
ATOM     37  O   UNL     1       4.411   3.973  -1.424  0.00  0.00    -0.246 OA
ATOM     38  O   UNL     1       2.313   4.022  -1.186  0.00  0.00    -0.246 OA
ENDBRANCH  35  36
ENDBRANCH  28  35
ENDBRANCH  24  28
ENDBRANCH   1  25
TORSDOF 6
