REMARK  Name = ZINC01245171
REMARK  8 active torsions:
REMARK  status: ('A' for Active; 'I' for Inactive)
REMARK    1  A    between atoms: C_1  and  N_2
REMARK    2  A    between atoms: N_2  and  C_3
REMARK    3  A    between atoms: N_2  and  C_4
REMARK    4  A    between atoms: C_7  and  C_10
REMARK    5  A    between atoms: C_15  and  C_32
REMARK    6  A    between atoms: C_25  and  C_27
REMARK    7  A    between atoms: C_27  and  C_28
REMARK    8  A    between atoms: C_28  and  C_29
REMARK                            x       y       z     vdW  Elec       q    Type
REMARK                         _______ _______ _______ _____ _____    ______ ____
ROOT
ATOM      1  C   UNL     1       1.903  -2.447  -2.975  0.00  0.00    +0.032 C 
ATOM      2  C   UNL     1       1.637  -1.012  -3.423  0.00  0.00    +0.059 C 
ATOM      3  C   UNL     1       1.194  -0.169  -2.238  0.00  0.00    +0.017 C 
ATOM      4  C   UNL     1       0.500  -0.722  -1.230  0.00  0.00    +0.037 C 
ATOM      5  C   UNL     1       0.002  -0.004   0.002  0.00  0.00    +0.147 C 
ATOM      6  N   UNL     1       0.097   1.438  -0.069  0.00  0.00    -0.258 N 
ATOM      7  C   UNL     1       1.336   2.071  -0.152  0.00  0.00    +0.058 A 
ATOM      8  C   UNL     1       1.808   2.870   0.879  0.00  0.00    +0.025 A 
ATOM      9  C   UNL     1       3.070   3.429   0.785  0.00  0.00    +0.002 A 
ATOM     10  C   UNL     1       3.860   3.193  -0.326  0.00  0.00    +0.002 A 
ATOM     11  C   UNL     1       3.384   2.416  -1.368  0.00  0.00    +0.025 A 
ATOM     12  C   UNL     1       2.112   1.878  -1.284  0.00  0.00    +0.053 A 
ATOM     13  N   UNL     1       1.544   1.141  -2.318  0.00  0.00    -0.316 N 
ATOM     14  C   UNL     1      -1.029   2.180  -0.060  0.00  0.00    +0.221 C 
ATOM     15  O   UNL     1      -2.112   1.637   0.006  0.00  0.00    -0.275 OA
ATOM     16  C   UNL     1       0.174  -2.099  -1.259  0.00  0.00    +0.163 C 
ATOM     17  O   UNL     1      -0.474  -2.568  -0.344  0.00  0.00    -0.292 OA
ATOM     18  C   UNL     1       0.602  -2.999  -2.380  0.00  0.00    +0.088 C 
ATOM     19  H   UNL     1       1.383   1.697  -3.253  0.00  0.00    +0.152 HD
ENDROOT
BRANCH   1  23
ATOM     20  C   UNL     1       3.086  -4.817  -6.329  0.00  0.00    +0.029 A 
ATOM     21  C   UNL     1       3.942  -4.670  -5.245  0.00  0.00    +0.023 A 
ATOM     22  C   UNL     1       3.556  -3.903  -4.162  0.00  0.00    +0.006 A 
ATOM     23  C   UNL     1       2.320  -3.283  -4.158  0.00  0.00    -0.043 A 
ATOM     24  C   UNL     1       1.464  -3.432  -5.233  0.00  0.00    +0.006 A 
ATOM     25  C   UNL     1       1.846  -4.192  -6.321  0.00  0.00    +0.023 A 
BRANCH  20  27
ATOM     26  C   UNL     1       4.782  -6.249  -7.433  0.00  0.00    +0.129 C 
ATOM     27  N   UNL     1       3.473  -5.591  -7.426  0.00  0.00    -0.336 N 
ATOM     28  C   UNL     1       2.570  -5.745  -8.569  0.00  0.00    +0.129 C 
ENDBRANCH  20  27
ENDBRANCH   1  23
BRANCH   5  29
ATOM     29  C   UNL     1       0.802  -0.478   1.188  0.00  0.00    -0.022 A 
ATOM     30  C   UNL     1       2.155  -0.205   1.263  0.00  0.00    +0.006 A 
ATOM     31  C   UNL     1       2.887  -0.635   2.354  0.00  0.00    +0.000 A 
ATOM     32  C   UNL     1       2.269  -1.349   3.364  0.00  0.00    +0.000 A 
ATOM     33  C   UNL     1       0.917  -1.627   3.286  0.00  0.00    +0.000 A 
ATOM     34  C   UNL     1       0.183  -1.191   2.198  0.00  0.00    +0.006 A 
ENDBRANCH   5  29
BRANCH  14  35
ATOM     35  C   UNL     1      -0.942   3.682  -0.134  0.00  0.00    +0.107 C 
BRANCH  35  36
ATOM     36  C   UNL     1      -2.352   4.277  -0.108  0.00  0.00    +0.134 C 
BRANCH  36  37
ATOM     37  C   UNL     1      -2.265   5.779  -0.181  0.00  0.00    +0.356 C 
ATOM     38  O   UNL     1      -1.186   6.319  -0.248  0.00  0.00    -0.246 OA
ATOM     39  O   UNL     1      -3.386   6.518  -0.173  0.00  0.00    -0.246 OA
ENDBRANCH  36  37
ENDBRANCH  35  36
ENDBRANCH  14  35
TORSDOF 6
