REMARK  Name = ZINC36146741
REMARK  11 active torsions:
REMARK  status: ('A' for Active; 'I' for Inactive)
REMARK    1  A    between atoms: C_4  and  O_7
REMARK    2  A    between atoms: O_7  and  C_8
REMARK    3  A    between atoms: C_8  and  C_9
REMARK    4  A    between atoms: C_9  and  C_11
REMARK    5  A    between atoms: C_9  and  O_36
REMARK    6  A    between atoms: C_11  and  N_12
REMARK    7  A    between atoms: N_12  and  C_13
REMARK    8  A    between atoms: N_12  and  C_21
REMARK    9  A    between atoms: C_13  and  C_14
REMARK   10  A    between atoms: C_21  and  C_22
REMARK   11  A    between atoms: C_25  and  C_28
REMARK                            x       y       z     vdW  Elec       q    Type
REMARK                         _______ _______ _______ _____ _____    ______ ____
ROOT
ATOM      1  N   UNL     1       6.800  -4.372   0.120  0.00  0.00    +0.387 N 
ATOM      2  H   UNL     1       7.461  -3.753  -0.324  0.00  0.00    -0.081 HD
ENDROOT
BRANCH   1   3
ATOM      3  C   UNL     1       5.444  -4.061  -0.353  0.00  0.00    -0.043 C 
BRANCH   3   4
ATOM      4  C   UNL     1       5.250  -2.544  -0.383  0.00  0.00    +0.135 C 
BRANCH   4   5
ATOM      5  O   UNL     1       5.188  -2.046   0.955  0.00  0.00    -0.390 OA
ATOM      6  H   UNL     1       4.438  -2.381   1.465  0.00  0.00    +0.210 HD
ENDBRANCH   4   5
BRANCH   4   7
ATOM      7  C   UNL     1       3.947  -2.211  -1.112  0.00  0.00    +0.258 C 
BRANCH   7   8
ATOM      8  O   UNL     1       3.823  -0.793  -1.242  0.00  0.00    -0.489 OA
BRANCH   8  12
ATOM      9  C   UNL     1       0.453   0.625  -3.153  0.00  0.00    +0.000 A 
ATOM     10  C   UNL     1       1.399   1.512  -2.672  0.00  0.00    +0.004 A 
ATOM     11  C   UNL     1       2.528   1.040  -2.032  0.00  0.00    +0.045 A 
ATOM     12  C   UNL     1       2.712  -0.326  -1.871  0.00  0.00    +0.121 A 
ATOM     13  C   UNL     1       1.762  -1.214  -2.354  0.00  0.00    +0.045 A 
ATOM     14  C   UNL     1       0.635  -0.736  -2.994  0.00  0.00    +0.004 A 
ENDBRANCH   8  12
ENDBRANCH   7   8
ENDBRANCH   4   7
ENDBRANCH   3   4
ENDBRANCH   1   3
BRANCH   1  15
ATOM     15  C   UNL     1       6.863  -4.193   1.576  0.00  0.00    -0.043 C 
BRANCH  15  16
ATOM     16  C   UNL     1       5.868  -5.110   2.239  0.00  0.00    -0.064 A 
ATOM     17  C   UNL     1       4.587  -4.663   2.505  0.00  0.00    +0.004 A 
ATOM     18  C   UNL     1       3.673  -5.503   3.112  0.00  0.00    +0.038 A 
ATOM     19  C   UNL     1       4.041  -6.794   3.454  0.00  0.00    +0.123 A 
ATOM     20  C   UNL     1       5.324  -7.240   3.188  0.00  0.00    +0.038 A 
ATOM     21  C   UNL     1       6.234  -6.400   2.575  0.00  0.00    +0.004 A 
ATOM     22  F   UNL     1       3.149  -7.616   4.048  0.00  0.00    -0.205 F 
ENDBRANCH  15  16
ENDBRANCH   1  15
BRANCH   1  23
ATOM     23  C   UNL     1       7.129  -5.764  -0.217  0.00  0.00    -0.030 C 
BRANCH  23  24
ATOM     24  C   UNL     1       8.619  -6.010   0.029  0.00  0.00    +0.194 C 
ATOM     25  C   UNL     1       8.991  -7.484  -0.256  0.00  0.00    +0.104 C 
ATOM     26  C   UNL     1      10.008  -7.783   0.829  0.00  0.00    +0.091 C 
ATOM     27  N   UNL     1       9.925  -6.859   1.727  0.00  0.00    -0.089 NA
ATOM     28  O   UNL     1       8.937  -5.891   1.430  0.00  0.00    -0.392 OA
BRANCH  26  29
ATOM     29  C   UNL     1      10.933  -8.933   0.855  0.00  0.00    +0.001 A 
ATOM     30  C   UNL     1      10.925  -9.863  -0.187  0.00  0.00    +0.011 A 
ATOM     31  C   UNL     1      11.791 -10.935  -0.158  0.00  0.00    +0.022 A 
ATOM     32  C   UNL     1      12.669 -11.091   0.902  0.00  0.00    +0.059 A 
ATOM     33  C   UNL     1      12.683 -10.172   1.939  0.00  0.00    +0.060 A 
ATOM     34  C   UNL     1      11.824  -9.092   1.918  0.00  0.00    +0.031 A 
ATOM     35 CL   UNL     1      13.787 -10.376   3.263  0.00  0.00    -0.082 Cl
ATOM     36 CL   UNL     1      13.757 -12.444   0.931  0.00  0.00    -0.082 Cl
ENDBRANCH  26  29
ENDBRANCH  23  24
ENDBRANCH   1  23
TORSDOF 11
