REMARK  Name = ZINC38672886
REMARK  12 active torsions:
REMARK  status: ('A' for Active; 'I' for Inactive)
REMARK    1  A    between atoms: C_1  and  C_2
REMARK    2  A    between atoms: C_2  and  O_3
REMARK    3  A    between atoms: O_3  and  C_4
REMARK    4  A    between atoms: C_7  and  O_10
REMARK    5  A    between atoms: O_10  and  C_11
REMARK    6  A    between atoms: C_11  and  C_12
REMARK    7  A    between atoms: N_14  and  C_15
REMARK    8  A    between atoms: C_15  and  C_16
REMARK    9  A    between atoms: C_16  and  C_18
REMARK   10  A    between atoms: C_16  and  N_29
REMARK   11  A    between atoms: N_27  and  C_28
REMARK   12  A    between atoms: N_32  and  C_35
REMARK                            x       y       z     vdW  Elec       q    Type
REMARK                         _______ _______ _______ _____ _____    ______ ____
ROOT
ATOM      1  C   UNL     1      -5.134 -10.595  -0.447  0.00  0.00    +0.104 C 
ENDROOT
BRANCH   1   2
ATOM      2  C   UNL     1      -5.277 -12.045  -0.062  0.00  0.00    -0.028 A 
ATOM      3  C   UNL     1      -5.080 -12.433   1.251  0.00  0.00    +0.007 A 
ATOM      4  C   UNL     1      -5.209 -13.761   1.603  0.00  0.00    +0.024 A 
ATOM      5  C   UNL     1      -5.539 -14.708   0.640  0.00  0.00    +0.033 A 
ATOM      6  C   UNL     1      -5.740 -14.318  -0.675  0.00  0.00    -0.026 A 
ATOM      7  C   UNL     1      -5.611 -12.983  -1.020  0.00  0.00    +0.010 A 
ATOM      8  C   UNL     1      -6.109 -15.314  -1.744  0.00  0.00    +0.038 C 
ATOM      9  C   UNL     1      -5.723 -16.728  -1.313  0.00  0.00    +0.024 C 
ATOM     10  C   UNL     1      -6.294 -16.994   0.086  0.00  0.00    +0.105 C 
ATOM     11  N   UNL     1      -5.661 -16.050   1.017  0.00  0.00    -0.333 N 
ATOM     12  C   UNL     1      -5.165 -16.505   2.318  0.00  0.00    +0.129 C 
ENDBRANCH   1   2
BRANCH   1  13
ATOM     13  N   UNL     1      -5.713  -9.749   0.605  0.00  0.00    -0.297 NA
ATOM     14  C   UNL     1      -7.136 -10.059   0.806  0.00  0.00    +0.066 C 
ATOM     15  C   UNL     1      -7.685  -9.201   1.948  0.00  0.00    -0.064 C 
ATOM     16  N   UNL     1      -7.518  -7.780   1.617  0.00  0.00    +0.379 N 
ATOM     17  C   UNL     1      -6.090  -7.481   1.443  0.00  0.00    -0.064 C 
ATOM     18  C   UNL     1      -5.527  -8.324   0.297  0.00  0.00    +0.066 C 
ATOM     19  C   UNL     1      -8.061  -6.956   2.705  0.00  0.00    -0.096 C 
ATOM     20  H   UNL     1      -8.011  -7.574   0.761  0.00  0.00    -0.082 HD
ENDBRANCH   1  13
BRANCH   1  21
ATOM     21  C   UNL     1      -3.651 -10.256  -0.616  0.00  0.00    +0.128 C 
BRANCH  21  24
ATOM     22  C   UNL     1      -1.794 -10.909  -2.051  0.00  0.00    +0.251 C 
ATOM     23  O   UNL     1      -1.083 -10.151  -1.426  0.00  0.00    -0.272 OA
ATOM     24  N   UNL     1      -3.096 -11.035  -1.725  0.00  0.00    -0.311 N 
ATOM     25  H   UNL     1      -3.664 -11.641  -2.225  0.00  0.00    +0.149 HD
BRANCH  22  26
ATOM     26  C   UNL     1      -1.222 -11.710  -3.192  0.00  0.00    +0.324 C 
BRANCH  26  27
ATOM     27  O   UNL     1       0.166 -11.404  -3.340  0.00  0.00    -0.483 OA
BRANCH  27  31
ATOM     28  C   UNL     1       2.204 -13.357  -6.353  0.00  0.00    +0.121 A 
ATOM     29  C   UNL     1       2.869 -12.450  -5.540  0.00  0.00    +0.049 A 
ATOM     30  C   UNL     1       2.187 -11.797  -4.532  0.00  0.00    +0.049 A 
ATOM     31  C   UNL     1       0.837 -12.047  -4.333  0.00  0.00    +0.121 A 
ATOM     32  C   UNL     1       0.172 -12.952  -5.146  0.00  0.00    +0.049 A 
ATOM     33  C   UNL     1       0.853 -13.602  -6.157  0.00  0.00    +0.049 A 
BRANCH  28  34
ATOM     34  O   UNL     1       2.876 -14.000  -7.345  0.00  0.00    -0.492 OA
BRANCH  34  36
ATOM     35  C   UNL     1       4.846 -14.511  -8.648  0.00  0.00    +0.048 C 
ATOM     36  C   UNL     1       4.265 -13.698  -7.490  0.00  0.00    +0.225 C 
ENDBRANCH  34  36
ENDBRANCH  28  34
ENDBRANCH  27  31
ENDBRANCH  26  27
ENDBRANCH  22  26
ENDBRANCH  21  24
ENDBRANCH   1  21
TORSDOF 9
