REMARK  Name = ZINC23055045
REMARK  8 active torsions:
REMARK  status: ('A' for Active; 'I' for Inactive)
REMARK    1  A    between atoms: C_1  and  C_2
REMARK    2  A    between atoms: C_2  and  C_4
REMARK    3  A    between atoms: C_2  and  N_12
REMARK    4  A    between atoms: C_13  and  C_15
REMARK    5  A    between atoms: N_18  and  S_21
REMARK    6  A    between atoms: S_21  and  C_24
REMARK    7  A    between atoms: C_26  and  C_30
REMARK    8  A    between atoms: N_27  and  C_29
REMARK                            x       y       z     vdW  Elec       q    Type
REMARK                         _______ _______ _______ _____ _____    ______ ____
ROOT
ATOM      1  C   UNL     1      -6.932   0.156   4.368  0.00  0.00    +0.077 C 
ATOM      2  C   UNL     1      -6.443   1.435   3.684  0.00  0.00    +0.030 C 
ATOM      3  C   UNL     1      -7.162   1.597   2.341  0.00  0.00    +0.110 C 
ATOM      4  N   UNL     1      -6.965   0.375   1.549  0.00  0.00    -0.176 NA
ATOM      5  C   UNL     1      -7.324  -0.919   2.145  0.00  0.00    +0.110 C 
ATOM      6  C   UNL     1      -6.598  -1.054   3.493  0.00  0.00    +0.030 C 
ENDROOT
BRANCH   1   8
ATOM      7  N   UNL     1      -6.531  -1.048   6.491  0.00  0.00    -0.309 N 
ATOM      8  C   UNL     1      -6.253   0.011   5.705  0.00  0.00    +0.217 C 
ATOM      9  O   UNL     1      -5.456   0.847   6.075  0.00  0.00    -0.275 OA
ATOM     10  H   UNL     1      -7.254  -1.807   6.156  0.00  0.00    +0.149 HD
BRANCH   7  12
ATOM     11  C   UNL     1      -4.513  -1.871   7.602  0.00  0.00    +0.033 C 
ATOM     12  C   UNL     1      -5.870  -1.189   7.791  0.00  0.00    +0.100 C 
BRANCH  12  13
ATOM     13  C   UNL     1      -6.730  -2.026   8.704  0.00  0.00    -0.026 A 
ATOM     14  C   UNL     1      -6.855  -1.686  10.038  0.00  0.00    +0.007 A 
ATOM     15  C   UNL     1      -7.643  -2.452  10.876  0.00  0.00    +0.022 A 
ATOM     16  C   UNL     1      -8.308  -3.559  10.379  0.00  0.00    +0.059 A 
ATOM     17  C   UNL     1      -8.183  -3.899   9.043  0.00  0.00    +0.060 A 
ATOM     18  C   UNL     1      -7.398  -3.128   8.204  0.00  0.00    +0.027 A 
ATOM     19 CL   UNL     1      -9.017  -5.287   8.418  0.00  0.00    -0.082 Cl
ATOM     20 CL   UNL     1      -9.298  -4.522  11.431  0.00  0.00    -0.082 Cl
ENDBRANCH  12  13
ENDBRANCH   7  12
ENDBRANCH   1   8
BRANCH   4  21
ATOM     21  S   UNL     1      -6.357   0.456   0.010  0.00  0.00    +0.062 S 
ATOM     22  O   UNL     1      -6.643   1.762  -0.471  0.00  0.00    -0.153 OA
ATOM     23  O   UNL     1      -6.797  -0.717  -0.662  0.00  0.00    -0.153 OA
BRANCH  21  24
ATOM     24  C   UNL     1      -4.604   0.337   0.136  0.00  0.00    +0.124 A 
ATOM     25  C   UNL     1      -3.715   1.406   0.287  0.00  0.00    +0.061 A 
ATOM     26  C   UNL     1      -2.445   0.872   0.340  0.00  0.00    +0.106 A 
ATOM     27  N   UNL     1      -2.565  -0.495   0.232  0.00  0.00    -0.344 N 
ATOM     28  C   UNL     1      -3.878  -0.806   0.109  0.00  0.00    +0.114 A 
ATOM     29  C   UNL     1      -1.457  -1.454   0.248  0.00  0.00    +0.149 C 
BRANCH  26  30
ATOM     30  C   UNL     1      -1.194   1.624   0.489  0.00  0.00    +0.258 C 
ATOM     31  O   UNL     1      -0.126   1.044   0.437  0.00  0.00    -0.269 OA
ATOM     32  N   UNL     1      -1.228   2.957   0.685  0.00  0.00    -0.324 N 
ATOM     33  H   UNL     1      -0.291   3.520   0.797  0.00  0.00    +0.145 HD
ATOM     34  H   UNL     1      -2.194   3.481   0.732  0.00  0.00    +0.145 HD
ENDBRANCH  26  30
ENDBRANCH  21  24
ENDBRANCH   4  21
TORSDOF 6
