REMARK  Name = ZINC15748777
REMARK  13 active torsions:
REMARK  status: ('A' for Active; 'I' for Inactive)
REMARK    1  A    between atoms: C_1  and  C_2
REMARK    2  A    between atoms: C_3  and  C_28
REMARK    3  A    between atoms: C_4  and  C_27
REMARK    4  A    between atoms: C_7  and  C_8
REMARK    5  A    between atoms: C_8  and  C_10
REMARK    6  A    between atoms: C_10  and  C_12
REMARK    7  A    between atoms: C_10  and  O_13
REMARK    8  A    between atoms: O_13  and  C_14
REMARK    9  A    between atoms: C_14  and  C_16
REMARK   10  A    between atoms: C_17  and  C_18
REMARK   11  A    between atoms: C_23  and  O_24
REMARK   12  A    between atoms: O_24  and  C_25
REMARK   13  A    between atoms: C_28  and  C_30
REMARK                            x       y       z     vdW  Elec       q    Type
REMARK                         _______ _______ _______ _____ _____    ______ ____
ROOT
ATOM      1  C   UNL     1       0.072  -0.578   0.246  0.00  0.00    +0.246 C 
ATOM      2  C   UNL     1      -0.182   0.928   0.339  0.00  0.00    +0.061 C 
ENDROOT
BRANCH   1   3
ATOM      3  C   UNL     1       0.751  -0.894  -1.062  0.00  0.00    +0.219 C 
ATOM      4  O   UNL     1       0.102  -1.326  -1.993  0.00  0.00    -0.287 OA
BRANCH   3  11
ATOM      5  C   UNL     1       2.371  -1.467  -3.651  0.00  0.00    +0.047 C 
ATOM      6  C   UNL     1       2.885  -0.931  -2.339  0.00  0.00    -0.012 A 
ATOM      7  C   UNL     1       4.222  -0.584  -2.037  0.00  0.00    +0.041 A 
ATOM      8  C   UNL     1       4.240  -0.138  -0.723  0.00  0.00    +0.024 A 
ATOM      9  N   UNL     1       2.994  -0.196  -0.234  0.00  0.00    -0.355 N 
ATOM     10  H   UNL     1       2.731   0.063   0.663  0.00  0.00    +0.166 HD
ATOM     11  C   UNL     1       2.144  -0.686  -1.205  0.00  0.00    +0.090 A 
ATOM     12  C   UNL     1       5.457   0.338   0.027  0.00  0.00    +0.064 C 
BRANCH   7  13
ATOM     13  C   UNL     1       5.372  -0.676  -2.941  0.00  0.00    +0.162 C 
ATOM     14  O   UNL     1       6.006  -1.709  -3.014  0.00  0.00    -0.292 OA
ATOM     15  C   UNL     1       5.768   0.511  -3.781  0.00  0.00    +0.091 C 
ENDBRANCH   7  13
ENDBRANCH   3  11
ENDBRANCH   1   3
BRANCH   1  16
ATOM     16  O   UNL     1      -1.173  -1.276   0.318  0.00  0.00    -0.450 OA
BRANCH  16  17
ATOM     17  C   UNL     1      -1.606  -1.633   1.545  0.00  0.00    +0.333 C 
ATOM     18  O   UNL     1      -0.943  -1.357   2.527  0.00  0.00    -0.246 OA
BRANCH  17  19
ATOM     19  C   UNL     1      -2.833  -2.328   1.690  0.00  0.00    +0.092 C 
ATOM     20  C   UNL     1      -3.266  -2.684   2.919  0.00  0.00    +0.018 C 
BRANCH  20  21
ATOM     21  C   UNL     1      -4.538  -3.405   3.068  0.00  0.00    +0.018 A 
ATOM     22  C   UNL     1      -5.303  -3.724   1.941  0.00  0.00    +0.026 A 
ATOM     23  C   UNL     1      -6.495  -4.400   2.090  0.00  0.00    +0.019 A 
ATOM     24  C   UNL     1      -6.939  -4.766   3.352  0.00  0.00    +0.019 A 
ATOM     25  C   UNL     1      -6.194  -4.457   4.473  0.00  0.00    +0.047 A 
ATOM     26  C   UNL     1      -4.990  -3.782   4.343  0.00  0.00    +0.127 A 
ATOM     27 BR   UNL     1      -7.529  -4.832   0.567  0.00  0.00    -0.050 Br
BRANCH  26  28
ATOM     28  O   UNL     1      -4.254  -3.483   5.443  0.00  0.00    -0.495 OA
ATOM     29  C   UNL     1      -4.778  -3.899   6.706  0.00  0.00    +0.277 C 
ENDBRANCH  26  28
ENDBRANCH  20  21
ENDBRANCH  17  19
ENDBRANCH  16  17
ENDBRANCH   1  16
TORSDOF 8
