REMARK  Name = ZINC36028173
REMARK  12 active torsions:
REMARK  status: ('A' for Active; 'I' for Inactive)
REMARK    1  A    between atoms: C_1  and  C_2
REMARK    2  A    between atoms: C_2  and  C_3
REMARK    3  A    between atoms: C_3  and  C_5
REMARK    4  A    between atoms: C_3  and  C_6
REMARK    5  A    between atoms: C_6  and  N_7
REMARK    6  A    between atoms: C_10  and  C_32
REMARK    7  A    between atoms: N_16  and  S_19
REMARK    8  A    between atoms: S_19  and  C_22
REMARK    9  A    between atoms: C_26  and  C_28
REMARK   10  A    between atoms: C_32  and  C_34
REMARK   11  A    between atoms: C_32  and  C_35
REMARK   12  A    between atoms: C_35  and  C_36
REMARK                            x       y       z     vdW  Elec       q    Type
REMARK                         _______ _______ _______ _____ _____    ______ ____
ROOT
ATOM      1  N   UNL     1       1.364  -2.523   2.486  0.00  0.00    -0.313 N 
ATOM      2  C   UNL     1       2.690  -2.759   2.558  0.00  0.00    +0.201 C 
ATOM      3  O   UNL     1       3.487  -2.611   1.656  0.00  0.00    -0.277 OA
ATOM      4  C   UNL     1       3.016  -3.241   3.955  0.00  0.00    +0.022 C 
ATOM      5  N   UNL     1       1.836  -2.864   4.770  0.00  0.00    +0.401 N 
ATOM      6  C   UNL     1       0.743  -2.820   3.779  0.00  0.00    +0.006 C 
ATOM      7  C   UNL     1      -0.252  -1.722   4.153  0.00  0.00    +0.023 C 
ATOM      8  C   UNL     1      -1.363  -1.662   3.099  0.00  0.00    +0.109 C 
ATOM      9  N   UNL     1      -1.952  -3.001   2.958  0.00  0.00    -0.177 NA
ATOM     10  C   UNL     1      -1.067  -4.137   2.671  0.00  0.00    +0.109 C 
ATOM     11  C   UNL     1       0.042  -4.177   3.729  0.00  0.00    +0.023 C 
ATOM     12  H   UNL     1       1.653  -3.562   5.476  0.00  0.00    -0.082 HD
ATOM     13  H   UNL     1       1.968  -1.956   5.191  0.00  0.00    -0.082 HD
ENDROOT
BRANCH   9  14
ATOM     14  S   UNL     1      -3.586  -3.223   3.118  0.00  0.00    +0.061 S 
ATOM     15  O   UNL     1      -3.776  -4.582   3.487  0.00  0.00    -0.153 OA
ATOM     16  O   UNL     1      -4.067  -2.145   3.908  0.00  0.00    -0.153 OA
BRANCH  14  17
ATOM     17  C   UNL     1      -4.297  -3.032   1.517  0.00  0.00    +0.106 A 
ATOM     18  C   UNL     1      -4.711  -1.784   1.089  0.00  0.00    +0.028 A 
ATOM     19  C   UNL     1      -5.269  -1.634  -0.166  0.00  0.00    +0.002 A 
ATOM     20  C   UNL     1      -5.412  -2.732  -0.995  0.00  0.00    +0.012 A 
ATOM     21  C   UNL     1      -4.998  -3.979  -0.567  0.00  0.00    +0.057 A 
ATOM     22  C   UNL     1      -4.436  -4.128   0.687  0.00  0.00    +0.041 A 
BRANCH  21  23
ATOM     23  C   UNL     1      -5.155  -5.175  -1.470  0.00  0.00    +0.417 C 
ATOM     24  F   UNL     1      -5.739  -4.776  -2.676  0.00  0.00    -0.166 F 
ATOM     25  F   UNL     1      -3.898  -5.736  -1.724  0.00  0.00    -0.166 F 
ATOM     26  F   UNL     1      -5.972  -6.125  -0.848  0.00  0.00    -0.166 F 
ENDBRANCH  21  23
ENDBRANCH  14  17
ENDBRANCH   9  14
BRANCH   4  27
ATOM     27  C   UNL     1       4.273  -2.543   4.480  0.00  0.00    -0.020 C 
ATOM     28  C   UNL     1       4.562  -3.018   5.905  0.00  0.00    +0.006 C 
BRANCH  27  29
ATOM     29  C   UNL     1       5.460  -2.885   3.577  0.00  0.00    -0.001 C 
ATOM     30  C   UNL     1       6.688  -2.091   4.027  0.00  0.00    +0.004 C 
ENDBRANCH  27  29
ENDBRANCH   4  27
BRANCH   1  31
ATOM     31  C   UNL     1       0.655  -2.037   1.299  0.00  0.00    +0.109 C 
BRANCH  31  32
ATOM     32  C   UNL     1       0.662  -0.507   1.291  0.00  0.00    +0.003 C 
ATOM     33  C   UNL     1       2.096  -0.004   1.115  0.00  0.00    +0.009 C 
BRANCH  32  35
ATOM     34  C   UNL     1      -0.298   1.526   0.201  0.00  0.00    +0.004 C 
ATOM     35  C   UNL     1      -0.203   0.000   0.135  0.00  0.00    +0.001 C 
ENDBRANCH  32  35
ENDBRANCH  31  32
ENDBRANCH   1  31
TORSDOF 8
