REMARK  Name = ZINC33275362
REMARK  10 active torsions:
REMARK  status: ('A' for Active; 'I' for Inactive)
REMARK    1  A    between atoms: C_1  and  C_2
REMARK    2  A    between atoms: C_2  and  N_3
REMARK    3  A    between atoms: C_11  and  C_12
REMARK    4  A    between atoms: C_12  and  C_13
REMARK    5  A    between atoms: C_13  and  C_14
REMARK    6  A    between atoms: C_19  and  N_20
REMARK    7  A    between atoms: N_20  and  S_21
REMARK    8  A    between atoms: S_21  and  C_24
REMARK    9  A    between atoms: C_27  and  N_31
REMARK   10  A    between atoms: C_32  and  C_34
REMARK                            x       y       z     vdW  Elec       q    Type
REMARK                         _______ _______ _______ _____ _____    ______ ____
ROOT
ATOM      1  C   UNL     1      -0.853  -1.530  -3.714  0.00  0.00    -0.025 A 
ATOM      2  C   UNL     1      -0.007  -2.236  -4.547  0.00  0.00    +0.005 A 
ATOM      3  C   UNL     1       0.675  -3.339  -4.069  0.00  0.00    +0.000 A 
ATOM      4  C   UNL     1       0.517  -3.737  -2.753  0.00  0.00    +0.002 A 
ATOM      5  C   UNL     1      -0.323  -3.032  -1.913  0.00  0.00    +0.025 A 
ATOM      6  C   UNL     1      -1.010  -1.923  -2.391  0.00  0.00    +0.051 A 
ENDROOT
BRANCH   6   7
ATOM      7  N   UNL     1      -1.860  -1.208  -1.545  0.00  0.00    -0.216 N 
ATOM      8  H   UNL     1      -2.784  -0.763  -1.942  0.00  0.00    +0.174 HD
BRANCH   7   9
ATOM      9  S   UNL     1      -1.478  -1.032   0.057  0.00  0.00    +0.072 S 
ATOM     10  O   UNL     1      -1.260  -2.340   0.569  0.00  0.00    -0.150 OA
ATOM     11  O   UNL     1      -2.443  -0.148   0.610  0.00  0.00    -0.150 OA
BRANCH   9  12
ATOM     12  C   UNL     1       0.072  -0.197   0.133  0.00  0.00    +0.110 A 
ATOM     13  C   UNL     1       1.248  -0.925   0.143  0.00  0.00    +0.031 A 
ATOM     14  C   UNL     1       2.464  -0.274   0.203  0.00  0.00    +0.027 A 
ATOM     15  C   UNL     1       2.506   1.113   0.253  0.00  0.00    +0.052 A 
ATOM     16  C   UNL     1       1.323   1.842   0.243  0.00  0.00    +0.064 A 
ATOM     17  C   UNL     1       0.109   1.184   0.183  0.00  0.00    +0.050 A 
ATOM     18 CL   UNL     1       1.370   3.576   0.305  0.00  0.00    -0.082 Cl
BRANCH  15  19
ATOM     19  N   UNL     1       3.738   1.776   0.314  0.00  0.00    -0.285 N 
ATOM     20  C   UNL     1       4.807   1.272  -0.333  0.00  0.00    +0.214 C 
ATOM     21  O   UNL     1       4.724   0.203  -0.901  0.00  0.00    -0.276 OA
ATOM     22  C   UNL     1       6.106   2.035  -0.350  0.00  0.00    +0.109 C 
ATOM     23  H   UNL     1       3.833   2.708   0.890  0.00  0.00    +0.155 HD
ENDBRANCH  15  19
ENDBRANCH   9  12
ENDBRANCH   7   9
ENDBRANCH   6   7
BRANCH   1  24
ATOM     24  C   UNL     1      -1.601  -0.331  -4.238  0.00  0.00    +0.045 C 
BRANCH  24  25
ATOM     25  C   UNL     1      -0.812   0.941  -3.921  0.00  0.00    +0.079 C 
BRANCH  25  34
ATOM     26  N   UNL     1      -2.484   2.850  -3.743  0.00  0.00    -0.328 N 
ATOM     27  C   UNL     1      -2.935   3.863  -4.566  0.00  0.00    +0.069 A 
ATOM     28  C   UNL     1      -3.858   4.889  -4.419  0.00  0.00    +0.028 A 
ATOM     29  C   UNL     1      -4.084   5.759  -5.464  0.00  0.00    +0.002 A 
ATOM     30  C   UNL     1      -3.395   5.616  -6.660  0.00  0.00    +0.002 A 
ATOM     31  C   UNL     1      -2.483   4.612  -6.823  0.00  0.00    +0.030 A 
ATOM     32  C   UNL     1      -2.237   3.718  -5.777  0.00  0.00    +0.089 A 
ATOM     33  N   UNL     1      -1.412   2.650  -5.633  0.00  0.00    -0.232 NA
ATOM     34  C   UNL     1      -1.560   2.140  -4.445  0.00  0.00    +0.111 A 
BRANCH  26  36
ATOM     35  C   UNL     1      -2.031   3.362  -1.395  0.00  0.00    +0.027 C 
ATOM     36  C   UNL     1      -2.921   2.588  -2.370  0.00  0.00    +0.120 C 
ENDBRANCH  26  36
ENDBRANCH  25  34
ENDBRANCH  24  25
ENDBRANCH   1  24
TORSDOF 8
