REMARK  Name = ZINC50443101
REMARK  4 active torsions:
REMARK  status: ('A' for Active; 'I' for Inactive)
REMARK    1  A    between atoms: C_3  and  C_11
REMARK    2  A    between atoms: C_4  and  N_8
REMARK    3  A    between atoms: C_11  and  N_12
REMARK    4  A    between atoms: N_12  and  C_13
REMARK                            x       y       z     vdW  Elec       q    Type
REMARK                         _______ _______ _______ _____ _____    ______ ____
ROOT
ATOM      1  C   UNL     1       3.672   2.183  -0.022  0.00  0.00    +0.139 C 
ENDROOT
BRANCH   1   4
ATOM      2  C   UNL     1      -0.017   1.379   0.010  0.00  0.00    +0.020 A 
ATOM      3  C   UNL     1       1.171   2.086   0.002  0.00  0.00    +0.009 A 
ATOM      4  C   UNL     1       2.377   1.411  -0.013  0.00  0.00    -0.000 A 
ATOM      5  C   UNL     1       2.397   0.029  -0.022  0.00  0.00    +0.132 A 
ATOM      6  C   UNL     1       1.210  -0.679  -0.014  0.00  0.00    +0.053 A 
ATOM      7  C   UNL     1       0.002  -0.004   0.002  0.00  0.00    +0.043 A 
ATOM      8 CL   UNL     1      -1.489  -0.893   0.012  0.00  0.00    -0.083 Cl
BRANCH   5   9
ATOM      9  N   UNL     1       3.689  -0.693  -0.039  0.00  0.00    +0.057 N 
ATOM     10  O   UNL     1       3.706  -1.902  -0.046  0.00  0.00    -0.126 OA
ATOM     11  O   UNL     1       4.727  -0.073  -0.047  0.00  0.00    -0.126 OA
ENDBRANCH   5   9
ENDBRANCH   1   4
BRANCH   1  12
ATOM     12  N   UNL     1       4.201   2.234  -1.387  0.00  0.00    -0.337 N 
ATOM     13  H   UNL     1       3.717   1.806  -2.111  0.00  0.00    +0.146 HD
BRANCH  12  14
ATOM     14  C   UNL     1       5.403   2.902  -1.648  0.00  0.00    +0.066 A 
ATOM     15  C   UNL     1       6.098   3.511  -0.612  0.00  0.00    +0.029 A 
ATOM     16  C   UNL     1       7.285   4.170  -0.870  0.00  0.00    +0.043 A 
ATOM     17  C   UNL     1       7.783   4.225  -2.160  0.00  0.00    +0.161 A 
ATOM     18  C   UNL     1       7.092   3.618  -3.198  0.00  0.00    +0.195 A 
ATOM     19  C   UNL     1       5.906   2.951  -2.943  0.00  0.00    +0.182 A 
ATOM     20  F   UNL     1       5.235   2.354  -3.952  0.00  0.00    -0.200 F 
ATOM     21  F   UNL     1       7.579   3.673  -4.457  0.00  0.00    -0.199 F 
ATOM     22  F   UNL     1       8.943   4.871  -2.409  0.00  0.00    -0.202 F 
ENDBRANCH  12  14
ENDBRANCH   1  12
TORSDOF 4
