REMARK  Name = ZINC40325159
REMARK  9 active torsions:
REMARK  status: ('A' for Active; 'I' for Inactive)
REMARK    1  A    between atoms: C_1  and  C_2
REMARK    2  A    between atoms: C_2  and  S_3
REMARK    3  A    between atoms: S_3  and  C_6
REMARK    4  A    between atoms: C_9  and  C_12
REMARK    5  A    between atoms: C_14  and  C_17
REMARK    6  A    between atoms: N_19  and  C_20
REMARK    7  A    between atoms: C_20  and  C_21
REMARK    8  A    between atoms: C_21  and  C_23
REMARK    9  A    between atoms: C_21  and  N_29
REMARK                            x       y       z     vdW  Elec       q    Type
REMARK                         _______ _______ _______ _____ _____    ______ ____
ROOT
ATOM      1  C   UNL     1      -0.705  -9.928  -1.604  0.00  0.00    +0.266 C 
ATOM      2  O   UNL     1      -1.667  -9.806  -2.335  0.00  0.00    -0.268 OA
ATOM      3  N   UNL     1      -0.288 -11.156  -1.237  0.00  0.00    -0.311 N 
ATOM      4  H   UNL     1       0.480 -11.254  -0.653  0.00  0.00    +0.149 HD
ENDROOT
BRANCH   1   7
ATOM      5  C   UNL     1       0.581  -6.584  -0.778  0.00  0.00    +0.168 A 
ATOM      6  C   UNL     1      -0.312  -7.385  -1.417  0.00  0.00    +0.086 A 
ATOM      7  C   UNL     1       0.013  -8.725  -1.114  0.00  0.00    +0.168 A 
ATOM      8  N   UNL     1       1.060  -8.720  -0.325  0.00  0.00    -0.073 NA
ATOM      9  O   UNL     1       1.438  -7.374  -0.104  0.00  0.00    -0.354 OA
BRANCH   5  13
ATOM     10  C   UNL     1       0.666  -2.339  -0.901  0.00  0.00    +0.088 A 
ATOM     11  C   UNL     1       1.613  -3.026  -0.162  0.00  0.00    +0.027 A 
ATOM     12  C   UNL     1       1.591  -4.404  -0.118  0.00  0.00    +0.013 A 
ATOM     13  C   UNL     1       0.611  -5.106  -0.820  0.00  0.00    +0.020 A 
ATOM     14  C   UNL     1      -0.342  -4.408  -1.563  0.00  0.00    +0.013 A 
ATOM     15  C   UNL     1      -0.312  -3.029  -1.595  0.00  0.00    +0.027 A 
BRANCH  10  16
ATOM     16  S   UNL     1       0.701  -0.578  -0.953  0.00  0.00    -0.003 S 
ATOM     17  O   UNL     1       0.074  -0.239  -2.182  0.00  0.00    -0.169 OA
ATOM     18  O   UNL     1       2.059  -0.235  -0.712  0.00  0.00    -0.169 OA
BRANCH  16  20
ATOM     19  C   UNL     1      -0.375   1.478   0.496  0.00  0.00    +0.028 C 
ATOM     20  C   UNL     1      -0.333  -0.051   0.442  0.00  0.00    +0.168 C 
ENDBRANCH  16  20
ENDBRANCH  10  16
ENDBRANCH   5  13
ENDBRANCH   1   7
BRANCH   3  21
ATOM     21  C   UNL     1      -0.997 -12.344  -1.720  0.00  0.00    +0.094 C 
BRANCH  21  22
ATOM     22  C   UNL     1      -0.260 -13.602  -1.255  0.00  0.00    -0.020 C 
BRANCH  22  23
ATOM     23  N   UNL     1      -0.915 -14.790  -1.819  0.00  0.00    +0.385 N 
ATOM     24  C   UNL     1      -0.242 -15.998  -1.327  0.00  0.00    -0.078 C 
ATOM     25  C   UNL     1      -0.970 -17.239  -1.846  0.00  0.00    -0.019 C 
ATOM     26  C   UNL     1      -0.953 -17.232  -3.377  0.00  0.00    -0.004 C 
ATOM     27  C   UNL     1      -1.591 -15.933  -3.878  0.00  0.00    -0.019 C 
ATOM     28  C   UNL     1      -0.840 -14.739  -3.284  0.00  0.00    -0.078 C 
ATOM     29  H   UNL     1      -1.883 -14.807  -1.533  0.00  0.00    -0.081 HD
ENDBRANCH  22  23
BRANCH  22  30
ATOM     30  C   UNL     1      -0.293 -13.676   0.250  0.00  0.00    -0.059 A 
ATOM     31  C   UNL     1      -1.422 -14.148   0.893  0.00  0.00    +0.002 A 
ATOM     32  C   UNL     1      -1.453 -14.216   2.274  0.00  0.00    +0.000 A 
ATOM     33  C   UNL     1      -0.354 -13.813   3.010  0.00  0.00    +0.000 A 
ATOM     34  C   UNL     1       0.775 -13.342   2.366  0.00  0.00    +0.000 A 
ATOM     35  C   UNL     1       0.807 -13.278   0.986  0.00  0.00    +0.002 A 
ENDBRANCH  22  30
ENDBRANCH  21  22
ENDBRANCH   3  21
TORSDOF 8
