REMARK  Name = ZINC66721941
REMARK  6 active torsions:
REMARK  status: ('A' for Active; 'I' for Inactive)
REMARK    1  A    between atoms: C_1  and  C_2
REMARK    2  A    between atoms: C_2  and  C_7
REMARK    3  A    between atoms: C_7  and  N_8
REMARK    4  A    between atoms: C_9  and  C_11
REMARK    5  A    between atoms: N_13  and  C_14
REMARK    6  A    between atoms: N_13  and  C_15
REMARK                            x       y       z     vdW  Elec       q    Type
REMARK                         _______ _______ _______ _____ _____    ______ ____
ROOT
ATOM      1  C   UNL     1      -4.099   0.095  -2.669  0.00  0.00    +0.305 C 
ATOM      2  O   UNL     1      -3.549   0.890  -3.402  0.00  0.00    -0.265 OA
ATOM      3  N   UNL     1      -5.345  -0.335  -2.954  0.00  0.00    -0.266 N 
ATOM      4  C   UNL     1      -5.992   0.072  -4.204  0.00  0.00    +0.139 C 
ENDROOT
BRANCH   3   5
ATOM      5  C   UNL     1      -6.017  -1.165  -2.059  0.00  0.00    +0.044 A 
ATOM      6  C   UNL     1      -6.812  -0.624  -1.070  0.00  0.00    +0.024 A 
ATOM      7  C   UNL     1      -7.487  -1.445  -0.172  0.00  0.00    +0.002 A 
ATOM      8  C   UNL     1      -7.383  -2.801  -0.244  0.00  0.00    +0.008 A 
ATOM      9  C   UNL     1      -6.584  -3.392  -1.237  0.00  0.00    -0.016 A 
ATOM     10  C   UNL     1      -5.896  -2.568  -2.161  0.00  0.00    +0.004 A 
ATOM     11  C   UNL     1      -5.102  -3.160  -3.155  0.00  0.00    +0.010 A 
ATOM     12  C   UNL     1      -5.008  -4.517  -3.223  0.00  0.00    +0.001 A 
ATOM     13  C   UNL     1      -5.689  -5.329  -2.319  0.00  0.00    +0.001 A 
ATOM     14  C   UNL     1      -6.458  -4.789  -1.333  0.00  0.00    +0.008 A 
ENDBRANCH   3   5
BRANCH   1  16
ATOM     15  N   UNL     1      -2.114  -0.062  -1.222  0.00  0.00    -0.307 N 
ATOM     16  C   UNL     1      -3.397  -0.408  -1.451  0.00  0.00    +0.300 C 
ATOM     17  O   UNL     1      -3.981  -1.127  -0.667  0.00  0.00    -0.265 OA
ATOM     18  H   UNL     1      -1.648   0.512  -1.849  0.00  0.00    +0.149 HD
BRANCH  15  19
ATOM     19  C   UNL     1      -1.425  -0.555  -0.027  0.00  0.00    +0.111 C 
BRANCH  19  21
ATOM     20  C   UNL     1      -0.004   1.510  -0.003  0.00  0.00    +0.013 C 
ATOM     21  C   UNL     1       0.008  -0.020  -0.007  0.00  0.00    -0.017 C 
ATOM     22  C   UNL     1       0.784  -0.539  -1.236  0.00  0.00    +0.008 C 
ATOM     23  C   UNL     1       2.214  -0.798  -0.700  0.00  0.00    +0.001 C 
ATOM     24  C   UNL     1       1.950  -1.363   0.718  0.00  0.00    +0.001 C 
ATOM     25  C   UNL     1       0.750  -0.544   1.235  0.00  0.00    +0.008 C 
ENDBRANCH  19  21
ENDBRANCH  15  19
ENDBRANCH   1  16
TORSDOF 4
