REMARK  Name = ZINC21219260
REMARK  10 active torsions:
REMARK  status: ('A' for Active; 'I' for Inactive)
REMARK    1  A    between atoms: C_1  and  C_2
REMARK    2  A    between atoms: C_2  and  C_3
REMARK    3  A    between atoms: C_2  and  O_4
REMARK    4  A    between atoms: O_4  and  C_5
REMARK    5  A    between atoms: C_8  and  C_13
REMARK    6  A    between atoms: C_10  and  O_11
REMARK    7  A    between atoms: O_11  and  C_12
REMARK    8  A    between atoms: C_18  and  C_28
REMARK    9  A    between atoms: C_31  and  O_37
REMARK   10  A    between atoms: C_32  and  N_34
REMARK                            x       y       z     vdW  Elec       q    Type
REMARK                         _______ _______ _______ _____ _____    ______ ____
ROOT
ATOM      1  C   UNL     1       4.620   4.232  -1.550  0.00  0.00    +0.032 C 
ATOM      2  C   UNL     1       3.236   4.747  -1.157  0.00  0.00    +0.059 C 
ATOM      3  C   UNL     1       2.516   3.703  -0.319  0.00  0.00    +0.017 C 
ATOM      4  C   UNL     1       2.717   2.394  -0.545  0.00  0.00    +0.036 C 
ATOM      5  C   UNL     1       2.046   1.255   0.184  0.00  0.00    +0.136 C 
ATOM      6  N   UNL     1       1.323   1.650   1.375  0.00  0.00    -0.331 N 
ATOM      7  C   UNL     1       0.205   2.480   1.298  0.00  0.00    +0.049 A 
ATOM      8  C   UNL     1      -1.064   2.014   1.604  0.00  0.00    +0.025 A 
ATOM      9  C   UNL     1      -2.156   2.843   1.416  0.00  0.00    +0.002 A 
ATOM     10  C   UNL     1      -1.984   4.129   0.937  0.00  0.00    +0.002 A 
ATOM     11  C   UNL     1      -0.716   4.603   0.644  0.00  0.00    +0.025 A 
ATOM     12  C   UNL     1       0.378   3.778   0.842  0.00  0.00    +0.052 A 
ATOM     13  N   UNL     1       1.682   4.209   0.624  0.00  0.00    -0.316 N 
ATOM     14  C   UNL     1       3.631   1.976  -1.541  0.00  0.00    +0.163 C 
ATOM     15  O   UNL     1       3.777   0.785  -1.738  0.00  0.00    -0.292 OA
ATOM     16  C   UNL     1       4.425   2.946  -2.363  0.00  0.00    +0.088 C 
ATOM     17  H   UNL     1       1.653   1.295   2.362  0.00  0.00    +0.147 HD
ATOM     18  H   UNL     1       2.024   5.019   1.284  0.00  0.00    +0.152 HD
ENDROOT
BRANCH   1  22
ATOM     19  C   UNL     1       6.632   7.159  -3.932  0.00  0.00    +0.162 A 
ATOM     20  C   UNL     1       5.410   6.649  -4.342  0.00  0.00    +0.050 A 
ATOM     21  C   UNL     1       4.763   5.702  -3.570  0.00  0.00    +0.008 A 
ATOM     22  C   UNL     1       5.330   5.263  -2.389  0.00  0.00    -0.040 A 
ATOM     23  C   UNL     1       6.546   5.772  -1.972  0.00  0.00    +0.053 A 
ATOM     24  C   UNL     1       7.204   6.716  -2.744  0.00  0.00    +0.162 A 
BRANCH  24  25
ATOM     25  O   UNL     1       8.402   7.214  -2.337  0.00  0.00    -0.491 OA
ATOM     26  C   UNL     1       8.929   6.714  -1.107  0.00  0.00    +0.277 C 
ENDBRANCH  24  25
BRANCH  19  27
ATOM     27  O   UNL     1       7.270   8.090  -4.690  0.00  0.00    -0.486 OA
BRANCH  27  29
ATOM     28  C   UNL     1       5.613   9.483  -5.764  0.00  0.00    +0.051 C 
ATOM     29  C   UNL     1       6.686   8.409  -5.955  0.00  0.00    +0.167 C 
ATOM     30  C   UNL     1       7.769   8.931  -6.900  0.00  0.00    +0.051 C 
ENDBRANCH  27  29
ENDBRANCH  19  27
ENDBRANCH   1  22
BRANCH   5  31
ATOM     31  C   UNL     1       1.082   0.585  -0.760  0.00  0.00    -0.020 A 
ATOM     32  C   UNL     1       1.279  -0.734  -1.126  0.00  0.00    +0.009 A 
ATOM     33  C   UNL     1       0.393  -1.353  -1.987  0.00  0.00    +0.048 A 
ATOM     34  C   UNL     1      -0.688  -0.646  -2.494  0.00  0.00    +0.147 A 
ATOM     35  C   UNL     1      -0.880   0.678  -2.130  0.00  0.00    +0.168 A 
ATOM     36  C   UNL     1       0.005   1.291  -1.264  0.00  0.00    +0.042 A 
BRANCH  35  37
ATOM     37  N   UNL     1      -2.032   1.435  -2.669  0.00  0.00    +0.060 N 
ATOM     38  O   UNL     1      -2.200   2.598  -2.349  0.00  0.00    -0.126 OA
ATOM     39  O   UNL     1      -2.812   0.894  -3.432  0.00  0.00    -0.126 OA
ENDBRANCH  35  37
BRANCH  34  40
ATOM     40  O   UNL     1      -1.557  -1.251  -3.346  0.00  0.00    -0.504 OA
ATOM     41  H   UNL     1      -2.414  -0.690  -3.747  0.00  0.00    +0.292 HD
ENDBRANCH  34  40
ENDBRANCH   5  31
TORSDOF 7
