REMARK  Name = ZINC48644330
REMARK  3 active torsions:
REMARK  status: ('A' for Active; 'I' for Inactive)
REMARK    1  A    between atoms: C_1  and  N_2
REMARK    2  A    between atoms: N_5  and  N_6
REMARK    3  A    between atoms: N_6  and  C_7
REMARK                            x       y       z     vdW  Elec       q    Type
REMARK                         _______ _______ _______ _____ _____    ______ ____
ROOT
ATOM      1  C   UNL     1       0.107  -4.123   0.085  0.00  0.00    +0.121 A 
ATOM      2  C   UNL     1      -0.838  -4.883  -0.593  0.00  0.00    +0.186 A 
ATOM      3  C   UNL     1      -0.815  -6.264  -0.495  0.00  0.00    +0.198 A 
ATOM      4  C   UNL     1       0.152  -6.889   0.278  0.00  0.00    +0.199 A 
ATOM      5  C   UNL     1       1.096  -6.132   0.954  0.00  0.00    +0.198 A 
ATOM      6  C   UNL     1       1.079  -4.751   0.855  0.00  0.00    +0.186 A 
ATOM      7  F   UNL     1       2.002  -4.014   1.510  0.00  0.00    -0.200 F 
ATOM      8  F   UNL     1       2.037  -6.743   1.707  0.00  0.00    -0.199 F 
ATOM      9  F   UNL     1       0.173  -8.236   0.372  0.00  0.00    -0.199 F 
ATOM     10  F   UNL     1      -1.734  -7.004  -1.153  0.00  0.00    -0.199 F 
ATOM     11  F   UNL     1      -1.781  -4.275  -1.345  0.00  0.00    -0.200 F 
ENDROOT
BRANCH   1  12
ATOM     12  N   UNL     1       0.085  -2.725  -0.013  0.00  0.00    -0.258 N 
ATOM     13  H   UNL     1       0.917  -2.227  -0.024  0.00  0.00    +0.170 HD
BRANCH  12  18
ATOM     14  C   UNL     1      -0.025   1.413  -0.641  0.00  0.00    +0.129 C 
ATOM     15  N   UNL     1      -0.003  -0.035  -0.421  0.00  0.00    -0.301 N 
ATOM     16  C   UNL     1      -1.159  -0.716  -0.299  0.00  0.00    +0.316 C 
ATOM     17  O   UNL     1      -2.221  -0.129  -0.371  0.00  0.00    -0.251 OA
ATOM     18  N   UNL     1      -1.139  -2.048  -0.097  0.00  0.00    -0.220 N 
ATOM     19  H   UNL     1       0.845  -0.504  -0.363  0.00  0.00    +0.150 HD
ATOM     20  H   UNL     1      -1.971  -2.538  -0.009  0.00  0.00    +0.174 HD
ENDBRANCH  12  18
ENDBRANCH   1  12
TORSDOF 2
