REMARK  Name = ZINC26535626
REMARK  5 active torsions:
REMARK  status: ('A' for Active; 'I' for Inactive)
REMARK    1  A    between atoms: C_7  and  C_11
REMARK    2  A    between atoms: C_11  and  C_12
REMARK    3  A    between atoms: N_14  and  N_15
REMARK    4  A    between atoms: C_16  and  C_18
REMARK    5  A    between atoms: C_18  and  C_19
REMARK                            x       y       z     vdW  Elec       q    Type
REMARK                         _______ _______ _______ _____ _____    ______ ____
ROOT
ATOM      1  N   UNL     1      -2.413   7.957   3.042  0.00  0.00    -0.234 N 
ATOM      2  C   UNL     1      -3.294   8.944   3.300  0.00  0.00    +0.231 C 
ATOM      3  O   UNL     1      -3.757   9.597   2.390  0.00  0.00    -0.274 OA
ATOM      4  H   UNL     1      -1.992   7.365   3.868  0.00  0.00    +0.173 HD
ENDROOT
BRANCH   1   7
ATOM      5  C   UNL     1      -1.151   6.700   1.462  0.00  0.00    +0.233 C 
ATOM      6  O   UNL     1      -0.688   6.046   2.373  0.00  0.00    -0.274 OA
ATOM      7  N   UNL     1      -2.032   7.686   1.721  0.00  0.00    -0.234 N 
ATOM      8  H   UNL     1      -2.452   8.279   0.895  0.00  0.00    +0.173 HD
BRANCH   5   9
ATOM      9  C   UNL     1      -0.741   6.409   0.042  0.00  0.00    +0.134 C 
BRANCH   9  16
ATOM     10  C   UNL     1      -1.228   1.746   0.017  0.00  0.00    +0.001 A 
ATOM     11  C   UNL     1      -0.013   1.076   0.008  0.00  0.00    +0.002 A 
ATOM     12  C   UNL     1       1.175   1.774   0.000  0.00  0.00    +0.026 A 
ATOM     13  C   UNL     1       1.159   3.165   0.007  0.00  0.00    +0.047 A 
ATOM     14  C   UNL     1      -0.075   3.840   0.022  0.00  0.00    +0.003 A 
ATOM     15  C   UNL     1      -1.267   3.112   0.030  0.00  0.00    +0.010 A 
ATOM     16  C   UNL     1       0.245   5.269   0.027  0.00  0.00    -0.014 A 
ATOM     17  C   UNL     1       1.583   5.372   0.015  0.00  0.00    +0.087 A 
ATOM     18  N   UNL     1       2.146   4.125   0.003  0.00  0.00    -0.360 N 
ATOM     19  H   UNL     1       3.205   3.825  -0.008  0.00  0.00    +0.165 HD
ENDBRANCH   9  16
ENDBRANCH   5   9
ENDBRANCH   1   7
BRANCH   2  20
ATOM     20  C   UNL     1      -3.703   9.235   4.721  0.00  0.00    +0.121 C 
BRANCH  20  21
ATOM     21  C   UNL     1      -4.704  10.392   4.736  0.00  0.00    +0.146 C 
ATOM     22  C   UNL     1      -5.024  10.768   6.160  0.00  0.00    +0.231 C 
ATOM     23  O   UNL     1      -4.442  11.713   6.652  0.00  0.00    -0.274 OA
ATOM     24  N   UNL     1      -5.910  10.115   6.903  0.00  0.00    -0.284 N 
ATOM     25  C   UNL     1      -6.749   9.086   6.486  0.00  0.00    +0.047 A 
ATOM     26  C   UNL     1      -7.380   8.292   7.438  0.00  0.00    +0.024 A 
ATOM     27  C   UNL     1      -8.212   7.262   7.046  0.00  0.00    +0.002 A 
ATOM     28  C   UNL     1      -8.435   7.013   5.704  0.00  0.00    +0.001 A 
ATOM     29  C   UNL     1      -7.829   7.806   4.747  0.00  0.00    +0.016 A 
ATOM     30  C   UNL     1      -6.997   8.842   5.135  0.00  0.00    +0.030 A 
ATOM     31  S   UNL     1      -6.246   9.879   3.918  0.00  0.00    -0.110 S 
ATOM     32  H   UNL     1      -6.035  10.374   7.965  0.00  0.00    +0.155 HD
ENDBRANCH  20  21
ENDBRANCH   2  20
TORSDOF 5
