REMARK  Name = ZINC45442612
REMARK  8 active torsions:
REMARK  status: ('A' for Active; 'I' for Inactive)
REMARK    1  A    between atoms: C_4  and  C_7
REMARK    2  A    between atoms: C_7  and  C_8
REMARK    3  A    between atoms: C_8  and  C_31
REMARK    4  A    between atoms: N_11  and  C_15
REMARK    5  A    between atoms: C_15  and  C_16
REMARK    6  A    between atoms: N_18  and  C_19
REMARK    7  A    between atoms: C_19  and  C_20
REMARK    8  A    between atoms: N_22  and  C_23
REMARK                            x       y       z     vdW  Elec       q    Type
REMARK                         _______ _______ _______ _____ _____    ______ ____
ROOT
ATOM      1  C   UNL     1       4.165  -0.987   1.388  0.00  0.00    +0.142 C 
ATOM      2  C   UNL     1       3.140  -1.813   2.139  0.00  0.00    +0.252 C 
ATOM      3  O   UNL     1       2.767  -2.935   1.872  0.00  0.00    -0.272 OA
ATOM      4  N   UNL     1       2.731  -1.041   3.165  0.00  0.00    -0.215 N 
ATOM      5  C   UNL     1       3.348   0.146   3.166  0.00  0.00    +0.310 C 
ATOM      6  O   UNL     1       3.145   1.012   3.994  0.00  0.00    -0.252 OA
ATOM      7  N   UNL     1       4.220   0.273   2.149  0.00  0.00    -0.281 N 
ATOM      8  H   UNL     1       4.775   1.044   1.955  0.00  0.00    +0.152 HD
ENDROOT
BRANCH   1   9
ATOM      9  C   UNL     1       5.509  -1.669   1.395  0.00  0.00    -0.015 A 
ATOM     10  C   UNL     1       5.868  -2.500   0.350  0.00  0.00    +0.006 A 
ATOM     11  C   UNL     1       7.100  -3.125   0.357  0.00  0.00    +0.000 A 
ATOM     12  C   UNL     1       7.975  -2.919   1.407  0.00  0.00    +0.000 A 
ATOM     13  C   UNL     1       7.616  -2.087   2.452  0.00  0.00    +0.000 A 
ATOM     14  C   UNL     1       6.385  -1.458   2.443  0.00  0.00    +0.006 A 
ENDBRANCH   1   9
BRANCH   1  15
ATOM     15  C   UNL     1       3.702  -0.729  -0.047  0.00  0.00    +0.075 C 
BRANCH  15  19
ATOM     16  C   UNL     1      -0.012   1.381   0.011  0.00  0.00    +0.000 A 
ATOM     17  C   UNL     1       1.180   2.081  -0.002  0.00  0.00    +0.000 A 
ATOM     18  C   UNL     1       2.382   1.398  -0.020  0.00  0.00    +0.004 A 
ATOM     19  C   UNL     1       2.392   0.016  -0.026  0.00  0.00    -0.045 A 
ATOM     20  C   UNL     1       1.200  -0.684  -0.013  0.00  0.00    +0.004 A 
ATOM     21  C   UNL     1      -0.002  -0.001   0.004  0.00  0.00    +0.000 A 
ENDBRANCH  15  19
ENDBRANCH   1  15
BRANCH   4  22
ATOM     22  C   UNL     1       1.732  -1.450   4.155  0.00  0.00    +0.213 C 
BRANCH  22  23
ATOM     23  C   UNL     1       2.421  -2.129   5.311  0.00  0.00    +0.231 C 
ATOM     24  O   UNL     1       3.627  -2.258   5.308  0.00  0.00    -0.274 OA
ATOM     25  N   UNL     1       1.696  -2.593   6.349  0.00  0.00    -0.305 N 
ATOM     26  H   UNL     1       0.732  -2.490   6.352  0.00  0.00    +0.149 HD
BRANCH  25  27
ATOM     27  C   UNL     1       2.365  -3.253   7.473  0.00  0.00    +0.200 C 
BRANCH  27  28
ATOM     28  C   UNL     1       1.338  -3.674   8.492  0.00  0.00    +0.234 C 
ATOM     29  O   UNL     1       0.163  -3.446   8.299  0.00  0.00    -0.274 OA
ATOM     30  N   UNL     1       1.726  -4.305   9.618  0.00  0.00    -0.284 N 
ATOM     31  H   UNL     1       2.657  -4.547   9.743  0.00  0.00    +0.155 HD
BRANCH  30  32
ATOM     32  C   UNL     1       0.784  -4.610  10.609  0.00  0.00    +0.036 A 
ATOM     33  C   UNL     1       1.143  -4.553  11.950  0.00  0.00    +0.026 A 
ATOM     34  C   UNL     1       0.214  -4.854  12.926  0.00  0.00    +0.043 A 
ATOM     35  C   UNL     1      -1.075  -5.212  12.571  0.00  0.00    +0.159 A 
ATOM     36  C   UNL     1      -1.436  -5.270  11.233  0.00  0.00    +0.160 A 
ATOM     37  C   UNL     1      -0.510  -4.964  10.253  0.00  0.00    +0.064 A 
ATOM     38  F   UNL     1      -2.694  -5.620  10.887  0.00  0.00    -0.202 F 
ATOM     39  F   UNL     1      -1.982  -5.507  13.528  0.00  0.00    -0.202 F 
ENDBRANCH  30  32
ENDBRANCH  27  28
ENDBRANCH  25  27
ENDBRANCH  22  23
ENDBRANCH   4  22
TORSDOF 8
