REMARK  Name = ZINC08789048
REMARK  3 active torsions:
REMARK  status: ('A' for Active; 'I' for Inactive)
REMARK    1  A    between atoms: C_7  and  C_11
REMARK    2  A    between atoms: C_11  and  C_12
REMARK    3  A    between atoms: N_20  and  C_23
REMARK                            x       y       z     vdW  Elec       q    Type
REMARK                         _______ _______ _______ _____ _____    ______ ____
ROOT
ATOM      1  C   UNL     1       5.618   3.627  -0.658  0.00  0.00    -0.053 C 
ATOM      2  C   UNL     1       5.209   3.773   0.823  0.00  0.00    +0.074 C 
ATOM      3  C   UNL     1       4.096   2.709   1.036  0.00  0.00    +0.088 C 
ATOM      4  C   UNL     1       2.872   3.544   1.338  0.00  0.00    +0.229 C 
ATOM      5  O   UNL     1       1.768   3.105   1.580  0.00  0.00    -0.275 OA
ATOM      6  N   UNL     1       3.196   4.841   1.297  0.00  0.00    -0.210 N 
ATOM      7  C   UNL     1       4.481   5.084   1.013  0.00  0.00    +0.228 C 
ATOM      8  O   UNL     1       4.983   6.184   0.922  0.00  0.00    -0.275 OA
ATOM      9  C   UNL     1       3.937   2.038  -0.334  0.00  0.00    +0.050 C 
ATOM     10  C   UNL     1       2.507   1.666  -0.604  0.00  0.00    -0.028 A 
ATOM     11  C   UNL     1       1.336   2.388  -0.675  0.00  0.00    +0.004 A 
ATOM     12  C   UNL     1       0.142   1.745  -0.951  0.00  0.00    +0.000 A 
ATOM     13  C   UNL     1       0.128   0.377  -1.155  0.00  0.00    +0.002 A 
ATOM     14  C   UNL     1       1.298  -0.350  -1.084  0.00  0.00    +0.023 A 
ATOM     15  C   UNL     1       2.504   0.289  -0.806  0.00  0.00    +0.036 A 
ATOM     16  N   UNL     1       3.799  -0.220  -0.682  0.00  0.00    -0.286 N 
ATOM     17  C   UNL     1       4.699   0.743  -0.404  0.00  0.00    +0.211 C 
ATOM     18  O   UNL     1       5.891   0.595  -0.241  0.00  0.00    -0.277 OA
ATOM     19  H   UNL     1       4.024  -1.158  -0.784  0.00  0.00    +0.155 HD
ATOM     20  N   UNL     1       4.452   3.004  -1.288  0.00  0.00    +0.394 N 
ATOM     21  H   UNL     1       4.729   2.531  -2.157  0.00  0.00    -0.083 HD
ATOM     22  H   UNL     1       3.740   3.713  -1.496  0.00  0.00    -0.083 HD
ENDROOT
BRANCH   6  23
ATOM     23  C   UNL     1       2.265   5.863   1.533  0.00  0.00    +0.044 A 
ATOM     24  C   UNL     1       1.896   6.718   0.503  0.00  0.00    +0.025 A 
ATOM     25  C   UNL     1       0.975   7.721   0.737  0.00  0.00    +0.022 A 
ATOM     26  C   UNL     1       0.429   7.880   1.998  0.00  0.00    +0.041 A 
ATOM     27  C   UNL     1       0.800   7.033   3.027  0.00  0.00    +0.022 A 
ATOM     28  C   UNL     1       1.716   6.025   2.797  0.00  0.00    +0.025 A 
ATOM     29 CL   UNL     1      -0.723   9.146   2.290  0.00  0.00    -0.084 Cl
ENDBRANCH   6  23
BRANCH   1  30
ATOM     30  C   UNL     1       5.914   5.000  -1.266  0.00  0.00    +0.022 C 
BRANCH  30  37
ATOM     31  C   UNL     1       3.588   4.588  -5.315  0.00  0.00    +0.001 A 
ATOM     32  C   UNL     1       4.430   4.450  -6.410  0.00  0.00    +0.002 A 
ATOM     33  C   UNL     1       5.798   4.443  -6.249  0.00  0.00    +0.026 A 
ATOM     34  C   UNL     1       6.344   4.575  -4.977  0.00  0.00    +0.047 A 
ATOM     35  C   UNL     1       5.487   4.715  -3.870  0.00  0.00    +0.003 A 
ATOM     36  C   UNL     1       4.103   4.719  -4.056  0.00  0.00    +0.010 A 
ATOM     37  C   UNL     1       6.357   4.831  -2.697  0.00  0.00    -0.024 A 
ATOM     38  C   UNL     1       7.622   4.764  -3.139  0.00  0.00    +0.087 A 
ATOM     39  N   UNL     1       7.635   4.606  -4.498  0.00  0.00    -0.360 N 
ATOM     40  H   UNL     1       8.433   4.531  -5.043  0.00  0.00    +0.165 HD
ENDBRANCH  30  37
ENDBRANCH   1  30
TORSDOF 3
