REMARK  Name = ZINC02650032
REMARK  4 active torsions:
REMARK  status: ('A' for Active; 'I' for Inactive)
REMARK    1  A    between atoms: C_1  and  C_2
REMARK    2  A    between atoms: C_9  and  S_12
REMARK    3  A    between atoms: S_12  and  C_13
REMARK    4  A    between atoms: C_13  and  C_14
REMARK                            x       y       z     vdW  Elec       q    Type
REMARK                         _______ _______ _______ _____ _____    ______ ____
ROOT
ATOM      1  C   UNL     1      -1.315  -0.737   0.011  0.00  0.00    +0.151 C 
ENDROOT
BRANCH   1   2
ATOM      2  C   UNL     1       0.002  -0.004   0.002  0.00  0.00    +0.121 A 
ATOM      3  N   UNL     1       1.147  -0.736  -0.012  0.00  0.00    -0.310 N 
ATOM      4  H   UNL     1       1.096  -1.734  -0.017  0.00  0.00    +0.170 HD
ATOM      5  C   UNL     1       2.355  -0.125  -0.021  0.00  0.00    +0.259 A 
ATOM      6  O   UNL     1       3.388  -0.768  -0.035  0.00  0.00    -0.267 OA
ATOM      7  C   UNL     1       2.370   1.345  -0.014  0.00  0.00    +0.065 A 
ATOM      8  C   UNL     1       3.560   2.070  -0.021  0.00  0.00    +0.015 A 
ATOM      9  C   UNL     1       3.516   3.447  -0.013  0.00  0.00    +0.001 A 
ATOM     10  C   UNL     1       2.299   4.115   0.001  0.00  0.00    +0.002 A 
ATOM     11  C   UNL     1       1.112   3.417   0.009  0.00  0.00    +0.028 A 
ATOM     12  C   UNL     1       1.130   2.021   0.002  0.00  0.00    +0.078 A 
ATOM     13  N   UNL     1      -0.015   1.294   0.009  0.00  0.00    -0.233 NA
ENDBRANCH   1   2
BRANCH   1  14
ATOM     14  S   UNL     1      -2.672   0.461   0.030  0.00  0.00    -0.080 S 
BRANCH  14  23
ATOM     15  C   UNL     1      -7.583  -5.431   0.044  0.00  0.00    +0.044 C 
ATOM     16  C   UNL     1      -7.061  -4.017   0.047  0.00  0.00    -0.048 A 
ATOM     17  C   UNL     1      -7.953  -2.955   0.062  0.00  0.00    +0.005 A 
ATOM     18  C   UNL     1      -7.491  -1.655   0.064  0.00  0.00    +0.028 A 
ATOM     19  C   UNL     1      -6.127  -1.407   0.052  0.00  0.00    +0.067 A 
ATOM     20  C   UNL     1      -5.219  -2.479   0.038  0.00  0.00    +0.090 A 
ATOM     21  C   UNL     1      -5.703  -3.790   0.035  0.00  0.00    +0.033 A 
ATOM     22  N   UNL     1      -3.970  -1.946   0.024  0.00  0.00    -0.222 NA
ATOM     23  C   UNL     1      -4.049  -0.638   0.037  0.00  0.00    +0.168 A 
ATOM     24  N   UNL     1      -5.360  -0.253   0.052  0.00  0.00    -0.333 N 
ATOM     25  H   UNL     1      -5.703   0.687   0.060  0.00  0.00    +0.168 HD
ENDBRANCH  14  23
ENDBRANCH   1  14
TORSDOF 3
