REMARK  Name = ZINC16022236
REMARK  8 active torsions:
REMARK  status: ('A' for Active; 'I' for Inactive)
REMARK    1  A    between atoms: C_1  and  C_2
REMARK    2  A    between atoms: C_2  and  C_3
REMARK    3  A    between atoms: C_2  and  C_4
REMARK    4  A    between atoms: C_4  and  C_5
REMARK    5  A    between atoms: N_13  and  C_16
REMARK    6  A    between atoms: C_16  and  C_17
REMARK    7  A    between atoms: C_16  and  C_18
REMARK    8  A    between atoms: C_16  and  C_19
REMARK                            x       y       z     vdW  Elec       q    Type
REMARK                         _______ _______ _______ _____ _____    ______ ____
ROOT
ATOM      1  C   UNL     1      -1.416  -2.058  -0.121  0.00  0.00    -0.057 C 
ATOM      2  C   UNL     1      -2.849  -2.622  -0.026  0.00  0.00    +0.073 C 
ATOM      3  C   UNL     1      -2.883  -3.798  -1.042  0.00  0.00    +0.088 C 
ATOM      4  C   UNL     1      -3.064  -5.014  -0.162  0.00  0.00    +0.225 C 
ATOM      5  O   UNL     1      -3.137  -6.158  -0.555  0.00  0.00    -0.275 OA
ATOM      6  N   UNL     1      -3.131  -4.631   1.118  0.00  0.00    -0.236 N 
ATOM      7  C   UNL     1      -3.028  -3.296   1.316  0.00  0.00    +0.224 C 
ATOM      8  O   UNL     1      -3.069  -2.727   2.386  0.00  0.00    -0.275 OA
ATOM      9  C   UNL     1      -1.487  -3.801  -1.675  0.00  0.00    +0.050 C 
ATOM     10  N   UNL     1      -0.938  -2.453  -1.473  0.00  0.00    +0.394 N 
ATOM     11  C   UNL     1      -1.542  -4.178  -3.129  0.00  0.00    -0.026 A 
ATOM     12  C   UNL     1      -2.181  -3.641  -4.224  0.00  0.00    +0.024 A 
ATOM     13  C   UNL     1      -2.034  -4.228  -5.469  0.00  0.00    +0.041 A 
ATOM     14  C   UNL     1      -1.243  -5.356  -5.609  0.00  0.00    +0.022 A 
ATOM     15  C   UNL     1      -0.602  -5.897  -4.514  0.00  0.00    +0.025 A 
ATOM     16  C   UNL     1      -0.745  -5.312  -3.258  0.00  0.00    +0.036 A 
ATOM     17  N   UNL     1      -0.207  -5.668  -2.019  0.00  0.00    -0.286 N 
ATOM     18  C   UNL     1      -0.596  -4.832  -1.037  0.00  0.00    +0.211 C 
ATOM     19  O   UNL     1      -0.286  -4.896   0.134  0.00  0.00    -0.277 OA
ATOM     20 CL   UNL     1      -2.839  -3.552  -6.851  0.00  0.00    -0.084 Cl
ATOM     21  H   UNL     1      -1.303  -1.825  -2.174  0.00  0.00    -0.083 HD
ATOM     22  H   UNL     1       0.379  -6.429  -1.881  0.00  0.00    +0.155 HD
ATOM     23  H   UNL     1       0.071  -2.467  -1.500  0.00  0.00    -0.083 HD
ENDROOT
BRANCH   6  24
ATOM     24  C   UNL     1      -3.309  -5.579   2.221  0.00  0.00    +0.036 C 
ATOM     25  C   UNL     1      -2.144  -6.571   2.233  0.00  0.00    +0.031 C 
ATOM     26  C   UNL     1      -3.344  -4.818   3.547  0.00  0.00    +0.031 C 
ATOM     27  C   UNL     1      -4.624  -6.338   2.033  0.00  0.00    +0.031 C 
ENDBRANCH   6  24
BRANCH   1  28
ATOM     28  C   UNL     1      -1.433  -0.534   0.013  0.00  0.00    -0.012 C 
BRANCH  28  30
ATOM     29  C   UNL     1      -0.019   1.526   0.010  0.00  0.00    +0.007 C 
ATOM     30  C   UNL     1       0.002  -0.004   0.002  0.00  0.00    -0.019 C 
ATOM     31  C   UNL     1       0.742  -0.511   1.242  0.00  0.00    +0.007 C 
ENDBRANCH  28  30
ENDBRANCH   1  28
TORSDOF 3
