REMARK  Name = ZINC28048633
REMARK  9 active torsions:
REMARK  status: ('A' for Active; 'I' for Inactive)
REMARK    1  A    between atoms: C_1  and  C_2
REMARK    2  A    between atoms: C_2  and  O_3
REMARK    3  A    between atoms: O_3  and  C_4
REMARK    4  A    between atoms: C_4  and  C_6
REMARK    5  A    between atoms: C_9  and  C_12
REMARK    6  A    between atoms: C_12  and  N_13
REMARK    7  A    between atoms: N_16  and  C_17
REMARK    8  A    between atoms: C_26  and  O_27
REMARK    9  A    between atoms: N_28  and  C_29
REMARK                            x       y       z     vdW  Elec       q    Type
REMARK                         _______ _______ _______ _____ _____    ______ ____
ROOT
ATOM      1  C   UNL     1       3.743   3.894   0.111  0.00  0.00    +0.140 A 
ATOM      2  C   UNL     1       3.188   3.268   1.213  0.00  0.00    +0.075 A 
ATOM      3  C   UNL     1       3.074   4.042   2.459  0.00  0.00    +0.042 A 
ATOM      4  C   UNL     1       2.529   3.472   3.612  0.00  0.00    +0.013 A 
ATOM      5  C   UNL     1       2.441   4.220   4.765  0.00  0.00    +0.001 A 
ATOM      6  C   UNL     1       2.895   5.531   4.785  0.00  0.00    +0.004 A 
ATOM      7  C   UNL     1       3.439   6.103   3.655  0.00  0.00    +0.047 A 
ATOM      8  C   UNL     1       3.538   5.366   2.481  0.00  0.00    +0.141 A 
ATOM      9  O   UNL     1       4.069   5.915   1.367  0.00  0.00    -0.424 OA
ATOM     10  C   UNL     1       4.178   5.227   0.220  0.00  0.00    +0.309 A 
ATOM     11  N   UNL     1       2.749   1.959   1.143  0.00  0.00    -0.380 N 
ATOM     12  H   UNL     1       1.774   1.729   0.690  0.00  0.00    +0.160 HD
ENDROOT
BRANCH   1  16
ATOM     13  N   UNL     1       5.209   2.457  -2.870  0.00  0.00    -0.299 N 
ATOM     14  C   UNL     1       5.048   3.214  -1.767  0.00  0.00    +0.304 C 
ATOM     15  O   UNL     1       5.963   3.908  -1.367  0.00  0.00    -0.253 OA
ATOM     16  N   UNL     1       3.873   3.203  -1.108  0.00  0.00    -0.262 N 
ATOM     17  H   UNL     1       4.381   1.829  -3.232  0.00  0.00    +0.150 HD
ATOM     18  H   UNL     1       3.014   2.654  -1.522  0.00  0.00    +0.157 HD
BRANCH  13  19
ATOM     19  C   UNL     1       6.486   2.469  -3.587  0.00  0.00    +0.109 C 
BRANCH  19  23
ATOM     20  C   UNL     1       7.432  -0.742  -6.330  0.00  0.00    +0.098 C 
ATOM     21  C   UNL     1       7.609   0.698  -6.817  0.00  0.00    +0.015 C 
ATOM     22  C   UNL     1       7.692   1.637  -5.612  0.00  0.00    +0.006 C 
ATOM     23  C   UNL     1       6.404   1.530  -4.793  0.00  0.00    +0.006 C 
ATOM     24  C   UNL     1       6.226   0.090  -4.306  0.00  0.00    +0.006 C 
ATOM     25  C   UNL     1       6.144  -0.849  -5.511  0.00  0.00    +0.015 C 
BRANCH  20  26
ATOM     26  C   UNL     1       7.350  -1.667  -7.517  0.00  0.00    +0.310 C 
ATOM     27  O   UNL     1       7.426  -1.220  -8.637  0.00  0.00    -0.251 OA
BRANCH  26  28
ATOM     28  O   UNL     1       7.193  -2.986  -7.330  0.00  0.00    -0.465 OA
BRANCH  28  30
ATOM     29  C   UNL     1       6.944  -5.280  -8.110  0.00  0.00    +0.048 C 
ATOM     30  C   UNL     1       7.123  -3.817  -8.519  0.00  0.00    +0.229 C 
ENDBRANCH  28  30
ENDBRANCH  26  28
ENDBRANCH  20  26
ENDBRANCH  19  23
ENDBRANCH  13  19
ENDBRANCH   1  16
BRANCH  11  31
ATOM     31  C   UNL     1       3.735   1.041   1.730  0.00  0.00    +0.079 C 
ATOM     32  C   UNL     1       3.041  -0.258   2.143  0.00  0.00    +0.024 C 
ATOM     33  C   UNL     1       4.068  -1.213   2.753  0.00  0.00    +0.002 C 
ATOM     34  C   UNL     1       5.154  -1.522   1.721  0.00  0.00    +0.000 C 
ATOM     35  C   UNL     1       5.849  -0.223   1.308  0.00  0.00    +0.002 C 
ATOM     36  C   UNL     1       4.822   0.733   0.698  0.00  0.00    +0.024 C 
ENDBRANCH  11  31
BRANCH  10  37
ATOM     37  O   UNL     1       4.667   5.773  -0.755  0.00  0.00    -0.479 OA
ATOM     38  H   UNL     1       5.011   6.815  -0.686  0.00  0.00    +0.295 HD
ENDBRANCH  10  37
TORSDOF 8
