REMARK  Name = ZINC39779271
REMARK  4 active torsions:
REMARK  status: ('A' for Active; 'I' for Inactive)
REMARK    1  A    between atoms: C_3  and  C_8
REMARK    2  A    between atoms: C_10  and  C_13
REMARK    3  A    between atoms: C_13  and  S_14
REMARK    4  A    between atoms: S_14  and  C_15
REMARK                            x       y       z     vdW  Elec       q    Type
REMARK                         _______ _______ _______ _____ _____    ______ ____
ROOT
ATOM      1  C   UNL     1       3.657   2.162  -0.022  0.00  0.00    +0.109 A 
ATOM      2  N   UNL     1       4.903   1.710  -0.042  0.00  0.00    -0.243 NA
ATOM      3  C   UNL     1       5.926   2.532  -0.047  0.00  0.00    +0.059 A 
ATOM      4  C   UNL     1       5.716   3.875  -0.032  0.00  0.00    +0.071 A 
ATOM      5  S   UNL     1       3.928   3.929  -0.016  0.00  0.00    -0.075 S 
ENDROOT
BRANCH   1   8
ATOM      6  C   UNL     1      -0.017   1.379   0.010  0.00  0.00    +0.002 A 
ATOM      7  C   UNL     1       1.167   2.088   0.002  0.00  0.00    +0.010 A 
ATOM      8  C   UNL     1       2.385   1.408  -0.013  0.00  0.00    +0.008 A 
ATOM      9  C   UNL     1       2.398   0.012  -0.021  0.00  0.00    +0.025 A 
ATOM     10  C   UNL     1       1.207  -0.686  -0.013  0.00  0.00    +0.019 A 
ATOM     11  C   UNL     1       0.002  -0.004   0.002  0.00  0.00    +0.015 A 
ATOM     12 BR   UNL     1       1.222  -2.577  -0.024  0.00  0.00    -0.050 Br
ENDBRANCH   1   8
BRANCH   3  13
ATOM     13  C   UNL     1       7.331   1.988  -0.069  0.00  0.00    +0.133 C 
BRANCH  13  14
ATOM     14  S   UNL     1       7.874   1.786  -1.788  0.00  0.00    -0.082 S 
BRANCH  14  15
ATOM     15  C   UNL     1       9.511   1.151  -1.646  0.00  0.00    +0.182 C 
ATOM     16  N   UNL     1      10.005   0.949  -0.436  0.00  0.00    -0.151 NA
ATOM     17  C   UNL     1      11.232   0.472  -0.230  0.00  0.00    +0.272 C 
ATOM     18  O   UNL     1      11.656   0.297   0.900  0.00  0.00    -0.268 OA
ATOM     19  C   UNL     1      12.075   0.157  -1.429  0.00  0.00    +0.068 C 
ATOM     20  C   UNL     1      13.324  -0.327  -1.458  0.00  0.00    -0.000 C 
ATOM     21  C   UNL     1      13.958  -0.560  -2.810  0.00  0.00    +0.104 C 
ATOM     22  S   UNL     1      12.615  -0.029  -3.948  0.00  0.00    -0.101 S 
ATOM     23  C   UNL     1      11.412   0.426  -2.724  0.00  0.00    +0.112 C 
ATOM     24  N   UNL     1      10.191   0.893  -2.764  0.00  0.00    -0.217 NA
ENDBRANCH  14  15
ENDBRANCH  13  14
ENDBRANCH   3  13
TORSDOF 4
