REMARK  Name = ZINC39457190
REMARK  5 active torsions:
REMARK  status: ('A' for Active; 'I' for Inactive)
REMARK    1  A    between atoms: C_1  and  C_2
REMARK    2  A    between atoms: C_3  and  O_29
REMARK    3  A    between atoms: N_6  and  C_7
REMARK    4  A    between atoms: C_12  and  O_13
REMARK    5  A    between atoms: O_29  and  C_30
REMARK                            x       y       z     vdW  Elec       q    Type
REMARK                         _______ _______ _______ _____ _____    ______ ____
ROOT
ATOM      1  C   UNL     1      -0.018   1.503   0.010  0.00  0.00    +0.068 C 
ATOM      2  C   UNL     1       0.002  -0.004   0.002  0.00  0.00    +0.063 A 
ATOM      3  C   UNL     1       0.008  -0.791  -1.105  0.00  0.00    +0.145 A 
ATOM      4  C   UNL     1       0.025  -2.123  -0.680  0.00  0.00    +0.022 A 
ATOM      5  C   UNL     1       0.045  -2.109   0.693  0.00  0.00    +0.080 A 
ATOM      6  N   UNL     1       0.024  -0.809   1.108  0.00  0.00    -0.305 N 
ATOM      7  C   UNL     1       0.111  -3.344   1.495  0.00  0.00    +0.101 A 
ATOM      8  C   UNL     1       1.071  -4.364   1.047  0.00  0.00    +0.064 A 
ATOM      9  C   UNL     1       1.149  -5.563   1.740  0.00  0.00    +0.063 A 
ATOM     10  C   UNL     1       0.310  -5.729   2.861  0.00  0.00    +0.019 A 
ATOM     11  C   UNL     1       0.340  -6.923   3.602  0.00  0.00    +0.011 A 
ATOM     12  C   UNL     1      -0.464  -7.062   4.692  0.00  0.00    +0.001 A 
ATOM     13  C   UNL     1      -1.320  -6.035   5.083  0.00  0.00    +0.002 A 
ATOM     14  C   UNL     1      -1.381  -4.869   4.385  0.00  0.00    +0.028 A 
ATOM     15  C   UNL     1      -0.569  -4.688   3.249  0.00  0.00    +0.073 A 
ATOM     16  N   UNL     1      -0.639  -3.545   2.553  0.00  0.00    -0.244 NA
ATOM     17 CL   UNL     1       2.241  -6.818   1.242  0.00  0.00    -0.082 Cl
ATOM     18  C   UNL     1       1.923  -4.061  -0.100  0.00  0.00    +0.167 C 
ATOM     19  O   UNL     1       3.095  -3.803   0.080  0.00  0.00    -0.292 OA
ATOM     20  C   UNL     1       1.372  -4.065  -1.508  0.00  0.00    +0.084 C 
ATOM     21  C   UNL     1       0.004  -3.369  -1.520  0.00  0.00    +0.049 C 
ENDROOT
BRANCH   6  22
ATOM     22  C   UNL     1       0.020  -0.373   2.441  0.00  0.00    +0.089 A 
ATOM     23  C   UNL     1      -1.182  -0.188   3.109  0.00  0.00    +0.030 A 
ATOM     24  C   UNL     1      -1.183   0.242   4.422  0.00  0.00    +0.002 A 
ATOM     25  C   UNL     1       0.011   0.488   5.074  0.00  0.00    +0.004 A 
ATOM     26  C   UNL     1       1.212   0.307   4.415  0.00  0.00    +0.047 A 
ATOM     27  C   UNL     1       1.223  -0.130   3.100  0.00  0.00    +0.141 A 
BRANCH  27  28
ATOM     28  O   UNL     1       2.404  -0.315   2.452  0.00  0.00    -0.505 OA
ATOM     29  H   UNL     1       2.726   0.471   1.990  0.00  0.00    +0.292 HD
ENDBRANCH  27  28
ENDBRANCH   6  22
BRANCH   3  30
ATOM     30  O   UNL     1       0.000  -0.360  -2.397  0.00  0.00    -0.493 OA
ATOM     31  C   UNL     1       1.269  -0.141  -3.016  0.00  0.00    +0.277 C 
ENDBRANCH   3  30
TORSDOF 3
