REMARK  Name = ZINC43221853
REMARK  9 active torsions:
REMARK  status: ('A' for Active; 'I' for Inactive)
REMARK    1  A    between atoms: C_1  and  C_2
REMARK    2  A    between atoms: C_7  and  N_8
REMARK    3  A    between atoms: C_13  and  C_28
REMARK    4  A    between atoms: C_16  and  C_21
REMARK    5  A    between atoms: C_16  and  C_25
REMARK    6  A    between atoms: C_21  and  C_23
REMARK    7  A    between atoms: C_21  and  O_24
REMARK    8  A    between atoms: C_33  and  O_34
REMARK    9  A    between atoms: O_34  and  C_35
REMARK                            x       y       z     vdW  Elec       q    Type
REMARK                         _______ _______ _______ _____ _____    ______ ____
ROOT
ATOM      1  N   UNL     1      -0.105   0.111   2.662  0.00  0.00    -0.210 N 
ATOM      2  C   UNL     1      -1.166   0.530   3.424  0.00  0.00    +0.229 C 
ATOM      3  O   UNL     1      -2.329   0.204   3.318  0.00  0.00    -0.275 OA
ATOM      4  C   UNL     1      -0.589   1.447   4.379  0.00  0.00    +0.077 C 
ATOM      5  C   UNL     1      -0.900   2.072   5.673  0.00  0.00    -0.023 C 
ATOM      6  N   UNL     1       0.430   2.534   6.190  0.00  0.00    +0.397 N 
ATOM      7  C   UNL     1       1.479   2.049   5.235  0.00  0.00    +0.074 C 
ATOM      8  C   UNL     1       0.820   0.783   4.648  0.00  0.00    +0.089 C 
ATOM      9  C   UNL     1       1.103   0.434   3.213  0.00  0.00    +0.229 C 
ATOM     10  O   UNL     1       2.181   0.441   2.659  0.00  0.00    -0.275 OA
ATOM     11  H   UNL     1       0.448   3.542   6.237  0.00  0.00    -0.083 HD
ATOM     12  H   UNL     1       0.595   2.145   7.106  0.00  0.00    -0.083 HD
ENDROOT
BRANCH   1  19
ATOM     13  C   UNL     1      -0.255   1.624   0.256  0.00  0.00    +0.045 C 
ATOM     14  C   UNL     1      -0.321   0.118   0.254  0.00  0.00    -0.029 A 
ATOM     15  C   UNL     1      -0.453  -0.566  -0.938  0.00  0.00    +0.005 A 
ATOM     16  C   UNL     1      -0.514  -1.948  -0.940  0.00  0.00    +0.000 A 
ATOM     17  C   UNL     1      -0.442  -2.648   0.250  0.00  0.00    +0.002 A 
ATOM     18  C   UNL     1      -0.310  -1.968   1.445  0.00  0.00    +0.024 A 
ATOM     19  C   UNL     1      -0.244  -0.582   1.450  0.00  0.00    +0.047 A 
ENDBRANCH   1  19
BRANCH   5  20
ATOM     20  C   UNL     1      -1.513   1.064   6.611  0.00  0.00    -0.018 A 
ATOM     21  C   UNL     1      -0.708   0.345   7.474  0.00  0.00    +0.021 A 
ATOM     22  C   UNL     1      -1.270  -0.580   8.336  0.00  0.00    +0.018 A 
ATOM     23  C   UNL     1      -2.638  -0.787   8.335  0.00  0.00    +0.019 A 
ATOM     24  C   UNL     1      -3.446  -0.070   7.474  0.00  0.00    +0.047 A 
ATOM     25  C   UNL     1      -2.885   0.862   6.612  0.00  0.00    +0.122 A 
ATOM     26 BR   UNL     1      -0.167  -1.562   9.516  0.00  0.00    -0.050 Br
BRANCH  25  27
ATOM     27  O   UNL     1      -3.678   1.572   5.768  0.00  0.00    -0.495 OA
ATOM     28  C   UNL     1      -5.082   1.311   5.824  0.00  0.00    +0.277 C 
ENDBRANCH  25  27
ENDBRANCH   5  20
BRANCH   7  29
ATOM     29  C   UNL     1       2.745   1.691   5.969  0.00  0.00    +0.349 C 
ATOM     30  O   UNL     1       2.813   1.842   7.177  0.00  0.00    -0.248 OA
ATOM     31  O   UNL     1       3.702   1.252   5.355  0.00  0.00    -0.248 OA
ENDBRANCH   7  29
BRANCH   7  32
ATOM     32  C   UNL     1       1.754   3.097   4.155  0.00  0.00    +0.112 C 
ATOM     33  C   UNL     1       2.168   4.414   4.815  0.00  0.00    +0.037 C 
BRANCH  32  34
ATOM     34  O   UNL     1       2.807   2.639   3.304  0.00  0.00    -0.393 OA
ATOM     35  H   UNL     1       3.642   2.478   3.765  0.00  0.00    +0.210 HD
ENDBRANCH  32  34
ENDBRANCH   7  32
TORSDOF 6
