REMARK  Name = ZINC61594033
REMARK  6 active torsions:
REMARK  status: ('A' for Active; 'I' for Inactive)
REMARK    1  A    between atoms: C_1  and  C_2
REMARK    2  A    between atoms: C_2  and  C_3
REMARK    3  A    between atoms: C_3  and  N_4
REMARK    4  A    between atoms: C_10  and  S_11
REMARK    5  A    between atoms: S_11  and  C_12
REMARK    6  A    between atoms: C_15  and  N_18
REMARK                            x       y       z     vdW  Elec       q    Type
REMARK                         _______ _______ _______ _____ _____    ______ ____
ROOT
ATOM      1  N   UNL     1      -1.405  -2.000   0.005  0.00  0.00    -0.270 N 
ATOM      2  C   UNL     1      -1.388  -2.783  -1.092  0.00  0.00    +0.345 A 
ATOM      3  O   UNL     1      -1.397  -2.402  -2.249  0.00  0.00    -0.245 OA
ATOM      4  N   UNL     1      -1.359  -4.066  -0.676  0.00  0.00    -0.226 N 
ATOM      5  H   UNL     1      -1.342  -4.853  -1.242  0.00  0.00    +0.194 HD
ATOM      6  N   UNL     1      -1.359  -4.053   0.726  0.00  0.00    -0.144 NA
ATOM      7  C   UNL     1      -1.381  -2.811   1.117  0.00  0.00    +0.197 A 
ENDROOT
BRANCH   1   8
ATOM      8  C   UNL     1      -1.436  -0.535   0.012  0.00  0.00    +0.129 C 
BRANCH   8  10
ATOM      9  C   UNL     1      -0.038   1.536   0.014  0.00  0.00    +0.005 C 
ATOM     10  C   UNL     1      -0.005   0.006   0.006  0.00  0.00    +0.018 C 
ENDBRANCH   8  10
ENDBRANCH   1   8
BRANCH   7  11
ATOM     11  S   UNL     1      -1.383  -2.261   2.791  0.00  0.00    -0.050 S 
BRANCH  11  12
ATOM     12  C   UNL     1      -1.503  -3.748   3.728  0.00  0.00    +0.016 A 
ATOM     13  C   UNL     1      -0.353  -4.358   4.212  0.00  0.00    +0.017 A 
ATOM     14  C   UNL     1      -0.448  -5.524   4.947  0.00  0.00    +0.024 A 
ATOM     15  C   UNL     1      -1.692  -6.085   5.201  0.00  0.00    +0.025 A 
ATOM     16  C   UNL     1      -2.842  -5.475   4.717  0.00  0.00    +0.024 A 
ATOM     17  C   UNL     1      -2.748  -4.307   3.988  0.00  0.00    +0.017 A 
BRANCH  15  18
ATOM     18  N   UNL     1      -1.787  -7.267   5.946  0.00  0.00    -0.358 N 
ATOM     19  H   UNL     1      -0.984  -7.693   6.284  0.00  0.00    +0.142 HD
ATOM     20  H   UNL     1      -2.656  -7.660   6.123  0.00  0.00    +0.142 HD
ENDBRANCH  15  18
ENDBRANCH  11  12
ENDBRANCH   7  11
TORSDOF 5
