REMARK  Name = ZINC47147661
REMARK  9 active torsions:
REMARK  status: ('A' for Active; 'I' for Inactive)
REMARK    1  A    between atoms: C_1  and  C_2
REMARK    2  A    between atoms: C_2  and  O_3
REMARK    3  A    between atoms: O_3  and  C_4
REMARK    4  A    between atoms: C_4  and  C_6
REMARK    5  A    between atoms: C_6  and  O_7
REMARK    6  A    between atoms: O_7  and  C_8
REMARK    7  A    between atoms: C_11  and  C_14
REMARK    8  A    between atoms: N_30  and  C_33
REMARK    9  A    between atoms: C_36  and  C_39
REMARK                            x       y       z     vdW  Elec       q    Type
REMARK                         _______ _______ _______ _____ _____    ______ ____
ROOT
ATOM      1  C   UNL     1       3.887  -6.541  -6.755  0.00  0.00    +0.072 C 
ATOM      2  C   UNL     1       5.099  -7.225  -6.234  0.00  0.00    +0.033 A 
ATOM      3  C   UNL     1       5.500  -8.495  -6.430  0.00  0.00    +0.088 A 
ATOM      4  N   UNL     1       6.697  -8.823  -5.835  0.00  0.00    -0.311 N 
ATOM      5  H   UNL     1       7.064  -9.714  -5.945  0.00  0.00    +0.170 HD
ATOM      6  C   UNL     1       7.358  -7.910  -5.101  0.00  0.00    +0.289 A 
ATOM      7  O   UNL     1       8.415  -8.037  -4.508  0.00  0.00    -0.260 OA
ATOM      8  S   UNL     1       6.374  -6.549  -5.200  0.00  0.00    -0.030 S 
ATOM      9  S   UNL     1       4.518  -9.635  -7.369  0.00  0.00    -0.093 S 
ATOM     10  C   UNL     1       3.358  -8.565  -8.278  0.00  0.00    +0.152 C 
ATOM     11  C   UNL     1       2.873  -7.426  -7.375  0.00  0.00    +0.110 C 
ATOM     12  C   UNL     1       1.844  -8.079  -6.508  0.00  0.00    +0.232 C 
ATOM     13  O   UNL     1       1.513  -7.747  -5.389  0.00  0.00    -0.274 OA
ATOM     14  N   UNL     1       1.357  -9.118  -7.228  0.00  0.00    -0.209 N 
ATOM     15  C   UNL     1       2.046  -9.365  -8.362  0.00  0.00    +0.240 C 
ATOM     16  O   UNL     1       1.701 -10.088  -9.272  0.00  0.00    -0.274 OA
ENDROOT
BRANCH  14  17
ATOM     17  C   UNL     1       0.234  -9.860  -6.836  0.00  0.00    +0.044 A 
ATOM     18  C   UNL     1      -0.437  -9.541  -5.663  0.00  0.00    +0.024 A 
ATOM     19  C   UNL     1      -1.543 -10.274  -5.280  0.00  0.00    +0.005 A 
ATOM     20  C   UNL     1      -1.981 -11.326  -6.063  0.00  0.00    -0.050 A 
ATOM     21  C   UNL     1      -1.315 -11.647  -7.231  0.00  0.00    +0.005 A 
ATOM     22  C   UNL     1      -0.212 -10.914  -7.623  0.00  0.00    +0.024 A 
ATOM     23  C   UNL     1      -3.188 -12.125  -5.641  0.00  0.00    +0.044 C 
ENDBRANCH  14  17
BRANCH   1  27
ATOM     24  C   UNL     1       2.038  -4.447  -3.521  0.00  0.00    +0.121 A 
ATOM     25  C   UNL     1       1.973  -3.934  -4.808  0.00  0.00    +0.046 A 
ATOM     26  C   UNL     1       2.572  -4.613  -5.852  0.00  0.00    +0.008 A 
ATOM     27  C   UNL     1       3.236  -5.803  -5.614  0.00  0.00    -0.038 A 
ATOM     28  C   UNL     1       3.301  -6.316  -4.332  0.00  0.00    +0.008 A 
ATOM     29  C   UNL     1       2.710  -5.638  -3.284  0.00  0.00    +0.046 A 
BRANCH  24  30
ATOM     30  O   UNL     1       1.450  -3.781  -2.492  0.00  0.00    -0.481 OA
BRANCH  30  31
ATOM     31  C   UNL     1       0.777  -2.562  -2.810  0.00  0.00    +0.349 C 
BRANCH  31  32
ATOM     32  C   UNL     1       0.192  -1.970  -1.554  0.00  0.00    +0.345 C 
ATOM     33  O   UNL     1       0.336  -2.534  -0.495  0.00  0.00    -0.247 OA
BRANCH  32  34
ATOM     34  O   UNL     1      -0.491  -0.815  -1.611  0.00  0.00    -0.463 OA
BRANCH  34  36
ATOM     35  C   UNL     1      -1.758   1.002  -0.644  0.00  0.00    +0.048 C 
ATOM     36  C   UNL     1      -1.018  -0.311  -0.382  0.00  0.00    +0.229 C 
ENDBRANCH  34  36
ENDBRANCH  32  34
ENDBRANCH  31  32
ENDBRANCH  30  31
ENDBRANCH  24  30
ENDBRANCH   1  27
TORSDOF 7
