REMARK  Name = ZINC12772322
REMARK  9 active torsions:
REMARK  status: ('A' for Active; 'I' for Inactive)
REMARK    1  A    between atoms: C_1  and  C_2
REMARK    2  A    between atoms: C_2  and  C_3
REMARK    3  A    between atoms: C_2  and  C_4
REMARK    4  A    between atoms: C_4  and  O_33
REMARK    5  A    between atoms: C_5  and  C_29
REMARK    6  A    between atoms: C_7  and  C_23
REMARK    7  A    between atoms: N_12  and  C_13
REMARK    8  A    between atoms: C_29  and  O_31
REMARK    9  A    between atoms: O_31  and  C_32
REMARK                            x       y       z     vdW  Elec       q    Type
REMARK                         _______ _______ _______ _____ _____    ______ ____
ROOT
ATOM      1  C   UNL     1      -1.720   6.160  -0.136  0.00  0.00    +0.156 C 
ATOM      2  C   UNL     1      -1.752   7.493  -0.891  0.00  0.00    +0.173 C 
ATOM      3  C   UNL     1      -0.603   8.370  -0.383  0.00  0.00    +0.120 C 
ATOM      4  N   UNL     1       0.658   7.640  -0.526  0.00  0.00    -0.318 N 
ATOM      5  C   UNL     1       0.700   6.300  -0.466  0.00  0.00    +0.140 C 
ATOM      6  S   UNL     1       2.214   5.517  -0.620  0.00  0.00    -0.018 S 
ATOM      7  N   UNL     1      -0.399   5.550  -0.293  0.00  0.00    -0.253 N 
ATOM      8  H   UNL     1       1.481   8.135  -0.665  0.00  0.00    +0.148 HD
ENDROOT
BRANCH   7   9
ATOM      9  C   UNL     1      -0.279   4.155  -0.257  0.00  0.00    +0.042 A 
ATOM     10  C   UNL     1       0.404   3.544   0.786  0.00  0.00    +0.027 A 
ATOM     11  C   UNL     1       0.528   2.168   0.820  0.00  0.00    +0.051 A 
ATOM     12  C   UNL     1      -0.037   1.393  -0.182  0.00  0.00    +0.162 A 
ATOM     13  C   UNL     1      -0.724   2.002  -1.226  0.00  0.00    +0.164 A 
ATOM     14  C   UNL     1      -0.843   3.383  -1.262  0.00  0.00    +0.073 A 
ATOM     15  O   UNL     1      -1.285   1.259  -2.219  0.00  0.00    -0.485 OA
ATOM     16  C   UNL     1      -0.827  -0.091  -2.349  0.00  0.00    +0.270 C 
ATOM     17  C   UNL     1      -0.797  -0.725  -0.952  0.00  0.00    +0.270 C 
ATOM     18  O   UNL     1       0.094   0.039  -0.132  0.00  0.00    -0.485 OA
ENDBRANCH   7   9
BRANCH   3  19
ATOM     19  C   UNL     1      -0.543   9.641  -1.190  0.00  0.00    -0.026 A 
ATOM     20  C   UNL     1       0.060   9.642  -2.434  0.00  0.00    +0.005 A 
ATOM     21  C   UNL     1       0.110  10.807  -3.176  0.00  0.00    +0.000 A 
ATOM     22  C   UNL     1      -0.434  11.973  -2.671  0.00  0.00    +0.000 A 
ATOM     23  C   UNL     1      -1.032  11.973  -1.425  0.00  0.00    +0.000 A 
ATOM     24  C   UNL     1      -1.087  10.807  -0.684  0.00  0.00    +0.005 A 
ENDBRANCH   3  19
BRANCH   1  26
ATOM     25  C   UNL     1      -3.371   7.060   1.510  0.00  0.00    +0.012 C 
ATOM     26  C   UNL     1      -1.996   6.408   1.349  0.00  0.00    +0.034 C 
ATOM     27  C   UNL     1      -1.972   5.076   2.101  0.00  0.00    +0.012 C 
ENDBRANCH   1  26
BRANCH   2  28
ATOM     28  C   UNL     1      -1.582   7.242  -2.368  0.00  0.00    +0.317 C 
ATOM     29  O   UNL     1      -1.449   6.113  -2.777  0.00  0.00    -0.250 OA
BRANCH  28  30
ATOM     30  O   UNL     1      -1.578   8.273  -3.228  0.00  0.00    -0.468 OA
ATOM     31  C   UNL     1      -1.410   7.956  -4.635  0.00  0.00    +0.280 C 
ENDBRANCH  28  30
ENDBRANCH   2  28
BRANCH   1  32
ATOM     32  O   UNL     1      -2.717   5.286  -0.669  0.00  0.00    -0.370 OA
ATOM     33  H   UNL     1      -2.805   4.451  -0.189  0.00  0.00    +0.212 HD
ENDBRANCH   1  32
TORSDOF 6
