REMARK  Name = ZINC22281852
REMARK  12 active torsions:
REMARK  status: ('A' for Active; 'I' for Inactive)
REMARK    1  A    between atoms: C_1  and  C_2
REMARK    2  A    between atoms: C_2  and  C_3
REMARK    3  A    between atoms: C_2  and  C_4
REMARK    4  A    between atoms: C_4  and  N_5
REMARK    5  A    between atoms: C_6  and  C_25
REMARK    6  A    between atoms: N_8  and  C_11
REMARK    7  A    between atoms: C_11  and  N_12
REMARK    8  A    between atoms: N_15  and  C_18
REMARK    9  A    between atoms: C_18  and  C_19
REMARK   10  A    between atoms: N_21  and  C_22
REMARK   11  A    between atoms: C_22  and  C_23
REMARK   12  A    between atoms: C_22  and  C_24
REMARK                            x       y       z     vdW  Elec       q    Type
REMARK                         _______ _______ _______ _____ _____    ______ ____
ROOT
ATOM      1  N   UNL     1      -1.249  -2.001  -0.141  0.00  0.00    -0.303 N 
ATOM      2  C   UNL     1      -1.543  -2.703  -1.293  0.00  0.00    +0.164 A 
ATOM      3  N   UNL     1      -1.640  -3.968  -0.994  0.00  0.00    -0.152 NA
ATOM      4  N   UNL     1      -1.405  -4.108   0.381  0.00  0.00    -0.257 N 
ATOM      5  C   UNL     1      -1.161  -2.879   0.878  0.00  0.00    +0.177 A 
ATOM      6  S   UNL     1      -0.809  -2.501   2.510  0.00  0.00    -0.011 S 
ENDROOT
BRANCH   2   7
ATOM      7  C   UNL     1      -1.720  -2.118  -2.640  0.00  0.00    +0.038 A 
ATOM      8  C   UNL     1      -0.908  -2.532  -3.696  0.00  0.00    +0.014 A 
ATOM      9  C   UNL     1      -1.078  -1.983  -4.950  0.00  0.00    +0.021 A 
ATOM     10  C   UNL     1      -2.052  -1.022  -5.163  0.00  0.00    +0.042 A 
ATOM     11  C   UNL     1      -2.861  -0.606  -4.120  0.00  0.00    +0.040 A 
ATOM     12  C   UNL     1      -2.704  -1.152  -2.861  0.00  0.00    +0.053 A 
ATOM     13 CL   UNL     1      -3.724  -0.635  -1.555  0.00  0.00    -0.083 Cl
ATOM     14 CL   UNL     1      -2.258  -0.335  -6.744  0.00  0.00    -0.083 Cl
ENDBRANCH   2   7
BRANCH   1  15
ATOM     15  C   UNL     1      -1.058  -0.552  -0.044  0.00  0.00    +0.128 C 
BRANCH  15  17
ATOM     16  C   UNL     1       0.550   1.320  -0.438  0.00  0.00    +0.009 C 
ATOM     17  C   UNL     1       0.384  -0.201  -0.418  0.00  0.00    +0.003 C 
ATOM     18  C   UNL     1       1.339  -0.805   0.614  0.00  0.00    +0.009 C 
ENDBRANCH  15  17
ENDBRANCH   1  15
BRANCH   4  19
ATOM     19  C   UNL     1      -1.417  -5.362   1.138  0.00  0.00    +0.072 C 
BRANCH  19  20
ATOM     20  N   UNL     1      -0.190  -6.118   0.852  0.00  0.00    +0.394 N 
ATOM     21  C   UNL     1      -0.178  -6.516  -0.562  0.00  0.00    -0.061 C 
ATOM     22  C   UNL     1       1.108  -7.287  -0.864  0.00  0.00    +0.066 C 
ATOM     23  N   UNL     1       1.178  -8.476  -0.002  0.00  0.00    -0.298 NA
ATOM     24  C   UNL     1       1.142  -8.095   1.417  0.00  0.00    +0.066 C 
ATOM     25  C   UNL     1      -0.145  -7.317   1.700  0.00  0.00    -0.061 C 
ATOM     26  H   UNL     1       0.614  -5.540   1.045  0.00  0.00    -0.079 HD
BRANCH  23  27
ATOM     27  C   UNL     1       2.373  -9.275  -0.302  0.00  0.00    +0.180 C 
BRANCH  27  28
ATOM     28  C   UNL     1       2.288 -10.596   0.416  0.00  0.00    +0.227 C 
ATOM     29  O   UNL     1       1.326 -10.848   1.110  0.00  0.00    -0.274 OA
ATOM     30  N   UNL     1       3.281 -11.499   0.288  0.00  0.00    -0.312 N 
ATOM     31  H   UNL     1       4.051 -11.297  -0.267  0.00  0.00    +0.149 HD
BRANCH  30  32
ATOM     32  C   UNL     1       3.198 -12.784   0.987  0.00  0.00    +0.067 C 
ATOM     33  C   UNL     1       2.389 -13.771   0.143  0.00  0.00    +0.027 C 
ATOM     34  C   UNL     1       4.607 -13.336   1.208  0.00  0.00    +0.027 C 
ENDBRANCH  30  32
ENDBRANCH  27  28
ENDBRANCH  23  27
ENDBRANCH  19  20
ENDBRANCH   4  19
TORSDOF 8
