REMARK  Name = ZINC11595960
REMARK  6 active torsions:
REMARK  status: ('A' for Active; 'I' for Inactive)
REMARK    1  A    between atoms: C_1  and  C_2
REMARK    2  A    between atoms: C_5  and  C_8
REMARK    3  A    between atoms: C_13  and  C_16
REMARK    4  A    between atoms: C_16  and  C_17
REMARK    5  A    between atoms: C_17  and  C_19
REMARK    6  A    between atoms: C_17  and  N_35
REMARK                            x       y       z     vdW  Elec       q    Type
REMARK                         _______ _______ _______ _____ _____    ______ ____
ROOT
ATOM      1  C   UNL     1      -0.851   5.473   0.040  0.00  0.00    +0.183 A 
ATOM      2  N   UNL     1       0.411   5.026   0.025  0.00  0.00    -0.200 NA
ATOM      3  C   UNL     1       0.406   3.723   0.018  0.00  0.00    +0.196 A 
ATOM      4  N   UNL     1      -0.877   3.266   0.028  0.00  0.00    -0.210 N 
ATOM      5  N   UNL     1      -1.668   4.444   0.042  0.00  0.00    -0.144 NA
ATOM      6  C   UNL     1      -1.059   1.904   0.017  0.00  0.00    +0.051 A 
ATOM      7  C   UNL     1      -0.013   1.076   0.008  0.00  0.00    +0.072 A 
ATOM      8  S   UNL     1       1.357   2.222   0.001  0.00  0.00    -0.056 S 
ENDROOT
BRANCH   1  13
ATOM      9  C   UNL     1      -2.440  11.008   0.083  0.00  0.00    +0.044 C 
ATOM     10  C   UNL     1      -2.025   9.560   0.072  0.00  0.00    -0.050 A 
ATOM     11  C   UNL     1      -0.682   9.229   0.058  0.00  0.00    +0.004 A 
ATOM     12  C   UNL     1      -0.295   7.904   0.048  0.00  0.00    +0.012 A 
ATOM     13  C   UNL     1      -1.260   6.899   0.051  0.00  0.00    +0.021 A 
ATOM     14  C   UNL     1      -2.612   7.238   0.060  0.00  0.00    +0.012 A 
ATOM     15  C   UNL     1      -2.987   8.566   0.076  0.00  0.00    +0.004 A 
ENDBRANCH   1  13
BRANCH   6  16
ATOM     16  C   UNL     1      -2.456   1.339   0.018  0.00  0.00    +0.039 C 
BRANCH  16  17
ATOM     17  C   UNL     1      -2.877   1.024   1.455  0.00  0.00    -0.072 C 
ATOM     18  C   UNL     1      -4.337   0.568   1.470  0.00  0.00    -0.014 C 
BRANCH  17  21
ATOM     19  H   UNL     1      -1.049   0.205   1.932  0.00  0.00    -0.090 HD
ATOM     20  H   UNL     1      -2.283  -0.273   2.940  0.00  0.00    -0.090 HD
ATOM     21  N   UNL     1      -2.030  -0.065   1.975  0.00  0.00    +0.380 N 
ATOM     22  H   UNL     1      -2.172  -0.905   1.403  0.00  0.00    -0.090 HD
ENDBRANCH  17  21
ENDBRANCH  16  17
ENDBRANCH   6  16
TORSDOF 4
