REMARK  Name = ZINC13552593
REMARK  7 active torsions:
REMARK  status: ('A' for Active; 'I' for Inactive)
REMARK    1  A    between atoms: C_1  and  O_2
REMARK    2  A    between atoms: O_2  and  C_3
REMARK    3  A    between atoms: C_5  and  O_28
REMARK    4  A    between atoms: C_8  and  C_9
REMARK    5  A    between atoms: C_12  and  C_21
REMARK    6  A    between atoms: C_13  and  C_15
REMARK    7  A    between atoms: O_28  and  C_29
REMARK                            x       y       z     vdW  Elec       q    Type
REMARK                         _______ _______ _______ _____ _____    ______ ____
ROOT
ATOM      1  C   UNL     1      -1.123   7.098   1.864  0.00  0.00    +0.143 A 
ATOM      2  N   UNL     1      -1.731   7.720   2.917  0.00  0.00    -0.337 N 
ATOM      3  H   UNL     1      -2.174   7.274   3.695  0.00  0.00    +0.167 HD
ATOM      4  C   UNL     1      -1.619   9.076   2.707  0.00  0.00    +0.074 A 
ATOM      5  C   UNL     1      -0.944   9.232   1.508  0.00  0.00    +0.097 A 
ATOM      6  N   UNL     1      -0.663   8.007   1.034  0.00  0.00    -0.227 NA
ENDROOT
BRANCH   1  12
ATOM      7  C   UNL     1      -0.362   5.117   0.554  0.00  0.00    +0.134 A 
ATOM      8  C   UNL     1      -0.252   3.746   0.394  0.00  0.00    +0.093 A 
ATOM      9  C   UNL     1      -0.787   2.891   1.346  0.00  0.00    +0.137 A 
ATOM     10  C   UNL     1      -1.427   3.405   2.469  0.00  0.00    +0.060 A 
ATOM     11  C   UNL     1      -1.538   4.768   2.640  0.00  0.00    +0.034 A 
ATOM     12  C   UNL     1      -1.006   5.637   1.685  0.00  0.00    +0.060 A 
ATOM     13 BR   UNL     1      -2.146   2.231   3.764  0.00  0.00    -0.046 Br
BRANCH   7  15
ATOM     14  C   UNL     1       0.799   5.354  -1.506  0.00  0.00    +0.277 C 
ATOM     15  O   UNL     1       0.157   5.955  -0.380  0.00  0.00    -0.494 OA
ENDBRANCH   7  15
BRANCH   9  16
ATOM     16  O   UNL     1      -0.682   1.547   1.184  0.00  0.00    -0.494 OA
ATOM     17  C   UNL     1      -0.013   1.086   0.008  0.00  0.00    +0.277 C 
ENDBRANCH   9  16
ENDBRANCH   1  12
BRANCH   5  18
ATOM     18  C   UNL     1      -0.594  10.519   0.864  0.00  0.00    +0.002 A 
ATOM     19  C   UNL     1      -1.460  11.608   0.960  0.00  0.00    +0.010 A 
ATOM     20  C   UNL     1      -1.126  12.806   0.361  0.00  0.00    +0.001 A 
ATOM     21  C   UNL     1       0.060  12.925  -0.341  0.00  0.00    +0.000 A 
ATOM     22  C   UNL     1       0.921  11.846  -0.443  0.00  0.00    +0.001 A 
ATOM     23  C   UNL     1       0.600  10.645   0.155  0.00  0.00    +0.010 A 
ENDBRANCH   5  18
BRANCH   4  24
ATOM     24  C   UNL     1      -2.126  10.151   3.582  0.00  0.00    +0.000 A 
ATOM     25  C   UNL     1      -1.320  11.253   3.878  0.00  0.00    +0.010 A 
ATOM     26  C   UNL     1      -1.801  12.257   4.693  0.00  0.00    +0.001 A 
ATOM     27  C   UNL     1      -3.076  12.168   5.225  0.00  0.00    +0.000 A 
ATOM     28  C   UNL     1      -3.878  11.077   4.940  0.00  0.00    +0.001 A 
ATOM     29  C   UNL     1      -3.411  10.069   4.122  0.00  0.00    +0.010 A 
ENDBRANCH   4  24
TORSDOF 5
