REMARK  Name = ZINC17107847
REMARK  4 active torsions:
REMARK  status: ('A' for Active; 'I' for Inactive)
REMARK    1  A    between atoms: C_1  and  C_2
REMARK    2  A    between atoms: C_2  and  N_3
REMARK    3  A    between atoms: N_8  and  C_11
REMARK    4  A    between atoms: C_11  and  C_12
REMARK                            x       y       z     vdW  Elec       q    Type
REMARK                         _______ _______ _______ _____ _____    ______ ____
ROOT
ATOM      1  N   UNL     1      -1.650   4.091   0.040  0.00  0.00    -0.278 N 
ATOM      2  C   UNL     1      -0.722   3.075   0.025  0.00  0.00    +0.146 A 
ATOM      3  C   UNL     1      -1.151   1.776   0.017  0.00  0.00    +0.148 A 
ATOM      4  C   UNL     1      -2.534   1.507   0.021  0.00  0.00    +0.282 A 
ATOM      5  O   UNL     1      -2.938   0.357   0.017  0.00  0.00    -0.265 OA
ATOM      6  N   UNL     1      -3.406   2.536   0.030  0.00  0.00    -0.259 N 
ATOM      7  C   UNL     1      -2.966   3.808   0.035  0.00  0.00    +0.334 A 
ATOM      8  O   UNL     1      -3.772   4.718   0.044  0.00  0.00    -0.246 OA
ATOM      9  N   UNL     1      -0.011   0.966   0.007  0.00  0.00    -0.328 N 
ATOM     10  H   UNL     1       0.002  -0.004   0.002  0.00  0.00    +0.168 HD
ATOM     11  C   UNL     1       1.066   1.777   0.001  0.00  0.00    +0.157 A 
ATOM     12  S   UNL     1       2.699   1.262  -0.018  0.00  0.00    -0.013 S 
ATOM     13  N   UNL     1       0.649   3.057   0.012  0.00  0.00    -0.320 N 
ATOM     14  H   UNL     1       1.224   3.838   0.011  0.00  0.00    +0.169 HD
ENDROOT
BRANCH   1  16
ATOM     15  C   UNL     1      -1.063   5.980  -1.398  0.00  0.00    +0.027 C 
ATOM     16  C   UNL     1      -1.205   5.487   0.043  0.00  0.00    +0.125 C 
ENDBRANCH   1  16
BRANCH   6  17
ATOM     17  C   UNL     1      -4.846   2.267   0.034  0.00  0.00    +0.126 C 
ATOM     18  C   UNL     1      -5.342   2.165   1.478  0.00  0.00    +0.027 C 
ENDBRANCH   6  17
TORSDOF 2
