REMARK  Name = ZINC40094855
REMARK  6 active torsions:
REMARK  status: ('A' for Active; 'I' for Inactive)
REMARK    1  A    between atoms: C_1  and  C_2
REMARK    2  A    between atoms: C_3  and  N_15
REMARK    3  A    between atoms: N_6  and  C_9
REMARK    4  A    between atoms: N_7  and  C_8
REMARK    5  A    between atoms: N_18  and  C_19
REMARK    6  A    between atoms: C_19  and  C_20
REMARK                            x       y       z     vdW  Elec       q    Type
REMARK                         _______ _______ _______ _____ _____    ______ ____
ROOT
ATOM      1  N   UNL     1      -0.312  -0.387  -2.429  0.00  0.00    -0.264 N 
ATOM      2  C   UNL     1      -0.753  -1.284  -3.334  0.00  0.00    +0.304 C 
ATOM      3  O   UNL     1      -0.689  -2.474  -3.092  0.00  0.00    -0.253 OA
ATOM      4  N   UNL     1      -1.267  -0.861  -4.506  0.00  0.00    -0.299 N 
ATOM      5  H   UNL     1      -0.294   0.557  -2.651  0.00  0.00    +0.157 HD
ATOM      6  H   UNL     1      -1.318   0.088  -4.699  0.00  0.00    +0.150 HD
ENDROOT
BRANCH   1   9
ATOM      7  C   UNL     1      -1.498   0.562   0.230  0.00  0.00    +0.067 C 
ATOM      8  C   UNL     1      -0.376  -0.424   0.029  0.00  0.00    +0.059 A 
ATOM      9  C   UNL     1       0.124  -0.822  -1.161  0.00  0.00    +0.122 A 
ATOM     10  C   UNL     1       1.164  -1.753  -0.910  0.00  0.00    +0.293 A 
ATOM     11  O   UNL     1       1.840  -2.319  -1.751  0.00  0.00    -0.264 OA
ATOM     12  N   UNL     1       1.271  -1.899   0.426  0.00  0.00    -0.216 N 
ATOM     13  N   UNL     1       0.316  -1.067   1.025  0.00  0.00    -0.282 N 
ATOM     14  C   UNL     1       0.092  -0.913   2.464  0.00  0.00    +0.171 C 
BRANCH  12  15
ATOM     15  C   UNL     1       2.178  -2.727   1.095  0.00  0.00    +0.067 A 
ATOM     16  C   UNL     1       1.731  -3.585   2.092  0.00  0.00    +0.028 A 
ATOM     17  C   UNL     1       2.629  -4.402   2.750  0.00  0.00    +0.002 A 
ATOM     18  C   UNL     1       3.971  -4.367   2.418  0.00  0.00    +0.000 A 
ATOM     19  C   UNL     1       4.419  -3.513   1.426  0.00  0.00    +0.002 A 
ATOM     20  C   UNL     1       3.525  -2.698   0.760  0.00  0.00    +0.028 A 
ENDBRANCH  12  15
ENDBRANCH   1   9
BRANCH   4  21
ATOM     21  C   UNL     1      -1.746  -1.836  -5.489  0.00  0.00    +0.114 C 
BRANCH  21  22
ATOM     22  C   UNL     1      -2.153  -1.108  -6.772  0.00  0.00    +0.036 C 
ATOM     23  C   UNL     1      -0.937  -0.387  -7.349  0.00  0.00    +0.010 C 
ATOM     24  C   UNL     1      -1.307   0.151  -8.737  0.00  0.00    +0.005 C 
ATOM     25  C   UNL     1      -1.457  -1.035  -9.688  0.00  0.00    +0.035 C 
ATOM     26  C   UNL     1      -2.377  -2.072  -9.100  0.00  0.00    -0.044 A 
ATOM     27  C   UNL     1      -2.693  -2.108  -7.761  0.00  0.00    -0.040 A 
ATOM     28  C   UNL     1      -3.543  -3.097  -7.282  0.00  0.00    +0.004 A 
ATOM     29  C   UNL     1      -4.075  -4.039  -8.138  0.00  0.00    +0.000 A 
ATOM     30  C   UNL     1      -3.760  -4.001  -9.483  0.00  0.00    +0.000 A 
ATOM     31  C   UNL     1      -2.916  -3.021  -9.960  0.00  0.00    +0.004 A 
ENDBRANCH  21  22
ENDBRANCH   4  21
TORSDOF 4
