REMARK  Name = ZINC21224548
REMARK  12 active torsions:
REMARK  status: ('A' for Active; 'I' for Inactive)
REMARK    1  A    between atoms: C_1  and  C_2
REMARK    2  A    between atoms: C_2  and  O_3
REMARK    3  A    between atoms: O_3  and  C_4
REMARK    4  A    between atoms: C_7  and  C_12
REMARK    5  A    between atoms: C_9  and  O_10
REMARK    6  A    between atoms: O_10  and  C_11
REMARK    7  A    between atoms: C_17  and  C_27
REMARK    8  A    between atoms: C_30  and  O_35
REMARK    9  A    between atoms: C_31  and  O_33
REMARK   10  A    between atoms: O_33  and  C_34
REMARK   11  A    between atoms: O_35  and  C_36
REMARK   12  A    between atoms: C_36  and  C_38
REMARK                            x       y       z     vdW  Elec       q    Type
REMARK                         _______ _______ _______ _____ _____    ______ ____
ROOT
ATOM      1  C   UNL     1       5.415   4.286  -4.299  0.00  0.00    +0.032 C 
ATOM      2  C   UNL     1       6.694   3.888  -3.565  0.00  0.00    +0.059 C 
ATOM      3  C   UNL     1       6.381   3.554  -2.117  0.00  0.00    +0.017 C 
ATOM      4  C   UNL     1       5.383   4.183  -1.472  0.00  0.00    +0.036 C 
ATOM      5  C   UNL     1       4.975   3.957  -0.036  0.00  0.00    +0.136 C 
ATOM      6  N   UNL     1       5.910   3.170   0.739  0.00  0.00    -0.331 N 
ATOM      7  C   UNL     1       6.155   1.833   0.425  0.00  0.00    +0.049 A 
ATOM      8  C   UNL     1       5.759   0.807   1.268  0.00  0.00    +0.025 A 
ATOM      9  C   UNL     1       5.918  -0.506   0.862  0.00  0.00    +0.002 A 
ATOM     10  C   UNL     1       6.468  -0.795  -0.373  0.00  0.00    +0.002 A 
ATOM     11  C   UNL     1       6.887   0.227  -1.208  0.00  0.00    +0.025 A 
ATOM     12  C   UNL     1       6.745   1.540  -0.796  0.00  0.00    +0.052 A 
ATOM     13  N   UNL     1       7.186   2.613  -1.562  0.00  0.00    -0.316 N 
ATOM     14  C   UNL     1       4.602   5.154  -2.143  0.00  0.00    +0.163 C 
ATOM     15  O   UNL     1       3.718   5.720  -1.531  0.00  0.00    -0.292 OA
ATOM     16  C   UNL     1       4.827   5.508  -3.582  0.00  0.00    +0.088 C 
ATOM     17  H   UNL     1       6.440   3.624   1.589  0.00  0.00    +0.147 HD
ATOM     18  H   UNL     1       8.275   2.666  -1.706  0.00  0.00    +0.152 HD
ENDROOT
BRANCH   1  22
ATOM     19  C   UNL     1       6.324   5.286  -8.356  0.00  0.00    +0.162 A 
ATOM     20  C   UNL     1       6.904   5.997  -7.318  0.00  0.00    +0.050 A 
ATOM     21  C   UNL     1       6.604   5.675  -6.007  0.00  0.00    +0.008 A 
ATOM     22  C   UNL     1       5.734   4.637  -5.729  0.00  0.00    -0.040 A 
ATOM     23  C   UNL     1       5.152   3.924  -6.761  0.00  0.00    +0.053 A 
ATOM     24  C   UNL     1       5.444   4.245  -8.076  0.00  0.00    +0.162 A 
BRANCH  24  25
ATOM     25  O   UNL     1       4.872   3.545  -9.092  0.00  0.00    -0.491 OA
ATOM     26  C   UNL     1       3.978   2.490  -8.730  0.00  0.00    +0.277 C 
ENDBRANCH  24  25
BRANCH  19  27
ATOM     27  O   UNL     1       6.613   5.606  -9.646  0.00  0.00    -0.489 OA
BRANCH  27  29
ATOM     28  C   UNL     1       7.726   6.896 -11.360  0.00  0.00    +0.048 C 
ATOM     29  C   UNL     1       7.525   6.686  -9.858  0.00  0.00    +0.226 C 
ENDBRANCH  27  29
ENDBRANCH  19  27
ENDBRANCH   1  22
BRANCH   5  30
ATOM     30  C   UNL     1       3.639   3.259  -0.024  0.00  0.00    -0.019 A 
ATOM     31  C   UNL     1       3.517   1.993  -0.567  0.00  0.00    +0.009 A 
ATOM     32  C   UNL     1       2.295   1.349  -0.558  0.00  0.00    +0.050 A 
ATOM     33  C   UNL     1       1.187   1.971  -0.004  0.00  0.00    +0.173 A 
ATOM     34  C   UNL     1       1.309   3.247   0.539  0.00  0.00    +0.163 A 
ATOM     35  C   UNL     1       2.540   3.885   0.532  0.00  0.00    +0.055 A 
BRANCH  34  36
ATOM     36  O   UNL     1       0.225   3.864   1.079  0.00  0.00    -0.491 OA
ATOM     37  C   UNL     1       0.424   5.173   1.618  0.00  0.00    +0.277 C 
ENDBRANCH  34  36
BRANCH  33  38
ATOM     38  O   UNL     1      -0.017   1.339   0.006  0.00  0.00    -0.422 OA
BRANCH  38  39
ATOM     39  C   UNL     1      -0.853   1.607  -1.009  0.00  0.00    +0.309 C 
ATOM     40  O   UNL     1      -0.562   2.447  -1.827  0.00  0.00    -0.251 OA
ATOM     41  C   UNL     1      -2.157   0.859  -1.129  0.00  0.00    +0.136 C 
ENDBRANCH  38  39
ENDBRANCH  33  38
ENDBRANCH   5  30
TORSDOF 8
