REMARK  Name = ZINC38979428
REMARK  8 active torsions:
REMARK  status: ('A' for Active; 'I' for Inactive)
REMARK    1  A    between atoms: C_1  and  C_2
REMARK    2  A    between atoms: C_5  and  S_8
REMARK    3  A    between atoms: S_8  and  N_11
REMARK    4  A    between atoms: C_13  and  N_23
REMARK    5  A    between atoms: N_23  and  C_24
REMARK    6  A    between atoms: C_27  and  O_30
REMARK    7  A    between atoms: O_30  and  C_31
REMARK    8  A    between atoms: C_31  and  C_32
REMARK                            x       y       z     vdW  Elec       q    Type
REMARK                         _______ _______ _______ _____ _____    ______ ____
ROOT
ATOM      1  N   UNL     1       1.494  -5.117  -0.280  0.00  0.00    -0.110 NA
ATOM      2  C   UNL     1       1.901  -6.347  -0.160  0.00  0.00    +0.192 C 
ATOM      3  C   UNL     1       3.375  -6.659  -0.040  0.00  0.00    +0.237 C 
ATOM      4  N   UNL     1       3.770  -8.070   0.093  0.00  0.00    -0.359 N 
ATOM      5  C   UNL     1       2.835  -8.979   0.102  0.00  0.00    +0.063 A 
ATOM      6  C   UNL     1       3.177 -10.403   0.234  0.00  0.00    +0.027 A 
ATOM      7  C   UNL     1       2.181 -11.316   0.239  0.00  0.00    +0.002 A 
ATOM      8  C   UNL     1       0.833 -10.940   0.123  0.00  0.00    +0.002 A 
ATOM      9  C   UNL     1       0.442  -9.652  -0.001  0.00  0.00    +0.030 A 
ATOM     10  C   UNL     1       1.403  -8.610  -0.018  0.00  0.00    +0.089 A 
ATOM     11  N   UNL     1       1.017  -7.357  -0.135  0.00  0.00    -0.226 NA
ATOM     12  H   UNL     1       4.704  -8.318   0.173  0.00  0.00    +0.162 HD
ENDROOT
BRANCH   1  13
ATOM     13  S   UNL     1      -0.124  -4.789  -0.403  0.00  0.00    +0.100 S 
ATOM     14  O   UNL     1      -0.708  -5.150   0.841  0.00  0.00    -0.146 OA
ATOM     15  O   UNL     1      -0.558  -5.342  -1.638  0.00  0.00    -0.146 OA
BRANCH  13  20
ATOM     16  C   UNL     1      -0.699   1.197  -0.902  0.00  0.00    +0.044 C 
ATOM     17  C   UNL     1      -0.555  -0.298  -0.778  0.00  0.00    -0.050 A 
ATOM     18  C   UNL     1      -0.416  -1.076  -1.912  0.00  0.00    +0.005 A 
ATOM     19  C   UNL     1      -0.285  -2.447  -1.797  0.00  0.00    +0.029 A 
ATOM     20  C   UNL     1      -0.291  -3.041  -0.549  0.00  0.00    +0.113 A 
ATOM     21  C   UNL     1      -0.429  -2.262   0.586  0.00  0.00    +0.029 A 
ATOM     22  C   UNL     1      -0.556  -0.891   0.471  0.00  0.00    +0.005 A 
ENDBRANCH  13  20
ENDBRANCH   1  13
BRANCH   3  23
ATOM     23  N   UNL     1       4.044  -6.119  -1.226  0.00  0.00    -0.318 N 
ATOM     24  H   UNL     1       3.649  -6.240  -2.103  0.00  0.00    +0.148 HD
BRANCH  23  25
ATOM     25  C   UNL     1       5.254  -5.428  -1.093  0.00  0.00    +0.029 A 
ATOM     26  C   UNL     1       5.808  -4.779  -2.189  0.00  0.00    +0.026 A 
ATOM     27  C   UNL     1       7.001  -4.097  -2.057  0.00  0.00    +0.047 A 
ATOM     28  C   UNL     1       7.647  -4.060  -0.830  0.00  0.00    +0.121 A 
ATOM     29  C   UNL     1       7.095  -4.708   0.265  0.00  0.00    +0.047 A 
ATOM     30  C   UNL     1       5.898  -5.386   0.136  0.00  0.00    +0.026 A 
BRANCH  28  31
ATOM     31  O   UNL     1       8.822  -3.388  -0.701  0.00  0.00    -0.487 OA
BRANCH  31  32
ATOM     32  C   UNL     1       9.432  -3.391   0.592  0.00  0.00    +0.264 C 
BRANCH  32  33
ATOM     33  C   UNL     1      10.716  -2.603   0.543  0.00  0.00    -0.010 A 
ATOM     34  C   UNL     1      11.904  -3.236   0.229  0.00  0.00    +0.007 A 
ATOM     35  C   UNL     1      13.082  -2.513   0.185  0.00  0.00    +0.000 A 
ATOM     36  C   UNL     1      13.070  -1.157   0.453  0.00  0.00    +0.000 A 
ATOM     37  C   UNL     1      11.882  -0.524   0.766  0.00  0.00    +0.000 A 
ATOM     38  C   UNL     1      10.704  -1.246   0.806  0.00  0.00    +0.007 A 
ENDBRANCH  32  33
ENDBRANCH  31  32
ENDBRANCH  28  31
ENDBRANCH  23  25
ENDBRANCH   3  23
TORSDOF 7
