REMARK  Name = ZINC27570193
REMARK  10 active torsions:
REMARK  status: ('A' for Active; 'I' for Inactive)
REMARK    1  A    between atoms: C_1  and  O_2
REMARK    2  A    between atoms: O_2  and  C_3
REMARK    3  A    between atoms: C_8  and  C_9
REMARK    4  A    between atoms: C_9  and  C_11
REMARK    5  A    between atoms: C_9  and  N_30
REMARK    6  A    between atoms: C_11  and  N_12
REMARK    7  A    between atoms: C_13  and  C_15
REMARK    8  A    between atoms: C_18  and  C_20
REMARK    9  A    between atoms: C_20  and  S_21
REMARK   10  A    between atoms: S_21  and  C_24
REMARK                            x       y       z     vdW  Elec       q    Type
REMARK                         _______ _______ _______ _____ _____    ______ ____
ROOT
ATOM      1  N   UNL     1       0.815   5.640   0.142  0.00  0.00    -0.310 N 
ATOM      2  C   UNL     1       1.401   4.427   0.161  0.00  0.00    +0.279 C 
ATOM      3  O   UNL     1       2.612   4.336   0.085  0.00  0.00    -0.267 OA
ATOM      4  H   UNL     1      -0.280   5.723   0.211  0.00  0.00    +0.149 HD
ENDROOT
BRANCH   2   5
ATOM      5  C   UNL     1       0.580   3.217   0.274  0.00  0.00    +0.189 A 
ATOM      6  C   UNL     1       1.043   1.933   0.305  0.00  0.00    +0.055 A 
ATOM      7  C   UNL     1      -0.081   1.101   0.419  0.00  0.00    +0.047 A 
ATOM      8  C   UNL     1      -1.168   1.903   0.448  0.00  0.00    +0.127 A 
ATOM      9  O   UNL     1      -0.765   3.178   0.365  0.00  0.00    -0.453 OA
BRANCH   8  10
ATOM     10  C   UNL     1      -2.598   1.440   0.557  0.00  0.00    +0.245 C 
BRANCH  10  11
ATOM     11  S   UNL     1      -3.068   1.336   2.306  0.00  0.00    +0.004 S 
ATOM     12  O   UNL     1      -2.350   0.289   2.944  0.00  0.00    -0.169 OA
ATOM     13  O   UNL     1      -3.115   2.636   2.879  0.00  0.00    -0.169 OA
BRANCH  11  14
ATOM     14  C   UNL     1      -4.743   0.790   2.294  0.00  0.00    +0.089 A 
ATOM     15  C   UNL     1      -5.771   1.713   2.263  0.00  0.00    +0.027 A 
ATOM     16  C   UNL     1      -7.085   1.284   2.248  0.00  0.00    +0.002 A 
ATOM     17  C   UNL     1      -7.371  -0.068   2.274  0.00  0.00    +0.000 A 
ATOM     18  C   UNL     1      -6.343  -0.991   2.311  0.00  0.00    +0.002 A 
ATOM     19  C   UNL     1      -5.029  -0.562   2.320  0.00  0.00    +0.027 A 
ENDBRANCH  11  14
ENDBRANCH  10  11
ENDBRANCH   8  10
ENDBRANCH   2   5
BRANCH   1  20
ATOM     20  C   UNL     1       1.635   6.849   0.029  0.00  0.00    +0.094 C 
BRANCH  20  21
ATOM     21  C   UNL     1       0.725   8.073  -0.090  0.00  0.00    -0.017 C 
BRANCH  21  27
ATOM     22  C   UNL     1       0.520   8.935   2.256  0.00  0.00    +0.122 A 
ATOM     23  C   UNL     1      -0.197   9.101   3.432  0.00  0.00    +0.046 A 
ATOM     24  C   UNL     1      -1.469   8.576   3.544  0.00  0.00    +0.004 A 
ATOM     25  C   UNL     1      -2.031   7.890   2.483  0.00  0.00    +0.000 A 
ATOM     26  C   UNL     1      -1.321   7.727   1.308  0.00  0.00    +0.005 A 
ATOM     27  C   UNL     1      -0.048   8.251   1.191  0.00  0.00    -0.018 A 
BRANCH  22  29
ATOM     28  C   UNL     1       2.295  10.139   3.281  0.00  0.00    +0.277 C 
ATOM     29  O   UNL     1       1.774   9.446   2.145  0.00  0.00    -0.495 OA
ENDBRANCH  22  29
ENDBRANCH  21  27
BRANCH  21  30
ATOM     30  N   UNL     1      -0.211   7.881  -1.205  0.00  0.00    +0.385 N 
ATOM     31  C   UNL     1      -1.079   9.073  -1.383  0.00  0.00    -0.078 C 
ATOM     32  C   UNL     1      -1.585   8.929  -2.840  0.00  0.00    -0.020 C 
ATOM     33  C   UNL     1      -0.352   8.364  -3.580  0.00  0.00    -0.020 C 
ATOM     34  C   UNL     1       0.513   7.715  -2.483  0.00  0.00    -0.078 C 
ATOM     35  H   UNL     1      -0.796   6.984  -0.953  0.00  0.00    -0.081 HD
ENDBRANCH  21  30
ENDBRANCH  20  21
ENDBRANCH   1  20
TORSDOF 9
