REMARK  Name = ZINC34732365
REMARK  10 active torsions:
REMARK  status: ('A' for Active; 'I' for Inactive)
REMARK    1  A    between atoms: C_1  and  C_2
REMARK    2  A    between atoms: C_2  and  C_3
REMARK    3  A    between atoms: C_4  and  C_36
REMARK    4  A    between atoms: N_11  and  C_22
REMARK    5  A    between atoms: N_14  and  C_17
REMARK    6  A    between atoms: C_17  and  C_18
REMARK    7  A    between atoms: C_18  and  O_20
REMARK    8  A    between atoms: O_20  and  C_21
REMARK    9  A    between atoms: C_22  and  C_23
REMARK   10  A    between atoms: N_25  and  C_26
REMARK                            x       y       z     vdW  Elec       q    Type
REMARK                         _______ _______ _______ _____ _____    ______ ____
ROOT
ATOM      1  C   UNL     1       0.696  -0.518  -1.258  0.00  0.00    -0.040 C 
ATOM      2  C   UNL     1       1.974  -0.847  -1.306  0.00  0.00    -0.064 C 
ATOM      3  C   UNL     1       2.278  -1.272  -2.725  0.00  0.00    +0.073 C 
ATOM      4  C   UNL     1       0.977  -1.129  -3.456  0.00  0.00    +0.004 A 
ATOM      5  C   UNL     1       0.035  -0.687  -2.582  0.00  0.00    +0.003 A 
ATOM      6  C   UNL     1      -1.325  -0.493  -3.133  0.00  0.00    +0.078 A 
ATOM      7  C   UNL     1      -2.535  -0.022  -2.428  0.00  0.00    +0.266 A 
ATOM      8  O   UNL     1      -2.489   0.261  -1.245  0.00  0.00    -0.267 OA
ATOM      9  N   UNL     1      -3.688   0.089  -3.111  0.00  0.00    -0.251 N 
ATOM     10  C   UNL     1      -3.772  -0.216  -4.417  0.00  0.00    +0.334 A 
ATOM     11  O   UNL     1      -4.838  -0.099  -4.989  0.00  0.00    -0.246 OA
ATOM     12  N   UNL     1      -2.697  -0.649  -5.105  0.00  0.00    -0.276 N 
ATOM     13  C   UNL     1      -1.488  -0.789  -4.482  0.00  0.00    +0.098 A 
ATOM     14  S   UNL     1       0.129  -1.299  -5.003  0.00  0.00    -0.074 S 
ATOM     15  C   UNL     1       2.950  -0.806  -0.159  0.00  0.00    +0.039 C 
ENDROOT
BRANCH   1  17
ATOM     16  C   UNL     1      -0.023   1.492   0.003  0.00  0.00    +0.009 C 
ATOM     17  C   UNL     1      -0.008  -0.037  -0.015  0.00  0.00    +0.032 C 
ENDBRANCH   1  17
BRANCH  12  18
ATOM     18  C   UNL     1      -2.825  -0.972  -6.528  0.00  0.00    +0.247 C 
BRANCH  18  19
ATOM     19  C   UNL     1      -2.542   0.259  -7.350  0.00  0.00    +0.327 C 
ATOM     20  O   UNL     1      -2.263   1.299  -6.804  0.00  0.00    -0.249 OA
BRANCH  19  21
ATOM     21  O   UNL     1      -2.601   0.199  -8.690  0.00  0.00    -0.467 OA
ATOM     22  C   UNL     1      -2.322   1.403  -9.406  0.00  0.00    +0.280 C 
ENDBRANCH  19  21
ENDBRANCH  18  19
ENDBRANCH  12  18
BRANCH   9  23
ATOM     23  C   UNL     1      -4.888   0.556  -2.412  0.00  0.00    +0.226 C 
BRANCH  23  24
ATOM     24  C   UNL     1      -4.972   2.057  -2.505  0.00  0.00    +0.237 C 
ATOM     25  O   UNL     1      -4.114   2.677  -3.099  0.00  0.00    -0.274 OA
ATOM     26  N   UNL     1      -6.000   2.712  -1.930  0.00  0.00    -0.283 N 
ATOM     27  H   UNL     1      -6.720   2.214  -1.513  0.00  0.00    +0.155 HD
BRANCH  26  28
ATOM     28  C   UNL     1      -6.029   4.108  -1.935  0.00  0.00    +0.041 A 
ATOM     29  C   UNL     1      -5.530   4.810  -3.011  0.00  0.00    +0.024 A 
ATOM     30  C   UNL     1      -5.554   6.201  -3.026  0.00  0.00    +0.002 A 
ATOM     31  C   UNL     1      -6.070   6.907  -1.982  0.00  0.00    +0.008 A 
ATOM     32  C   UNL     1      -6.589   6.229  -0.866  0.00  0.00    -0.016 A 
ATOM     33  C   UNL     1      -6.575   4.812  -0.841  0.00  0.00    +0.003 A 
ATOM     34  C   UNL     1      -7.098   4.137   0.273  0.00  0.00    +0.010 A 
ATOM     35  C   UNL     1      -7.616   4.849   1.310  0.00  0.00    +0.001 A 
ATOM     36  C   UNL     1      -7.636   6.242   1.285  0.00  0.00    +0.001 A 
ATOM     37  C   UNL     1      -7.128   6.931   0.227  0.00  0.00    +0.008 A 
ENDBRANCH  26  28
ENDBRANCH  23  24
ENDBRANCH   9  23
TORSDOF 7
