REMARK  Name = ZINC63572237
REMARK  4 active torsions:
REMARK  status: ('A' for Active; 'I' for Inactive)
REMARK    1  A    between atoms: C_1  and  O_2
REMARK    2  A    between atoms: O_2  and  C_3
REMARK    3  A    between atoms: C_6  and  C_9
REMARK    4  A    between atoms: N_27  and  C_28
REMARK                            x       y       z     vdW  Elec       q    Type
REMARK                         _______ _______ _______ _____ _____    ______ ____
ROOT
ATOM      1  C   UNL     1       2.504  -2.506  -4.384  0.00  0.00    +0.134 C 
ATOM      2  C   UNL     1       1.441  -3.101  -5.314  0.00  0.00    +0.131 C 
ATOM      3  C   UNL     1       0.833  -4.287  -4.577  0.00  0.00    -0.035 C 
ATOM      4  C   UNL     1      -0.475  -4.066  -4.524  0.00  0.00    +0.001 A 
ATOM      5  C   UNL     1      -1.585  -4.880  -4.004  0.00  0.00    +0.030 A 
ATOM      6  C   UNL     1      -2.827  -4.333  -4.102  0.00  0.00    +0.042 A 
ATOM      7  C   UNL     1      -3.071  -3.073  -4.659  0.00  0.00    +0.022 A 
ATOM      8  C   UNL     1      -2.110  -2.260  -5.165  0.00  0.00    +0.027 A 
ATOM      9  C   UNL     1      -0.764  -2.728  -5.123  0.00  0.00    +0.043 A 
ATOM     10  N   UNL     1       0.346  -2.161  -5.562  0.00  0.00    -0.375 N 
ATOM     11 CL   UNL     1      -4.178  -5.245  -3.505  0.00  0.00    -0.084 Cl
ATOM     12  C   UNL     1       1.675  -5.396  -3.994  0.00  0.00    +0.052 C 
ATOM     13  C   UNL     1       2.771  -4.723  -3.149  0.00  0.00    +0.114 C 
ATOM     14  N   UNL     1       3.353  -3.607  -3.904  0.00  0.00    -0.276 N 
ATOM     15  C   UNL     1       4.676  -3.591  -4.162  0.00  0.00    +0.303 C 
ATOM     16  O   UNL     1       5.178  -2.625  -4.702  0.00  0.00    -0.253 OA
ATOM     17  N   UNL     1       5.441  -4.646  -3.820  0.00  0.00    -0.294 N 
ATOM     18  H   UNL     1       5.030  -5.447  -3.458  0.00  0.00    +0.151 HD
ATOM     19  H   UNL     1       0.432  -1.284  -5.968  0.00  0.00    +0.160 HD
ENDROOT
BRANCH  17  20
ATOM     20  C   UNL     1       6.894  -4.584  -3.995  0.00  0.00    +0.037 C 
ATOM     21  C   UNL     1       7.221  -4.354  -5.472  0.00  0.00    +0.029 C 
ATOM     22  C   UNL     1       8.738  -4.289  -5.655  0.00  0.00    -0.008 C 
ATOM     23  C   UNL     1       9.364  -5.607  -5.194  0.00  0.00    +0.007 C 
ATOM     24  C   UNL     1       9.038  -5.837  -3.717  0.00  0.00    -0.008 C 
ATOM     25  C   UNL     1       7.521  -5.902  -3.534  0.00  0.00    +0.029 C 
ATOM     26  C   UNL     1       9.604  -4.685  -2.885  0.00  0.00    +0.007 C 
ATOM     27  C   UNL     1       8.977  -3.367  -3.346  0.00  0.00    -0.008 C 
ATOM     28  C   UNL     1       9.303  -3.137  -4.823  0.00  0.00    +0.007 C 
ATOM     29  C   UNL     1       7.460  -3.432  -3.163  0.00  0.00    +0.029 C 
ENDBRANCH  17  20
BRANCH   1  33
ATOM     30  C   UNL     1       0.613  -0.585  -1.068  0.00  0.00    +0.120 A 
ATOM     31  C   UNL     1       0.434  -1.945  -1.278  0.00  0.00    +0.046 A 
ATOM     32  C   UNL     1       1.046  -2.563  -2.351  0.00  0.00    +0.009 A 
ATOM     33  C   UNL     1       1.837  -1.828  -3.215  0.00  0.00    -0.024 A 
ATOM     34  C   UNL     1       2.017  -0.473  -3.007  0.00  0.00    +0.009 A 
ATOM     35  C   UNL     1       1.402   0.151  -1.940  0.00  0.00    +0.046 A 
BRANCH  30  37
ATOM     36  C   UNL     1      -0.786  -0.795   0.843  0.00  0.00    +0.277 C 
ATOM     37  O   UNL     1       0.012   0.025  -0.013  0.00  0.00    -0.495 OA
ENDBRANCH  30  37
ENDBRANCH   1  33
TORSDOF 3
