REMARK  Name = ZINC39885155
REMARK  13 active torsions:
REMARK  status: ('A' for Active; 'I' for Inactive)
REMARK    1  A    between atoms: C_1  and  C_2
REMARK    2  A    between atoms: C_2  and  C_3
REMARK    3  A    between atoms: C_10  and  N_17
REMARK    4  A    between atoms: C_11  and  C_12
REMARK    5  A    between atoms: C_12  and  O_14
REMARK    6  A    between atoms: O_14  and  C_15
REMARK    7  A    between atoms: C_15  and  C_16
REMARK    8  A    between atoms: C_18  and  C_20
REMARK    9  A    between atoms: C_20  and  C_31
REMARK   10  A    between atoms: C_21  and  C_22
REMARK   11  A    between atoms: C_25  and  O_30
REMARK   12  A    between atoms: C_26  and  O_28
REMARK   13  A    between atoms: O_28  and  C_29
REMARK                            x       y       z     vdW  Elec       q    Type
REMARK                         _______ _______ _______ _____ _____    ______ ____
ROOT
ATOM      1  N   UNL     1       5.927  -2.258   4.604  0.00  0.00    -0.275 N 
ATOM      2  C   UNL     1       7.027  -1.479   4.584  0.00  0.00    +0.259 C 
ATOM      3  O   UNL     1       7.185  -0.672   3.687  0.00  0.00    -0.269 OA
ATOM      4  H   UNL     1       5.801  -2.901   5.319  0.00  0.00    +0.156 HD
ENDROOT
BRANCH   1  11
ATOM      5  C   UNL     1       1.380  -1.460   0.221  0.00  0.00    -0.006 C 
ATOM      6  C   UNL     1       1.298  -2.959   0.524  0.00  0.00    +0.008 C 
ATOM      7  C   UNL     1       1.639  -3.212   1.994  0.00  0.00    +0.037 C 
ATOM      8  C   UNL     1       2.965  -2.537   2.311  0.00  0.00    -0.021 A 
ATOM      9  C   UNL     1       3.468  -1.569   1.516  0.00  0.00    -0.004 A 
ATOM     10  S   UNL     1       4.993  -1.105   2.281  0.00  0.00    -0.077 S 
ATOM     11  C   UNL     1       4.978  -2.141   3.603  0.00  0.00    +0.087 A 
ATOM     12  C   UNL     1       3.795  -2.853   3.461  0.00  0.00    +0.091 A 
ATOM     13  C   UNL     1       2.851  -1.020   0.265  0.00  0.00    +0.046 C 
BRANCH   5  15
ATOM     14  C   UNL     1       0.778   0.323  -1.423  0.00  0.00    +0.004 C 
ATOM     15  C   UNL     1       0.805  -1.186  -1.170  0.00  0.00    +0.000 C 
ENDBRANCH   5  15
BRANCH  12  16
ATOM     16  C   UNL     1       3.400  -3.878   4.429  0.00  0.00    +0.342 C 
ATOM     17  O   UNL     1       3.743  -5.033   4.266  0.00  0.00    -0.245 OA
BRANCH  16  18
ATOM     18  O   UNL     1       2.657  -3.540   5.503  0.00  0.00    -0.461 OA
BRANCH  18  19
ATOM     19  C   UNL     1       2.308  -4.591   6.407  0.00  0.00    +0.229 C 
ATOM     20  C   UNL     1       1.471  -4.021   7.553  0.00  0.00    +0.048 C 
ENDBRANCH  18  19
ENDBRANCH  16  18
ENDBRANCH  12  16
ENDBRANCH   1  11
BRANCH   2  21
ATOM     21  C   UNL     1       8.035  -1.603   5.647  0.00  0.00    +0.114 C 
ATOM     22  C   UNL     1       9.159  -0.806   5.628  0.00  0.00    +0.032 C 
BRANCH  22  23
ATOM     23  C   UNL     1      10.241  -1.042   6.586  0.00  0.00    -0.020 A 
ATOM     24  C   UNL     1      10.542  -2.348   7.000  0.00  0.00    +0.012 A 
ATOM     25  C   UNL     1      11.560  -2.566   7.900  0.00  0.00    +0.050 A 
ATOM     26  C   UNL     1      12.290  -1.495   8.402  0.00  0.00    +0.158 A 
ATOM     27  C   UNL     1      11.997  -0.193   7.996  0.00  0.00    +0.162 A 
ATOM     28  C   UNL     1      10.983   0.036   7.089  0.00  0.00    +0.057 A 
BRANCH  27  29
ATOM     29  O   UNL     1      12.715   0.851   8.491  0.00  0.00    -0.491 OA
ATOM     30  C   UNL     1      12.361   2.157   8.032  0.00  0.00    +0.277 C 
ENDBRANCH  27  29
BRANCH  26  31
ATOM     31  O   UNL     1      13.292  -1.718   9.291  0.00  0.00    -0.503 OA
ATOM     32  H   UNL     1      14.156  -1.861   8.882  0.00  0.00    +0.292 HD
ENDBRANCH  26  31
ENDBRANCH  22  23
BRANCH  21  33
ATOM     33  C   UNL     1       7.849  -2.553   6.703  0.00  0.00    +0.104 C 
ATOM     34  N   UNL     1       7.701  -3.306   7.541  0.00  0.00    -0.191 NA
ENDBRANCH  21  33
ENDBRANCH   2  21
TORSDOF 10
