REMARK  Name = ZINC16721041
REMARK  1 active torsions:
REMARK  status: ('A' for Active; 'I' for Inactive)
REMARK    1  A    between atoms: C_8  and  N_9
REMARK                            x       y       z     vdW  Elec       q    Type
REMARK                         _______ _______ _______ _____ _____    ______ ____
ROOT
ATOM      1  C   UNL     1       0.300   0.832   2.077  0.00  0.00    +0.001 A 
ATOM      2  C   UNL     1       1.482   1.559   2.075  0.00  0.00    +0.001 A 
ATOM      3  C   UNL     1       2.596   1.090   1.413  0.00  0.00    +0.013 A 
ATOM      4  C   UNL     1       2.535  -0.130   0.738  0.00  0.00    +0.045 A 
ATOM      5  C   UNL     1       1.332  -0.866   0.742  0.00  0.00    +0.000 A 
ATOM      6  C   UNL     1       0.219  -0.376   1.416  0.00  0.00    +0.009 A 
ATOM      7  C   UNL     1       1.299  -2.153   0.018  0.00  0.00    +0.059 C 
ATOM      8  C   UNL     1       0.155  -2.918  -0.016  0.00  0.00    +0.087 C 
ATOM      9  C   UNL     1       2.522  -2.591  -0.666  0.00  0.00    +0.252 C 
ATOM     10  O   UNL     1       2.528  -3.647  -1.272  0.00  0.00    -0.270 OA
ATOM     11  N   UNL     1       3.634  -1.839  -0.630  0.00  0.00    -0.248 N 
ATOM     12  C   UNL     1       3.699  -0.665   0.019  0.00  0.00    +0.251 C 
ATOM     13  O   UNL     1       4.739  -0.035   0.012  0.00  0.00    -0.270 OA
ATOM     14  H   UNL     1       4.425  -2.158  -1.092  0.00  0.00    +0.158 HD
ENDROOT
BRANCH   8  15
ATOM     15  N   UNL     1      -1.065  -2.325   0.102  0.00  0.00    -0.299 N 
ATOM     16  C   UNL     1      -2.204  -3.102   0.213  0.00  0.00    +0.163 A 
ATOM     17  N   UNL     1      -2.311  -4.410   0.230  0.00  0.00    -0.225 NA
ATOM     18  C   UNL     1      -3.499  -5.041   0.345  0.00  0.00    +0.080 A 
ATOM     19  C   UNL     1      -3.750  -6.432   0.376  0.00  0.00    +0.029 A 
ATOM     20  C   UNL     1      -5.028  -6.910   0.499  0.00  0.00    +0.002 A 
ATOM     21  C   UNL     1      -6.116  -6.055   0.597  0.00  0.00    +0.001 A 
ATOM     22  C   UNL     1      -5.908  -4.688   0.571  0.00  0.00    +0.017 A 
ATOM     23  C   UNL     1      -4.631  -4.200   0.448  0.00  0.00    +0.041 A 
ATOM     24  S   UNL     1      -3.906  -2.579   0.378  0.00  0.00    -0.052 S 
ATOM     25  H   UNL     1      -1.135  -1.357   0.109  0.00  0.00    +0.154 HD
ENDBRANCH   8  15
TORSDOF 1
