REMARK  Name = ZINC35354912
REMARK  6 active torsions:
REMARK  status: ('A' for Active; 'I' for Inactive)
REMARK    1  A    between atoms: C_1  and  C_2
REMARK    2  A    between atoms: C_7  and  N_10
REMARK    3  A    between atoms: N_10  and  S_11
REMARK    4  A    between atoms: S_11  and  C_14
REMARK    5  A    between atoms: C_17  and  N_20
REMARK    6  A    between atoms: N_20  and  N_21
REMARK                            x       y       z     vdW  Elec       q    Type
REMARK                         _______ _______ _______ _____ _____    ______ ____
ROOT
ATOM      1  S   UNL     1      -0.974  -3.941   2.062  0.00  0.00    +0.059 S 
ATOM      2  O   UNL     1      -2.371  -4.151   1.908  0.00  0.00    -0.153 OA
ATOM      3  O   UNL     1      -0.010  -4.907   1.666  0.00  0.00    -0.153 OA
ENDROOT
BRANCH   1   4
ATOM      4  C   UNL     1      -0.698  -3.626   3.774  0.00  0.00    +0.105 A 
ATOM      5  C   UNL     1       0.547  -3.861   4.326  0.00  0.00    +0.030 A 
ATOM      6  C   UNL     1       0.767  -3.616   5.668  0.00  0.00    +0.026 A 
ATOM      7  C   UNL     1      -0.265  -3.132   6.462  0.00  0.00    +0.041 A 
ATOM      8  C   UNL     1      -1.515  -2.897   5.903  0.00  0.00    +0.026 A 
ATOM      9  C   UNL     1      -1.726  -3.139   4.560  0.00  0.00    +0.030 A 
BRANCH   7  10
ATOM     10  N   UNL     1      -0.046  -2.883   7.818  0.00  0.00    -0.283 N 
ATOM     11  H   UNL     1       0.827  -3.048   8.207  0.00  0.00    +0.166 HD
BRANCH  10  12
ATOM     12  N   UNL     1      -1.062  -2.407   8.598  0.00  0.00    -0.257 NA
ATOM     13  H   UNL     1      -1.866  -3.016   8.556  0.00  0.00    +0.140 HD
ATOM     14  H   UNL     1      -0.757  -2.277   9.550  0.00  0.00    +0.140 HD
ENDBRANCH  10  12
ENDBRANCH   7  10
ENDBRANCH   1   4
BRANCH   1  15
ATOM     15  N   UNL     1      -0.612  -2.548   1.244  0.00  0.00    -0.187 NA
ATOM     16  H   UNL     1      -1.309  -2.067   0.771  0.00  0.00    +0.148 HD
BRANCH  15  22
ATOM     17  C   UNL     1      -0.019   1.526   0.010  0.00  0.00    +0.007 C 
ATOM     18  C   UNL     1       0.002  -0.004   0.002  0.00  0.00    -0.013 C 
ATOM     19  C   UNL     1       0.718  -0.497  -1.257  0.00  0.00    +0.003 C 
ATOM     20  C   UNL     1       0.739  -2.027  -1.265  0.00  0.00    +0.002 C 
ATOM     21  C   UNL     1       1.479  -2.534  -0.026  0.00  0.00    +0.020 C 
ATOM     22  C   UNL     1       0.763  -2.041   1.233  0.00  0.00    +0.077 C 
ATOM     23  C   UNL     1       0.742  -0.511   1.242  0.00  0.00    +0.023 C 
ENDBRANCH  15  22
ENDBRANCH   1  15
TORSDOF 5
