REMARK  Name = ZINC12868645
REMARK  6 active torsions:
REMARK  status: ('A' for Active; 'I' for Inactive)
REMARK    1  A    between atoms: C_1  and  C_2
REMARK    2  A    between atoms: C_2  and  C_3
REMARK    3  A    between atoms: C_3  and  C_5
REMARK    4  A    between atoms: C_3  and  N_6
REMARK    5  A    between atoms: C_12  and  C_28
REMARK    6  A    between atoms: C_24  and  C_27
REMARK                            x       y       z     vdW  Elec       q    Type
REMARK                         _______ _______ _______ _____ _____    ______ ____
ROOT
ATOM      1  N   UNL     1      -3.703   7.548   1.974  0.00  0.00    -0.288 N 
ATOM      2  C   UNL     1      -2.869   8.731   2.099  0.00  0.00    +0.204 C 
ATOM      3  C   UNL     1      -1.683   8.682   1.191  0.00  0.00    +0.234 C 
ATOM      4  O   UNL     1      -0.892   9.601   1.240  0.00  0.00    -0.274 OA
ATOM      5  N   UNL     1      -1.437   7.693   0.329  0.00  0.00    -0.280 N 
ATOM      6  C   UNL     1      -0.150   7.663  -0.390  0.00  0.00    +0.122 C 
ATOM      7  C   UNL     1       0.627   6.412   0.037  0.00  0.00    +0.070 C 
ATOM      8  C   UNL     1      -0.305   5.228   0.034  0.00  0.00    -0.008 A 
ATOM      9  C   UNL     1       0.031   3.818   0.022  0.00  0.00    +0.004 A 
ATOM     10  C   UNL     1       1.250   3.133   0.006  0.00  0.00    +0.010 A 
ATOM     11  C   UNL     1       1.191   1.762   0.000  0.00  0.00    +0.001 A 
ATOM     12  C   UNL     1      -0.013   1.076   0.008  0.00  0.00    +0.002 A 
ATOM     13  C   UNL     1      -1.233   1.728   0.017  0.00  0.00    +0.026 A 
ATOM     14  C   UNL     1      -1.205   3.121   0.030  0.00  0.00    +0.047 A 
ATOM     15  N   UNL     1      -2.200   4.056   0.046  0.00  0.00    -0.356 N 
ATOM     16  H   UNL     1      -3.150   3.860   0.054  0.00  0.00    +0.166 HD
ATOM     17  C   UNL     1      -1.654   5.312   0.047  0.00  0.00    +0.054 A 
ATOM     18  C   UNL     1      -2.400   6.625   0.059  0.00  0.00    +0.151 C 
ATOM     19  C   UNL     1      -3.502   6.594   1.065  0.00  0.00    +0.246 C 
ATOM     20  O   UNL     1      -4.259   5.647   1.054  0.00  0.00    -0.273 OA
ATOM     21  C   UNL     1      -3.004   6.843  -1.329  0.00  0.00    +0.048 C 
ENDROOT
BRANCH   7  22
ATOM     22  C   UNL     1       1.183   6.612   1.423  0.00  0.00    -0.020 A 
ATOM     23  C   UNL     1       0.328   6.858   2.482  0.00  0.00    +0.006 A 
ATOM     24  C   UNL     1       0.837   7.042   3.753  0.00  0.00    +0.000 A 
ATOM     25  C   UNL     1       2.201   6.980   3.968  0.00  0.00    +0.001 A 
ATOM     26  C   UNL     1       3.057   6.734   2.911  0.00  0.00    +0.020 A 
ATOM     27  C   UNL     1       2.547   6.544   1.639  0.00  0.00    +0.045 A 
ATOM     28 CL   UNL     1       3.621   6.228   0.311  0.00  0.00    -0.083 Cl
ENDBRANCH   7  22
BRANCH   1  29
ATOM     29  C   UNL     1      -4.829   7.394   2.900  0.00  0.00    +0.073 C 
ATOM     30  C   UNL     1      -4.306   7.360   4.337  0.00  0.00    +0.028 C 
BRANCH  29  32
ATOM     31  C   UNL     1      -6.407   8.537   1.336  0.00  0.00    +0.005 C 
ATOM     32  C   UNL     1      -5.789   8.574   2.735  0.00  0.00    +0.019 C 
ENDBRANCH  29  32
ENDBRANCH   1  29
TORSDOF 3
