REMARK  Name = ZINC08658342
REMARK  11 active torsions:
REMARK  status: ('A' for Active; 'I' for Inactive)
REMARK    1  A    between atoms: C_1  and  C_2
REMARK    2  A    between atoms: C_7  and  N_8
REMARK    3  A    between atoms: C_9  and  C_23
REMARK    4  A    between atoms: C_12  and  S_13
REMARK    5  A    between atoms: S_13  and  C_14
REMARK    6  A    between atoms: C_14  and  C_16
REMARK    7  A    between atoms: C_14  and  C_17
REMARK    8  A    between atoms: C_26  and  C_29
REMARK    9  A    between atoms: C_29  and  C_30
REMARK   10  A    between atoms: C_29  and  C_31
REMARK   11  A    between atoms: C_29  and  C_32
REMARK                            x       y       z     vdW  Elec       q    Type
REMARK                         _______ _______ _______ _____ _____    ______ ____
ROOT
ATOM      1  N   UNL     1      -6.391   0.936  -1.150  0.00  0.00    -0.270 N 
ATOM      2  C   UNL     1      -7.062  -0.254  -0.968  0.00  0.00    +0.169 A 
ATOM      3  N   UNL     1      -6.205  -1.103  -0.449  0.00  0.00    -0.128 NA
ATOM      4  N   UNL     1      -5.061  -0.537  -0.299  0.00  0.00    -0.122 NA
ATOM      5  C   UNL     1      -5.117   0.712  -0.707  0.00  0.00    +0.197 A 
ENDROOT
BRANCH   1  12
ATOM      6  C   UNL     1      -7.572   2.804   0.643  0.00  0.00    +0.046 C 
ATOM      7  C   UNL     1      -7.492   3.065  -0.839  0.00  0.00    -0.026 A 
ATOM      8  C   UNL     1      -7.994   4.241  -1.363  0.00  0.00    +0.005 A 
ATOM      9  C   UNL     1      -7.926   4.478  -2.723  0.00  0.00    +0.000 A 
ATOM     10  C   UNL     1      -7.350   3.542  -3.563  0.00  0.00    +0.002 A 
ATOM     11  C   UNL     1      -6.841   2.368  -3.045  0.00  0.00    +0.026 A 
ATOM     12  C   UNL     1      -6.908   2.127  -1.679  0.00  0.00    +0.053 A 
ENDBRANCH   1  12
BRANCH   2  13
ATOM     13  C   UNL     1      -8.477  -0.525  -1.296  0.00  0.00    +0.020 A 
ATOM     14  C   UNL     1      -9.354   0.533  -1.541  0.00  0.00    +0.012 A 
ATOM     15  C   UNL     1     -10.674   0.274  -1.851  0.00  0.00    +0.005 A 
ATOM     16  C   UNL     1     -11.130  -1.031  -1.909  0.00  0.00    -0.042 A 
ATOM     17  C   UNL     1     -10.267  -2.084  -1.661  0.00  0.00    +0.005 A 
ATOM     18  C   UNL     1      -8.945  -1.839  -1.356  0.00  0.00    +0.012 A 
BRANCH  16  19
ATOM     19  C   UNL     1     -12.574  -1.307  -2.242  0.00  0.00    -0.013 C 
ATOM     20  C   UNL     1     -13.230  -2.061  -1.084  0.00  0.00    +0.015 C 
ATOM     21  C   UNL     1     -13.306   0.017  -2.469  0.00  0.00    +0.015 C 
ATOM     22  C   UNL     1     -12.651  -2.156  -3.512  0.00  0.00    +0.015 C 
ENDBRANCH  16  19
ENDBRANCH   2  13
BRANCH   5  23
ATOM     23  S   UNL     1      -3.795   1.877  -0.691  0.00  0.00    -0.073 S 
BRANCH  23  24
ATOM     24  C   UNL     1      -2.482   0.853   0.018  0.00  0.00    +0.137 C 
ATOM     25  C   UNL     1      -2.849   0.476   1.455  0.00  0.00    +0.029 C 
BRANCH  24  26
ATOM     26  C   UNL     1      -1.187   1.624   0.017  0.00  0.00    +0.233 C 
ATOM     27  O   UNL     1      -1.204   2.836   0.023  0.00  0.00    -0.274 OA
ATOM     28  N   UNL     1      -0.011   0.966   0.007  0.00  0.00    -0.239 N 
ATOM     29  C   UNL     1       1.147   1.655   0.000  0.00  0.00    +0.303 C 
ATOM     30  O   UNL     1       1.130   2.871   0.007  0.00  0.00    -0.253 OA
ATOM     31  N   UNL     1       2.323   0.998  -0.015  0.00  0.00    -0.313 N 
ATOM     32  H   UNL     1       0.002  -0.004   0.002  0.00  0.00    +0.159 HD
ATOM     33  H   UNL     1       2.336   0.028  -0.020  0.00  0.00    +0.146 HD
ATOM     34  H   UNL     1       3.156   1.494  -0.020  0.00  0.00    +0.146 HD
ENDBRANCH  24  26
ENDBRANCH  23  24
ENDBRANCH   5  23
TORSDOF 6
