REMARK  Name = ZINC12707024
REMARK  10 active torsions:
REMARK  status: ('A' for Active; 'I' for Inactive)
REMARK    1  A    between atoms: C_1  and  C_2
REMARK    2  A    between atoms: C_7  and  C_35
REMARK    3  A    between atoms: C_10  and  C_12
REMARK    4  A    between atoms: C_12  and  S_13
REMARK    5  A    between atoms: S_13  and  C_14
REMARK    6  A    between atoms: C_17  and  C_26
REMARK    7  A    between atoms: N_18  and  C_19
REMARK    8  A    between atoms: C_19  and  C_20
REMARK    9  A    between atoms: C_26  and  N_27
REMARK   10  A    between atoms: N_27  and  C_28
REMARK                            x       y       z     vdW  Elec       q    Type
REMARK                         _______ _______ _______ _____ _____    ______ ____
ROOT
ATOM      1  C   UNL     1      -3.431  -2.112  -0.534  0.00  0.00    +0.192 A 
ATOM      2  N   UNL     1      -4.599  -1.604  -0.848  0.00  0.00    -0.122 NA
ATOM      3  N   UNL     1      -5.022  -0.857   0.108  0.00  0.00    -0.132 NA
ATOM      4  C   UNL     1      -4.158  -0.848   1.084  0.00  0.00    +0.151 A 
ATOM      5  N   UNL     1      -3.111  -1.643   0.708  0.00  0.00    -0.302 N 
ENDROOT
BRANCH   1   6
ATOM      6  S   UNL     1      -2.458  -3.195  -1.527  0.00  0.00    -0.077 S 
BRANCH   6   7
ATOM      7  C   UNL     1      -3.531  -3.340  -2.978  0.00  0.00    +0.173 C 
BRANCH   7  15
ATOM      8  C   UNL     1      -1.866  -6.421  -5.202  0.00  0.00    +0.028 C 
ATOM      9  C   UNL     1      -3.200  -5.916  -5.755  0.00  0.00    +0.073 C 
ATOM     10  C   UNL     1      -3.052  -5.603  -7.248  0.00  0.00    +0.022 C 
ATOM     11  C   UNL     1      -4.346  -4.968  -7.763  0.00  0.00    +0.004 C 
ATOM     12  C   UNL     1      -4.605  -3.657  -7.018  0.00  0.00    +0.022 C 
ATOM     13  C   UNL     1      -4.774  -3.951  -5.519  0.00  0.00    +0.073 C 
ATOM     14  N   UNL     1      -3.592  -4.687  -5.051  0.00  0.00    -0.295 N 
ATOM     15  C   UNL     1      -2.884  -4.247  -3.993  0.00  0.00    +0.226 C 
ATOM     16  O   UNL     1      -1.726  -4.580  -3.857  0.00  0.00    -0.275 OA
ATOM     17  C   UNL     1      -4.899  -2.636  -4.748  0.00  0.00    +0.028 C 
ENDBRANCH   7  15
ENDBRANCH   6   7
ENDBRANCH   1   6
BRANCH   5  18
ATOM     18  C   UNL     1      -1.901  -1.936   1.479  0.00  0.00    +0.157 C 
BRANCH  18  19
ATOM     19  C   UNL     1      -0.823  -0.901   1.150  0.00  0.00    +0.138 C 
ATOM     20  C   UNL     1       0.479  -1.217   1.919  0.00  0.00    +0.035 C 
ATOM     21  C   UNL     1       1.036   0.173   2.301  0.00  0.00    +0.031 C 
ATOM     22  C   UNL     1       0.004   1.164   1.718  0.00  0.00    +0.160 C 
ATOM     23  O   UNL     1      -1.221   0.406   1.619  0.00  0.00    -0.375 OA
ENDBRANCH  18  19
ENDBRANCH   5  18
BRANCH   4  24
ATOM     24  C   UNL     1      -4.288  -0.098   2.385  0.00  0.00    +0.178 C 
BRANCH  24  25
ATOM     25  N   UNL     1      -3.704   1.238   2.239  0.00  0.00    -0.337 N 
ATOM     26  H   UNL     1      -3.315   1.507   1.392  0.00  0.00    +0.147 HD
BRANCH  25  27
ATOM     27  C   UNL     1      -3.706   2.124   3.320  0.00  0.00    +0.028 A 
ATOM     28  C   UNL     1      -4.267   1.741   4.532  0.00  0.00    +0.026 A 
ATOM     29  C   UNL     1      -4.264   2.616   5.600  0.00  0.00    +0.040 A 
ATOM     30  C   UNL     1      -3.711   3.878   5.461  0.00  0.00    +0.124 A 
ATOM     31  C   UNL     1      -3.156   4.264   4.253  0.00  0.00    +0.040 A 
ATOM     32  C   UNL     1      -3.153   3.390   3.183  0.00  0.00    +0.026 A 
ATOM     33  F   UNL     1      -3.714   4.734   6.506  0.00  0.00    -0.205 F 
ENDBRANCH  25  27
ENDBRANCH  24  25
ENDBRANCH   4  24
TORSDOF 8
