REMARK  Name = ZINC14902587
REMARK  8 active torsions:
REMARK  status: ('A' for Active; 'I' for Inactive)
REMARK    1  A    between atoms: C_1  and  C_2
REMARK    2  A    between atoms: C_5  and  C_8
REMARK    3  A    between atoms: C_9  and  C_34
REMARK    4  A    between atoms: C_17  and  C_19
REMARK    5  A    between atoms: C_19  and  S_20
REMARK    6  A    between atoms: S_20  and  C_21
REMARK    7  A    between atoms: C_24  and  C_27
REMARK    8  A    between atoms: N_25  and  N_26
REMARK                            x       y       z     vdW  Elec       q    Type
REMARK                         _______ _______ _______ _____ _____    ______ ____
ROOT
ATOM      1  C   UNL     1       2.485   1.511   1.462  0.00  0.00    +0.007 A 
ATOM      2  C   UNL     1       3.503   2.405   1.433  0.00  0.00    -0.003 A 
ATOM      3  S   UNL     1       2.679   3.959   1.147  0.00  0.00    -0.073 S 
ATOM      4  C   UNL     1       1.004   3.379   1.074  0.00  0.00    +0.116 A 
ATOM      5  C   UNL     1       1.122   1.994   1.273  0.00  0.00    +0.080 A 
ATOM      6  C   UNL     1      -0.106   1.258   1.262  0.00  0.00    +0.260 A 
ATOM      7  O   UNL     1      -0.105   0.050   1.426  0.00  0.00    -0.267 OA
ATOM      8  N   UNL     1      -1.260   1.920   1.062  0.00  0.00    -0.310 N 
ATOM      9  H   UNL     1      -2.095   1.426   1.050  0.00  0.00    +0.170 HD
ATOM     10  C   UNL     1      -1.280   3.266   0.884  0.00  0.00    +0.121 A 
ATOM     11  N   UNL     1      -0.177   3.964   0.888  0.00  0.00    -0.226 NA
ATOM     12  C   UNL     1       4.978   2.147   1.601  0.00  0.00    +0.052 C 
ENDROOT
BRANCH   1  17
ATOM     13  C   UNL     1       3.522  -4.088   2.318  0.00  0.00    +0.044 C 
ATOM     14  C   UNL     1       3.251  -2.623   2.094  0.00  0.00    -0.050 A 
ATOM     15  C   UNL     1       3.720  -2.002   0.950  0.00  0.00    +0.004 A 
ATOM     16  C   UNL     1       3.475  -0.660   0.740  0.00  0.00    +0.009 A 
ATOM     17  C   UNL     1       2.752   0.070   1.682  0.00  0.00    -0.016 A 
ATOM     18  C   UNL     1       2.286  -0.560   2.836  0.00  0.00    +0.009 A 
ATOM     19  C   UNL     1       2.533  -1.904   3.033  0.00  0.00    +0.004 A 
ENDBRANCH   1  17
BRANCH  10  20
ATOM     20  C   UNL     1      -2.598   3.965   0.670  0.00  0.00    +0.151 C 
BRANCH  20  21
ATOM     21  S   UNL     1      -2.312   5.739   0.455  0.00  0.00    -0.077 S 
BRANCH  21  22
ATOM     22  C   UNL     1      -3.970   6.292   0.230  0.00  0.00    +0.209 A 
ATOM     23  N   UNL     1      -5.048   5.541   0.229  0.00  0.00    -0.121 NA
ATOM     24  N   UNL     1      -6.091   6.268   0.042  0.00  0.00    -0.127 NA
ATOM     25  C   UNL     1      -5.742   7.526  -0.098  0.00  0.00    +0.184 A 
ATOM     26  N   UNL     1      -4.373   7.580   0.019  0.00  0.00    -0.224 N 
BRANCH  25  27
ATOM     27  C   UNL     1      -6.650   8.668  -0.334  0.00  0.00    +0.056 A 
ATOM     28  C   UNL     1      -6.352   9.607  -1.323  0.00  0.00    +0.014 A 
ATOM     29  C   UNL     1      -7.203  10.671  -1.539  0.00  0.00    +0.001 A 
ATOM     30  C   UNL     1      -8.351  10.809  -0.779  0.00  0.00    +0.003 A 
ATOM     31  C   UNL     1      -8.655   9.883   0.203  0.00  0.00    +0.039 A 
ATOM     32  C   UNL     1      -7.814   8.809   0.426  0.00  0.00    +0.134 A 
ATOM     33  F   UNL     1      -8.114   7.902   1.382  0.00  0.00    -0.205 F 
ENDBRANCH  25  27
BRANCH  26  34
ATOM     34  N   UNL     1      -3.581   8.690  -0.060  0.00  0.00    -0.295 N 
ATOM     35  H   UNL     1      -3.357   8.907  -1.020  0.00  0.00    +0.163 HD
ATOM     36  H   UNL     1      -4.016   9.478   0.397  0.00  0.00    +0.163 HD
ENDBRANCH  26  34
ENDBRANCH  21  22
ENDBRANCH  20  21
ENDBRANCH  10  20
TORSDOF 6
