REMARK  Name = ZINC09010262
REMARK  9 active torsions:
REMARK  status: ('A' for Active; 'I' for Inactive)
REMARK    1  A    between atoms: C_1  and  C_2
REMARK    2  A    between atoms: C_2  and  C_14
REMARK    3  A    between atoms: N_3  and  N_4
REMARK    4  A    between atoms: C_5  and  C_7
REMARK    5  A    between atoms: C_12  and  O_13
REMARK    6  A    between atoms: C_27  and  C_30
REMARK    7  A    between atoms: C_33  and  C_36
REMARK    8  A    between atoms: C_36  and  O_38
REMARK    9  A    between atoms: O_38  and  C_39
REMARK                            x       y       z     vdW  Elec       q    Type
REMARK                         _______ _______ _______ _____ _____    ______ ____
ROOT
ATOM      1  C   UNL     1       3.424  -2.976   0.982  0.00  0.00    -0.002 A 
ATOM      2  C   UNL     1       2.478  -4.004   0.918  0.00  0.00    +0.011 A 
ATOM      3  C   UNL     1       1.139  -3.703   0.823  0.00  0.00    +0.024 A 
ATOM      4  C   UNL     1       0.713  -2.379   0.791  0.00  0.00    +0.031 A 
ATOM      5  C   UNL     1       1.660  -1.348   0.868  0.00  0.00    -0.019 A 
ATOM      6  C   UNL     1       2.999  -1.645   0.956  0.00  0.00    +0.015 A 
ATOM      7  C   UNL     1       1.156   0.043   0.873  0.00  0.00    +0.049 C 
ATOM      8  C   UNL     1       1.982   1.179   0.390  0.00  0.00    -0.023 C 
ATOM      9  C   UNL     1       1.178   2.100  -0.126  0.00  0.00    -0.030 C 
ATOM     10  C   UNL     1      -0.274   1.623  -0.056  0.00  0.00    +0.033 C 
ATOM     11  C   UNL     1      -0.100   0.099  -0.048  0.00  0.00    +0.029 C 
ATOM     12  C   UNL     1      -1.162  -0.717   0.666  0.00  0.00    +0.105 C 
ATOM     13  N   UNL     1      -0.655  -2.107   0.679  0.00  0.00    -0.336 N 
ATOM     14  H   UNL     1      -1.282  -2.843   0.609  0.00  0.00    +0.147 HD
ENDROOT
BRANCH  12  15
ATOM     15  C   UNL     1      -1.344  -0.216   2.075  0.00  0.00    -0.027 A 
ATOM     16  C   UNL     1      -2.249   0.798   2.334  0.00  0.00    +0.006 A 
ATOM     17  C   UNL     1      -2.425   1.257   3.623  0.00  0.00    +0.015 A 
ATOM     18  C   UNL     1      -1.679   0.704   4.666  0.00  0.00    +0.059 A 
ATOM     19  C   UNL     1      -0.763  -0.315   4.396  0.00  0.00    +0.015 A 
ATOM     20  C   UNL     1      -0.601  -0.769   3.104  0.00  0.00    +0.006 A 
BRANCH  18  21
ATOM     21  C   UNL     1      -1.857   1.196   6.047  0.00  0.00    +0.339 C 
ATOM     22  O   UNL     1      -1.206   0.713   6.952  0.00  0.00    -0.245 OA
BRANCH  21  23
ATOM     23  O   UNL     1      -2.741   2.179   6.304  0.00  0.00    -0.464 OA
ATOM     24  C   UNL     1      -2.864   2.612   7.684  0.00  0.00    +0.280 C 
ENDBRANCH  21  23
ENDBRANCH  18  21
ENDBRANCH  12  15
BRANCH   1  26
ATOM     25  C   UNL     1       5.313  -4.731   1.104  0.00  0.00    +0.068 C 
ATOM     26  C   UNL     1       4.860  -3.295   1.077  0.00  0.00    +0.063 C 
ATOM     27  N   UNL     1       5.734  -2.337   1.136  0.00  0.00    -0.184 NA
BRANCH  27  28
ATOM     28  N   UNL     1       7.099  -2.639   1.226  0.00  0.00    -0.203 N 
ATOM     29  C   UNL     1       8.007  -1.645   1.288  0.00  0.00    +0.267 C 
ATOM     30  O   UNL     1       7.641  -0.485   1.266  0.00  0.00    -0.268 OA
ATOM     31  H   UNL     1       7.391  -3.564   1.244  0.00  0.00    +0.178 HD
BRANCH  29  32
ATOM     32  C   UNL     1       9.444  -1.964   1.382  0.00  0.00    +0.080 A 
ATOM     33  C   UNL     1       9.869  -3.295   1.408  0.00  0.00    +0.017 A 
ATOM     34  C   UNL     1      11.213  -3.585   1.496  0.00  0.00    +0.001 A 
ATOM     35  C   UNL     1      12.146  -2.563   1.559  0.00  0.00    +0.004 A 
ATOM     36  C   UNL     1      11.740  -1.244   1.535  0.00  0.00    +0.046 A 
ATOM     37  C   UNL     1      10.392  -0.933   1.441  0.00  0.00    +0.129 A 
BRANCH  37  38
ATOM     38  O   UNL     1       9.992   0.363   1.411  0.00  0.00    -0.506 OA
ATOM     39  H   UNL     1       9.819   0.742   2.284  0.00  0.00    +0.292 HD
ENDBRANCH  37  38
ENDBRANCH  29  32
ENDBRANCH  27  28
ENDBRANCH   1  26
TORSDOF 7
