REMARK  Name = ZINC10844103
REMARK  8 active torsions:
REMARK  status: ('A' for Active; 'I' for Inactive)
REMARK    1  A    between atoms: C_1  and  C_2
REMARK    2  A    between atoms: C_5  and  C_9
REMARK    3  A    between atoms: C_7  and  C_8
REMARK    4  A    between atoms: C_12  and  S_14
REMARK    5  A    between atoms: S_14  and  C_15
REMARK    6  A    between atoms: C_15  and  C_17
REMARK    7  A    between atoms: C_15  and  C_18
REMARK    8  A    between atoms: N_20  and  C_21
REMARK                            x       y       z     vdW  Elec       q    Type
REMARK                         _______ _______ _______ _____ _____    ______ ____
ROOT
ATOM      1  S   UNL     1       1.849   3.411   0.004  0.00  0.00    -0.053 S 
ENDROOT
BRANCH   1   5
ATOM      2  C   UNL     1      -0.006   0.004   0.025  0.00  0.00    +0.249 A 
ATOM      3  N   UNL     1       1.249  -0.374   0.015  0.00  0.00    -0.106 NA
ATOM      4  N   UNL     1       2.008   0.665   0.008  0.00  0.00    -0.101 NA
ATOM      5  C   UNL     1       1.266   1.748   0.012  0.00  0.00    +0.278 A 
ATOM      6  O   UNL     1      -0.022   1.355   0.023  0.00  0.00    -0.411 OA
BRANCH   2  11
ATOM      7  C   UNL     1      -4.604  -3.456   0.069  0.00  0.00    +0.044 C 
ATOM      8  C   UNL     1      -3.400  -2.550   0.057  0.00  0.00    -0.047 A 
ATOM      9  C   UNL     1      -3.571  -1.176   0.056  0.00  0.00    +0.004 A 
ATOM     10  C   UNL     1      -2.473  -0.341   0.051  0.00  0.00    +0.013 A 
ATOM     11  C   UNL     1      -1.187  -0.885   0.036  0.00  0.00    +0.039 A 
ATOM     12  C   UNL     1      -1.021  -2.271   0.037  0.00  0.00    +0.016 A 
ATOM     13  C   UNL     1      -2.128  -3.094   0.048  0.00  0.00    -0.047 A 
ATOM     14  C   UNL     1      -1.951  -4.591   0.049  0.00  0.00    +0.044 C 
ENDBRANCH   2  11
ENDBRANCH   1   5
BRANCH   1  15
ATOM     15  C   UNL     1       3.635   3.118  -0.010  0.00  0.00    +0.139 C 
ATOM     16  C   UNL     1       4.029   2.431  -1.319  0.00  0.00    +0.029 C 
BRANCH  15  17
ATOM     17  C   UNL     1       4.361   4.434   0.105  0.00  0.00    +0.230 C 
ATOM     18  O   UNL     1       3.790   5.468  -0.172  0.00  0.00    -0.274 OA
ATOM     19  N   UNL     1       5.644   4.462   0.516  0.00  0.00    -0.285 N 
ATOM     20  H   UNL     1       6.080   3.644   0.802  0.00  0.00    +0.155 HD
BRANCH  19  21
ATOM     21  C   UNL     1       6.348   5.672   0.531  0.00  0.00    +0.033 A 
ATOM     22  C   UNL     1       7.705   5.691   0.236  0.00  0.00    +0.024 A 
ATOM     23  C   UNL     1       8.395   6.886   0.245  0.00  0.00    +0.017 A 
ATOM     24  C   UNL     1       7.739   8.063   0.559  0.00  0.00    +0.018 A 
ATOM     25  C   UNL     1       6.389   8.047   0.860  0.00  0.00    +0.017 A 
ATOM     26  C   UNL     1       5.692   6.854   0.846  0.00  0.00    +0.024 A 
ATOM     27 BR   UNL     1       8.690   9.698   0.578  0.00  0.00    -0.050 Br
ENDBRANCH  19  21
ENDBRANCH  15  17
ENDBRANCH   1  15
TORSDOF 5
