REMARK  Name = ZINC66193014
REMARK  9 active torsions:
REMARK  status: ('A' for Active; 'I' for Inactive)
REMARK    1  A    between atoms: C_1  and  C_2
REMARK    2  A    between atoms: C_2  and  C_3
REMARK    3  A    between atoms: C_3  and  C_4
REMARK    4  A    between atoms: C_4  and  N_5
REMARK    5  A    between atoms: C_8  and  N_11
REMARK    6  A    between atoms: N_14  and  C_15
REMARK    7  A    between atoms: N_14  and  C_16
REMARK    8  A    between atoms: N_19  and  C_22
REMARK    9  A    between atoms: C_25  and  C_28
REMARK                            x       y       z     vdW  Elec       q    Type
REMARK                         _______ _______ _______ _____ _____    ______ ____
ROOT
ATOM      1  N   UNL     1       2.499  -4.513   5.997  0.00  0.00    -0.297 N 
ATOM      2  C   UNL     1       2.393  -5.767   6.479  0.00  0.00    +0.302 C 
ATOM      3  O   UNL     1       1.626  -6.555   5.960  0.00  0.00    -0.253 OA
ATOM      4  N   UNL     1       3.136  -6.147   7.538  0.00  0.00    -0.286 N 
ATOM      5  C   UNL     1       4.059  -5.197   8.163  0.00  0.00    +0.134 C 
ATOM      6  H   UNL     1       3.110  -3.884   6.411  0.00  0.00    +0.151 HD
ENDROOT
BRANCH   1  10
ATOM      7  N   UNL     1       1.473  -2.527   2.423  0.00  0.00    +0.380 N 
ATOM      8  C   UNL     1       0.725  -2.147   3.627  0.00  0.00    -0.077 C 
ATOM      9  C   UNL     1       1.501  -2.581   4.873  0.00  0.00    +0.004 C 
ATOM     10  C   UNL     1       1.691  -4.100   4.846  0.00  0.00    +0.071 C 
ATOM     11  C   UNL     1       2.407  -4.493   3.550  0.00  0.00    +0.004 C 
ATOM     12  C   UNL     1       1.597  -3.988   2.354  0.00  0.00    -0.077 C 
ATOM     13  H   UNL     1       2.393  -2.114   2.457  0.00  0.00    -0.082 HD
BRANCH   7  14
ATOM     14  C   UNL     1       0.763  -2.041   1.233  0.00  0.00    -0.079 C 
BRANCH  14  15
ATOM     15  C   UNL     1       0.742  -0.511   1.242  0.00  0.00    -0.019 C 
BRANCH  15  17
ATOM     16  C   UNL     1      -0.019   1.526   0.010  0.00  0.00    +0.004 C 
ATOM     17  C   UNL     1       0.002  -0.004   0.002  0.00  0.00    -0.005 C 
ENDBRANCH  15  17
ENDBRANCH  14  15
ENDBRANCH   7  14
ENDBRANCH   1  10
BRANCH   4  18
ATOM     18  C   UNL     1       3.020  -7.510   8.062  0.00  0.00    +0.074 C 
ATOM     19  C   UNL     1       2.573  -7.458   9.526  0.00  0.00    +0.004 C 
ATOM     20  C   UNL     1       2.531  -8.880  10.091  0.00  0.00    -0.077 C 
ATOM     21  N   UNL     1       3.866  -9.484  10.007  0.00  0.00    +0.382 N 
ATOM     22  C   UNL     1       4.271  -9.602   8.601  0.00  0.00    -0.077 C 
ATOM     23  C   UNL     1       4.380  -8.208   7.979  0.00  0.00    +0.004 C 
ATOM     24  H   UNL     1       4.529  -8.903  10.499  0.00  0.00    -0.081 HD
BRANCH  21  25
ATOM     25  C   UNL     1       3.839 -10.818  10.620  0.00  0.00    -0.069 C 
ATOM     26  C   UNL     1       3.425 -10.695  12.088  0.00  0.00    -0.015 C 
ATOM     27  C   UNL     1       3.397 -12.085  12.728  0.00  0.00    +0.002 C 
ATOM     28  C   UNL     1       4.788 -12.716  12.640  0.00  0.00    -0.014 C 
ATOM     29  C   UNL     1       5.201 -12.838  11.172  0.00  0.00    +0.002 C 
ATOM     30  C   UNL     1       5.230 -11.448  10.533  0.00  0.00    -0.015 C 
ATOM     31  C   UNL     1       5.795 -11.834  13.382  0.00  0.00    +0.007 C 
ENDBRANCH  21  25
ENDBRANCH   4  18
TORSDOF 6
