REMARK  Name = ZINC03020180
REMARK  5 active torsions:
REMARK  status: ('A' for Active; 'I' for Inactive)
REMARK    1  A    between atoms: C_6  and  S_7
REMARK    2  A    between atoms: S_7  and  C_8
REMARK    3  A    between atoms: C_11  and  C_17
REMARK    4  A    between atoms: C_13  and  N_14
REMARK    5  A    between atoms: N_19  and  C_20
REMARK                            x       y       z     vdW  Elec       q    Type
REMARK                         _______ _______ _______ _____ _____    ______ ____
ROOT
ATOM      1  C   UNL     1      -1.397   2.385  -6.802  0.00  0.00    +0.043 A 
ATOM      2  C   UNL     1      -1.798   2.131  -5.493  0.00  0.00    +0.018 A 
ATOM      3  C   UNL     1      -0.924   2.313  -4.459  0.00  0.00    +0.014 A 
ATOM      4  C   UNL     1       0.378   2.755  -4.713  0.00  0.00    +0.039 A 
ATOM      5  C   UNL     1       0.782   3.016  -6.026  0.00  0.00    +0.047 A 
ATOM      6  C   UNL     1      -0.101   2.825  -7.064  0.00  0.00    +0.141 A 
ENDROOT
BRANCH   4   7
ATOM      7  C   UNL     1       1.322   2.953  -3.596  0.00  0.00    +0.245 C 
ATOM      8  O   UNL     1       2.454   3.337  -3.818  0.00  0.00    -0.270 OA
ATOM      9  N   UNL     1       0.929   2.707  -2.331  0.00  0.00    -0.300 N 
ATOM     10  H   UNL     1       0.026   2.400  -2.154  0.00  0.00    +0.150 HD
BRANCH   9  11
ATOM     11  C   UNL     1       1.867   2.902  -1.222  0.00  0.00    +0.159 C 
ATOM     12  C   UNL     1       1.097   2.947   0.101  0.00  0.00    +0.032 C 
ATOM     13  C   UNL     1      -0.094   2.007   0.062  0.00  0.00    +0.004 C 
ATOM     14  C   UNL     1       0.285   0.539  -0.009  0.00  0.00    +0.019 C 
ATOM     15  C   UNL     1       0.957   0.213  -1.344  0.00  0.00    +0.104 C 
ATOM     16  N   UNL     1       2.398   0.489  -1.226  0.00  0.00    -0.314 N 
ATOM     17  C   UNL     1       2.843   1.746  -1.170  0.00  0.00    +0.233 C 
ATOM     18  O   UNL     1       4.032   1.962  -1.078  0.00  0.00    -0.274 OA
ATOM     19  H   UNL     1       3.029  -0.247  -1.189  0.00  0.00    +0.149 HD
ENDBRANCH   9  11
ENDBRANCH   4   7
BRANCH   6  20
ATOM     20  N   UNL     1       0.323   3.094  -8.456  0.00  0.00    +0.058 N 
ATOM     21  O   UNL     1       1.456   3.479  -8.684  0.00  0.00    -0.126 OA
ATOM     22  O   UNL     1      -0.460   2.929  -9.374  0.00  0.00    -0.126 OA
ENDBRANCH   6  20
BRANCH   1  23
ATOM     23  S   UNL     1      -2.529   2.148  -8.131  0.00  0.00    -0.087 S 
BRANCH  23  29
ATOM     24  C   UNL     1      -4.396   0.434  -7.098  0.00  0.00    +0.016 A 
ATOM     25  C   UNL     1      -5.585   0.133  -6.465  0.00  0.00    +0.016 A 
ATOM     26  C   UNL     1      -6.439   1.149  -6.072  0.00  0.00    +0.018 A 
ATOM     27  C   UNL     1      -6.100   2.470  -6.307  0.00  0.00    +0.016 A 
ATOM     28  C   UNL     1      -4.909   2.778  -6.934  0.00  0.00    +0.016 A 
ATOM     29  C   UNL     1      -4.050   1.759  -7.330  0.00  0.00    +0.013 A 
ATOM     30 BR   UNL     1      -8.071   0.732  -5.213  0.00  0.00    -0.050 Br
ENDBRANCH  23  29
ENDBRANCH   1  23
TORSDOF 5
