REMARK  Name = ZINC10472652
REMARK  11 active torsions:
REMARK  status: ('A' for Active; 'I' for Inactive)
REMARK    1  A    between atoms: C_1  and  C_2
REMARK    2  A    between atoms: C_6  and  C_14
REMARK    3  A    between atoms: C_12  and  C_13
REMARK    4  A    between atoms: C_14  and  O_15
REMARK    5  A    between atoms: O_15  and  C_16
REMARK    6  A    between atoms: C_16  and  C_18
REMARK    7  A    between atoms: C_18  and  C_20
REMARK    8  A    between atoms: C_18  and  S_21
REMARK    9  A    between atoms: S_21  and  C_22
REMARK   10  A    between atoms: C_22  and  C_23
REMARK   11  A    between atoms: N_25  and  C_26
REMARK                            x       y       z     vdW  Elec       q    Type
REMARK                         _______ _______ _______ _____ _____    ______ ____
ROOT
ATOM      1  C   UNL     1       5.246   5.438  -0.011  0.00  0.00    +0.320 C 
ATOM      2  O   UNL     1       4.301   6.191  -0.007  0.00  0.00    -0.250 OA
ENDROOT
BRANCH   1   3
ATOM      3  C   UNL     1       6.649   5.989  -0.019  0.00  0.00    +0.152 C 
ATOM      4  C   UNL     1       7.162   6.056  -1.458  0.00  0.00    +0.031 C 
BRANCH   3   5
ATOM      5  S   UNL     1       6.649   7.654   0.702  0.00  0.00    -0.137 S 
BRANCH   5   6
ATOM      6  C   UNL     1       8.404   8.107   0.759  0.00  0.00    +0.166 C 
BRANCH   6   7
ATOM      7  C   UNL     1       8.547   9.488   1.345  0.00  0.00    +0.227 C 
ATOM      8  O   UNL     1       7.562  10.105   1.690  0.00  0.00    -0.275 OA
ATOM      9  N   UNL     1       9.771  10.036   1.486  0.00  0.00    -0.285 N 
ATOM     10  H   UNL     1      10.562   9.518   1.273  0.00  0.00    +0.155 HD
BRANCH   9  11
ATOM     11  C   UNL     1       9.898  11.355   1.940  0.00  0.00    +0.034 A 
ATOM     12  C   UNL     1      10.917  12.162   1.452  0.00  0.00    +0.026 A 
ATOM     13  C   UNL     1      11.038  13.464   1.897  0.00  0.00    +0.040 A 
ATOM     14  C   UNL     1      10.151  13.961   2.837  0.00  0.00    +0.124 A 
ATOM     15  C   UNL     1       9.137  13.156   3.329  0.00  0.00    +0.040 A 
ATOM     16  C   UNL     1       9.010  11.855   2.883  0.00  0.00    +0.026 A 
ATOM     17  F   UNL     1      10.274  15.233   3.274  0.00  0.00    -0.205 F 
ENDBRANCH   9  11
ENDBRANCH   6   7
ENDBRANCH   5   6
ENDBRANCH   3   5
ENDBRANCH   1   3
BRANCH   1  18
ATOM     18  O   UNL     1       5.046   4.111  -0.008  0.00  0.00    -0.459 OA
BRANCH  18  19
ATOM     19  C   UNL     1       3.668   3.652  -0.001  0.00  0.00    +0.268 C 
BRANCH  19  25
ATOM     20  C   UNL     1      -1.304  -0.764   0.031  0.00  0.00    +0.044 C 
ATOM     21  C   UNL     1      -0.004  -0.002   0.023  0.00  0.00    -0.044 A 
ATOM     22  C   UNL     1      -0.021   1.386   0.022  0.00  0.00    +0.004 A 
ATOM     23  C   UNL     1       1.148   2.094   0.015  0.00  0.00    +0.012 A 
ATOM     24  C   UNL     1       2.370   1.415   0.009  0.00  0.00    +0.024 A 
ATOM     25  C   UNL     1       3.641   2.145   0.002  0.00  0.00    +0.007 A 
ATOM     26  C   UNL     1       4.793   1.427  -0.004  0.00  0.00    +0.099 A 
ATOM     27  C   UNL     1       4.740   0.016  -0.002  0.00  0.00    +0.338 A 
ATOM     28  O   UNL     1       5.780  -0.617  -0.007  0.00  0.00    -0.245 OA
ATOM     29  O   UNL     1       3.572  -0.646   0.005  0.00  0.00    -0.422 OA
ATOM     30  C   UNL     1       2.392   0.009   0.011  0.00  0.00    +0.143 A 
ATOM     31  C   UNL     1       1.191  -0.690   0.018  0.00  0.00    -0.005 A 
ATOM     32  C   UNL     1       1.195  -2.197   0.020  0.00  0.00    +0.048 C 
ENDBRANCH  19  25
ENDBRANCH  18  19
ENDBRANCH   1  18
TORSDOF 8
