REMARK  Name = ZINC08790365
REMARK  9 active torsions:
REMARK  status: ('A' for Active; 'I' for Inactive)
REMARK    1  A    between atoms: C_1  and  C_2
REMARK    2  A    between atoms: C_9  and  C_34
REMARK    3  A    between atoms: C_10  and  C_17
REMARK    4  A    between atoms: C_15  and  C_16
REMARK    5  A    between atoms: C_17  and  C_18
REMARK    6  A    between atoms: C_18  and  C_19
REMARK    7  A    between atoms: N_21  and  C_22
REMARK    8  A    between atoms: C_22  and  C_23
REMARK    9  A    between atoms: C_23  and  C_24
REMARK                            x       y       z     vdW  Elec       q    Type
REMARK                         _______ _______ _______ _____ _____    ______ ____
ROOT
ATOM      1  C   UNL     1      -0.729   1.579   1.267  0.00  0.00    +0.052 C 
ENDROOT
BRANCH   1  11
ATOM      2  C   UNL     1      -0.151  -4.531   6.723  0.00  0.00    +0.047 C 
ATOM      3  C   UNL     1       0.771  -3.344   6.842  0.00  0.00    -0.005 A 
ATOM      4  C   UNL     1       1.716  -3.151   7.769  0.00  0.00    +0.199 A 
ATOM      5  O   UNL     1       2.341  -1.978   7.560  0.00  0.00    -0.462 OA
ATOM      6  C   UNL     1       1.833  -1.345   6.483  0.00  0.00    +0.141 A 
ATOM      7  C   UNL     1       0.812  -2.167   5.963  0.00  0.00    +0.024 A 
ATOM      8  C   UNL     1       0.097  -1.775   4.840  0.00  0.00    +0.023 A 
ATOM      9  C   UNL     1       0.400  -0.559   4.228  0.00  0.00    +0.022 A 
ATOM     10  C   UNL     1      -0.340  -0.111   3.043  0.00  0.00    -0.030 A 
ATOM     11  C   UNL     1       0.000   1.080   2.488  0.00  0.00    +0.041 A 
ATOM     12  C   UNL     1       1.033   1.852   3.060  0.00  0.00    +0.341 A 
ATOM     13  O   UNL     1       1.325   2.921   2.553  0.00  0.00    -0.245 OA
ATOM     14  O   UNL     1       1.704   1.441   4.147  0.00  0.00    -0.422 OA
ATOM     15  C   UNL     1       1.421   0.263   4.748  0.00  0.00    +0.146 A 
ATOM     16  C   UNL     1       2.127  -0.137   5.869  0.00  0.00    +0.035 A 
ATOM     17  C   UNL     1       3.219   0.742   6.423  0.00  0.00    +0.051 C 
ATOM     18  C   UNL     1      -1.443  -0.952   2.456  0.00  0.00    +0.045 C 
ENDBRANCH   1  11
BRANCH   1  19
ATOM     19  C   UNL     1      -0.013   1.086   0.008  0.00  0.00    +0.100 C 
BRANCH  19  20
ATOM     20  C   UNL     1      -0.742   1.585  -1.213  0.00  0.00    +0.213 C 
ATOM     21  O   UNL     1      -1.736   2.268  -1.088  0.00  0.00    -0.276 OA
ATOM     22  N   UNL     1      -0.288   1.272  -2.443  0.00  0.00    -0.315 N 
ATOM     23  H   UNL     1       0.507   0.726  -2.543  0.00  0.00    +0.149 HD
BRANCH  22  24
ATOM     24  C   UNL     1      -0.997   1.758  -3.630  0.00  0.00    +0.109 C 
BRANCH  24  25
ATOM     25  C   UNL     1      -0.281   1.264  -4.889  0.00  0.00    +0.056 C 
BRANCH  25  26
ATOM     26  C   UNL     1      -1.010   1.763  -6.110  0.00  0.00    -0.021 A 
ATOM     27  C   UNL     1      -1.938   1.096  -6.814  0.00  0.00    +0.087 A 
ATOM     28  N   UNL     1      -2.378   1.869  -7.854  0.00  0.00    -0.360 N 
ATOM     29  H   UNL     1      -3.050   1.601  -8.501  0.00  0.00    +0.165 HD
ATOM     30  C   UNL     1      -1.721   3.079  -7.850  0.00  0.00    +0.047 A 
ATOM     31  C   UNL     1      -0.836   3.066  -6.757  0.00  0.00    +0.003 A 
ATOM     32  C   UNL     1      -0.029   4.176  -6.501  0.00  0.00    +0.010 A 
ATOM     33  C   UNL     1      -0.104   5.271  -7.315  0.00  0.00    +0.001 A 
ATOM     34  C   UNL     1      -0.976   5.289  -8.395  0.00  0.00    +0.002 A 
ATOM     35  C   UNL     1      -1.781   4.204  -8.665  0.00  0.00    +0.026 A 
ENDBRANCH  25  26
ENDBRANCH  24  25
ENDBRANCH  22  24
ENDBRANCH  19  20
ENDBRANCH   1  19
TORSDOF 6
