REMARK  Name = ZINC05072937
REMARK  4 active torsions:
REMARK  status: ('A' for Active; 'I' for Inactive)
REMARK    1  A    between atoms: C_1  and  C_2
REMARK    2  A    between atoms: C_11  and  N_25
REMARK    3  A    between atoms: C_12  and  C_23
REMARK    4  A    between atoms: C_13  and  C_15
REMARK                            x       y       z     vdW  Elec       q    Type
REMARK                         _______ _______ _______ _____ _____    ______ ____
ROOT
ATOM      1  C   UNL     1      -3.619   2.133   0.047  0.00  0.00    +0.086 C 
ATOM      2  C   UNL     1      -2.325   1.361   0.031  0.00  0.00    +0.110 A 
ATOM      3  N   UNL     1      -2.365   0.014   0.024  0.00  0.00    -0.311 N 
ATOM      4  H   UNL     1      -3.334  -0.507   0.029  0.00  0.00    +0.170 HD
ATOM      5  C   UNL     1      -1.218  -0.698   0.009  0.00  0.00    +0.259 A 
ATOM      6  O   UNL     1      -1.242  -1.918   0.003  0.00  0.00    -0.267 OA
ATOM      7  C   UNL     1       0.002  -0.004   0.002  0.00  0.00    +0.091 A 
ATOM      8  C   UNL     1      -0.017   1.373   0.010  0.00  0.00    +0.233 A 
ATOM      9  N   UNL     1      -1.196   2.015   0.019  0.00  0.00    -0.199 NA
ATOM     10  O   UNL     1       1.132   2.082   0.002  0.00  0.00    -0.423 OA
ATOM     11  C   UNL     1       2.287   1.495   0.363  0.00  0.00    +0.200 C 
ATOM     12  C   UNL     1       2.433   0.149   0.377  0.00  0.00    +0.098 C 
ATOM     13  C   UNL     1       1.301  -0.760  -0.014  0.00  0.00    +0.106 C 
ENDROOT
BRANCH  13  14
ATOM     14  C   UNL     1       1.548  -1.299  -1.400  0.00  0.00    -0.015 A 
ATOM     15  C   UNL     1       1.652  -0.430  -2.471  0.00  0.00    +0.006 A 
ATOM     16  C   UNL     1       1.879  -0.924  -3.742  0.00  0.00    +0.002 A 
ATOM     17  C   UNL     1       2.002  -2.286  -3.944  0.00  0.00    +0.021 A 
ATOM     18  C   UNL     1       1.897  -3.156  -2.874  0.00  0.00    +0.060 A 
ATOM     19  C   UNL     1       1.677  -2.661  -1.599  0.00  0.00    +0.063 A 
ATOM     20 CL   UNL     1       1.554  -3.752  -0.254  0.00  0.00    -0.082 Cl
ATOM     21 CL   UNL     1       2.052  -4.866  -3.127  0.00  0.00    -0.082 Cl
ENDBRANCH  13  14
BRANCH  11  22
ATOM     22  N   UNL     1       3.349   2.284   0.728  0.00  0.00    -0.328 N 
ATOM     23  H   UNL     1       4.301   1.821   1.025  0.00  0.00    +0.145 HD
ATOM     24  H   UNL     1       3.248   3.379   0.722  0.00  0.00    +0.145 HD
ENDBRANCH  11  22
BRANCH  12  25
ATOM     25  C   UNL     1       3.688  -0.418   0.770  0.00  0.00    +0.101 C 
ATOM     26  N   UNL     1       4.683  -0.868   1.082  0.00  0.00    -0.191 NA
ENDBRANCH  12  25
TORSDOF 3
