REMARK  Name = ZINC33634139
REMARK  7 active torsions:
REMARK  status: ('A' for Active; 'I' for Inactive)
REMARK    1  A    between atoms: C_1  and  O_2
REMARK    2  A    between atoms: O_2  and  C_3
REMARK    3  A    between atoms: C_3  and  C_5
REMARK    4  A    between atoms: C_8  and  C_11
REMARK    5  A    between atoms: C_22  and  C_24
REMARK    6  A    between atoms: C_22  and  C_31
REMARK    7  A    between atoms: C_24  and  C_25
REMARK                            x       y       z     vdW  Elec       q    Type
REMARK                         _______ _______ _______ _____ _____    ______ ____
ROOT
ATOM      1  C   UNL     1      -0.402   2.888   1.251  0.00  0.00    -0.027 C 
ATOM      2  C   UNL     1      -0.129   1.680   0.460  0.00  0.00    +0.078 C 
ATOM      3  C   UNL     1       1.410   1.812   0.123  0.00  0.00    +0.087 C 
ATOM      4  C   UNL     1       1.442   0.691  -0.882  0.00  0.00    +0.242 C 
ATOM      5  O   UNL     1       2.108   0.634  -1.893  0.00  0.00    -0.273 OA
ATOM      6  N   UNL     1       0.565  -0.248  -0.419  0.00  0.00    -0.145 NA
ATOM      7  C   UNL     1      -0.289   0.246   0.536  0.00  0.00    +0.242 C 
ATOM      8  O   UNL     1      -1.014  -0.381   1.277  0.00  0.00    -0.273 OA
ATOM      9  C   UNL     1       1.343   3.260  -0.382  0.00  0.00    +0.048 C 
ATOM     10  N   UNL     1       0.493   3.933   0.653  0.00  0.00    +0.395 N 
ATOM     11  H   UNL     1      -0.120   4.722   0.193  0.00  0.00    -0.083 HD
ATOM     12  H   UNL     1       1.123   4.371   1.442  0.00  0.00    -0.083 HD
ENDROOT
BRANCH   1  16
ATOM     13  C   UNL     1       0.592   2.242   5.360  0.00  0.00    +0.059 A 
ATOM     14  C   UNL     1      -0.737   2.159   4.938  0.00  0.00    +0.015 A 
ATOM     15  C   UNL     1      -1.050   2.368   3.611  0.00  0.00    +0.003 A 
ATOM     16  C   UNL     1      -0.052   2.661   2.699  0.00  0.00    -0.061 A 
ATOM     17  C   UNL     1       1.267   2.739   3.109  0.00  0.00    +0.003 A 
ATOM     18  C   UNL     1       1.594   2.537   4.434  0.00  0.00    +0.015 A 
BRANCH  13  19
ATOM     19  C   UNL     1       0.935   2.018   6.779  0.00  0.00    +0.339 C 
ATOM     20  O   UNL     1       0.060   1.761   7.582  0.00  0.00    -0.245 OA
BRANCH  19  22
ATOM     21  C   UNL     1       2.481   1.868   8.592  0.00  0.00    +0.280 C 
ATOM     22  O   UNL     1       2.217   2.099   7.183  0.00  0.00    -0.464 OA
ENDBRANCH  19  22
ENDBRANCH  13  19
ENDBRANCH   1  16
BRANCH   9  23
ATOM     23  C   UNL     1       0.689   3.322  -1.738  0.00  0.00    +0.346 C 
ATOM     24  O   UNL     1       0.757   2.376  -2.486  0.00  0.00    -0.248 OA
ATOM     25  O   UNL     1       0.031   4.430  -2.116  0.00  0.00    -0.248 OA
ENDBRANCH   9  23
BRANCH   9  26
ATOM     26  C   UNL     1       2.740   3.883  -0.427  0.00  0.00    +0.003 C 
BRANCH  26  27
ATOM     27  C   UNL     1       2.654   5.282  -1.041  0.00  0.00    -0.012 C 
ATOM     28  C   UNL     1       4.065   5.843  -1.230  0.00  0.00    +0.003 C 
ATOM     29  C   UNL     1       3.980   7.242  -1.844  0.00  0.00    +0.000 C 
ATOM     30  C   UNL     1       3.187   8.160  -0.912  0.00  0.00    +0.000 C 
ATOM     31  C   UNL     1       1.776   7.599  -0.723  0.00  0.00    +0.000 C 
ATOM     32  C   UNL     1       1.861   6.201  -0.109  0.00  0.00    +0.003 C 
ENDBRANCH  26  27
ENDBRANCH   9  26
TORSDOF 6
