REMARK  Name = ZINC32960903
REMARK  11 active torsions:
REMARK  status: ('A' for Active; 'I' for Inactive)
REMARK    1  A    between atoms: C_1  and  N_2
REMARK    2  A    between atoms: N_2  and  C_3
REMARK    3  A    between atoms: N_2  and  C_4
REMARK    4  A    between atoms: C_4  and  C_6
REMARK    5  A    between atoms: C_4  and  C_29
REMARK    6  A    between atoms: C_6  and  N_7
REMARK    7  A    between atoms: C_8  and  C_10
REMARK    8  A    between atoms: C_14  and  S_16
REMARK    9  A    between atoms: S_16  and  N_19
REMARK   10  A    between atoms: C_32  and  O_35
REMARK   11  A    between atoms: O_35  and  C_36
REMARK                            x       y       z     vdW  Elec       q    Type
REMARK                         _______ _______ _______ _____ _____    ______ ____
ROOT
ATOM      1  C   UNL     1      -0.986   1.584   0.356  0.00  0.00    +0.039 A 
ATOM      2  C   UNL     1       0.200   0.865   0.199  0.00  0.00    +0.013 A 
ATOM      3  C   UNL     1       1.408   1.531   0.172  0.00  0.00    +0.003 A 
ATOM      4  C   UNL     1       1.445   2.908   0.307  0.00  0.00    +0.029 A 
ATOM      5  C   UNL     1       0.274   3.625   0.470  0.00  0.00    +0.109 A 
ATOM      6  C   UNL     1      -0.941   2.971   0.497  0.00  0.00    +0.041 A 
ENDROOT
BRANCH   1   8
ATOM      7  N   UNL     1      -2.325  -0.464   0.248  0.00  0.00    -0.313 N 
ATOM      8  C   UNL     1      -2.285   0.877   0.379  0.00  0.00    +0.244 C 
ATOM      9  O   UNL     1      -3.316   1.505   0.517  0.00  0.00    -0.270 OA
ATOM     10  H   UNL     1      -1.391  -1.032   0.123  0.00  0.00    +0.149 HD
BRANCH   7  11
ATOM     11  C   UNL     1      -3.611  -1.164   0.271  0.00  0.00    +0.094 C 
BRANCH  11  12
ATOM     12  C   UNL     1      -3.377  -2.667   0.103  0.00  0.00    -0.021 C 
BRANCH  12  13
ATOM     13  C   UNL     1      -4.687  -3.398   0.249  0.00  0.00    -0.059 A 
ATOM     14  C   UNL     1      -5.444  -3.237   1.395  0.00  0.00    +0.005 A 
ATOM     15  C   UNL     1      -6.647  -3.902   1.529  0.00  0.00    +0.046 A 
ATOM     16  C   UNL     1      -7.090  -4.742   0.518  0.00  0.00    +0.120 A 
ATOM     17  C   UNL     1      -6.326  -4.907  -0.628  0.00  0.00    +0.046 A 
ATOM     18  C   UNL     1      -5.126  -4.235  -0.760  0.00  0.00    +0.005 A 
BRANCH  16  19
ATOM     19  O   UNL     1      -8.270  -5.403   0.650  0.00  0.00    -0.495 OA
ATOM     20  C   UNL     1      -9.004  -5.185   1.857  0.00  0.00    +0.277 C 
ENDBRANCH  16  19
ENDBRANCH  12  13
BRANCH  12  22
ATOM     21  C   UNL     1      -2.561  -2.334   2.358  0.00  0.00    -0.096 C 
ATOM     22  N   UNL     1      -2.438  -3.134   1.132  0.00  0.00    +0.382 N 
ATOM     23  C   UNL     1      -2.632  -4.562   1.413  0.00  0.00    -0.096 C 
ATOM     24  H   UNL     1      -1.418  -3.001   0.743  0.00  0.00    -0.082 HD
ENDBRANCH  12  22
ENDBRANCH  11  12
ENDBRANCH   7  11
ENDBRANCH   1   8
BRANCH   5  25
ATOM     25  S   UNL     1       0.333   5.378   0.641  0.00  0.00    +0.075 S 
ATOM     26  O   UNL     1      -0.853   5.759   1.326  0.00  0.00    -0.150 OA
ATOM     27  O   UNL     1       1.629   5.695   1.128  0.00  0.00    -0.150 OA
BRANCH  25  28
ATOM     28  N   UNL     1       0.228   6.022  -0.881  0.00  0.00    -0.203 N 
ATOM     29  C   UNL     1       1.442   6.401  -1.617  0.00  0.00    +0.132 C 
ATOM     30  C   UNL     1       1.202   7.771  -2.254  0.00  0.00    +0.025 C 
ATOM     31  C   UNL     1       0.057   7.657  -3.260  0.00  0.00    +0.038 C 
ATOM     32  C   UNL     1      -1.140   7.000  -2.625  0.00  0.00    -0.025 A 
ATOM     33  C   UNL     1      -1.018   6.220  -1.485  0.00  0.00    +0.054 A 
ATOM     34  C   UNL     1      -2.144   5.624  -0.927  0.00  0.00    +0.025 A 
ATOM     35  C   UNL     1      -3.383   5.809  -1.506  0.00  0.00    +0.002 A 
ATOM     36  C   UNL     1      -3.504   6.590  -2.642  0.00  0.00    +0.000 A 
ATOM     37  C   UNL     1      -2.387   7.183  -3.198  0.00  0.00    +0.005 A 
ENDBRANCH  25  28
ENDBRANCH   5  25
TORSDOF 8
