REMARK  Name = ZINC20954784
REMARK  6 active torsions:
REMARK  status: ('A' for Active; 'I' for Inactive)
REMARK    1  A    between atoms: N_9  and  C_11
REMARK    2  A    between atoms: C_11  and  C_13
REMARK    3  A    between atoms: C_11  and  C_24
REMARK    4  A    between atoms: C_13  and  N_14
REMARK    5  A    between atoms: N_14  and  S_15
REMARK    6  A    between atoms: S_15  and  C_18
REMARK                            x       y       z     vdW  Elec       q    Type
REMARK                         _______ _______ _______ _____ _____    ______ ____
ROOT
ATOM      1  C   UNL     1       1.426   3.439  -0.341  0.00  0.00    +0.103 C 
ENDROOT
BRANCH   1  10
ATOM      2  C   UNL     1      -0.231  -2.668   0.787  0.00  0.00    +0.000 A 
ATOM      3  C   UNL     1       0.786  -2.316   1.654  0.00  0.00    +0.000 A 
ATOM      4  C   UNL     1       1.277  -1.026   1.649  0.00  0.00    +0.005 A 
ATOM      5  C   UNL     1       0.756  -0.080   0.778  0.00  0.00    -0.030 A 
ATOM      6  C   UNL     1      -0.256  -0.433  -0.089  0.00  0.00    -0.042 A 
ATOM      7  C   UNL     1      -0.750  -1.729  -0.082  0.00  0.00    +0.004 A 
ATOM      8  C   UNL     1      -0.850   0.557  -1.057  0.00  0.00    +0.051 C 
ATOM      9  C   UNL     1      -0.488   1.981  -0.635  0.00  0.00    +0.090 C 
ATOM     10  N   UNL     1       0.964   2.046  -0.406  0.00  0.00    -0.290 NA
ATOM     11  C   UNL     1       1.319   1.317   0.815  0.00  0.00    +0.120 C 
ENDBRANCH   1  10
BRANCH   1  12
ATOM     12  C   UNL     1       0.546   4.215   0.605  0.00  0.00    -0.022 A 
ATOM     13  C   UNL     1      -0.304   5.195   0.128  0.00  0.00    +0.013 A 
ATOM     14  C   UNL     1      -1.086   5.871   1.005  0.00  0.00    +0.045 A 
ATOM     15  S   UNL     1      -0.620   5.131   2.561  0.00  0.00    -0.105 S 
ATOM     16  C   UNL     1       0.580   3.966   1.937  0.00  0.00    +0.050 A 
ENDBRANCH   1  12
BRANCH   1  17
ATOM     17  C   UNL     1       2.870   3.474   0.162  0.00  0.00    +0.129 C 
BRANCH  17  18
ATOM     18  N   UNL     1       3.704   2.623  -0.690  0.00  0.00    -0.188 NA
ATOM     19  H   UNL     1       3.251   1.790  -1.247  0.00  0.00    +0.148 HD
BRANCH  18  20
ATOM     20  S   UNL     1       5.354   2.750  -0.625  0.00  0.00    +0.065 S 
ATOM     21  O   UNL     1       5.872   1.788  -1.534  0.00  0.00    -0.153 OA
ATOM     22  O   UNL     1       5.659   4.134  -0.726  0.00  0.00    -0.153 OA
BRANCH  20  23
ATOM     23  C   UNL     1       5.854   2.240   0.986  0.00  0.00    +0.144 A 
ATOM     24  C   UNL     1       6.185   1.002   1.424  0.00  0.00    +0.038 A 
ATOM     25  C   UNL     1       6.551   0.834   2.747  0.00  0.00    +0.030 A 
ATOM     26  C   UNL     1       6.567   1.915   3.566  0.00  0.00    +0.080 A 
ATOM     27  S   UNL     1       6.062   3.223   2.461  0.00  0.00    -0.057 S 
ATOM     28 CL   UNL     1       6.980   2.005   5.250  0.00  0.00    -0.076 Cl
ENDBRANCH  20  23
ENDBRANCH  18  20
ENDBRANCH  17  18
ENDBRANCH   1  17
TORSDOF 6
