REMARK  Name = ZINC08962044
REMARK  5 active torsions:
REMARK  status: ('A' for Active; 'I' for Inactive)
REMARK    1  A    between atoms: C_1  and  C_2
REMARK    2  A    between atoms: C_10  and  N_15
REMARK    3  A    between atoms: N_15  and  S_16
REMARK    4  A    between atoms: S_16  and  C_19
REMARK    5  A    between atoms: C_19  and  C_20
REMARK                            x       y       z     vdW  Elec       q    Type
REMARK                         _______ _______ _______ _____ _____    ______ ____
ROOT
ATOM      1  C   UNL     1      -4.635  -6.104   0.355  0.00  0.00    +0.053 C 
ATOM      2  C   UNL     1      -3.868  -7.417   0.183  0.00  0.00    +0.187 C 
ATOM      3  C   UNL     1      -3.671  -7.687  -1.302  0.00  0.00    +0.148 C 
ATOM      4  N   UNL     1      -2.667  -8.732  -1.511  0.00  0.00    -0.308 N 
ATOM      5  C   UNL     1      -1.354  -8.442  -1.339  0.00  0.00    +0.248 C 
ATOM      6  O   UNL     1      -0.500  -9.269  -1.593  0.00  0.00    -0.270 OA
ATOM      7  C   UNL     1      -0.980  -7.104  -0.841  0.00  0.00    +0.080 A 
ATOM      8  C   UNL     1       0.021  -6.359  -1.461  0.00  0.00    +0.041 A 
ATOM      9  C   UNL     1       0.351  -5.109  -0.963  0.00  0.00    +0.049 A 
ATOM     10  C   UNL     1      -0.308  -4.604   0.153  0.00  0.00    +0.028 A 
ATOM     11  C   UNL     1      -1.305  -5.336   0.768  0.00  0.00    +0.048 A 
ATOM     12  C   UNL     1      -1.647  -6.586   0.280  0.00  0.00    +0.133 A 
ATOM     13  O   UNL     1      -2.626  -7.321   0.868  0.00  0.00    -0.487 OA
ATOM     14  H   UNL     1      -2.939  -9.626  -1.770  0.00  0.00    +0.149 HD
ENDROOT
BRANCH   9  15
ATOM     15  N   UNL     1       1.355  -4.355  -1.582  0.00  0.00    -0.220 N 
ATOM     16  H   UNL     1       2.226  -4.272  -1.164  0.00  0.00    +0.173 HD
BRANCH  15  17
ATOM     17  S   UNL     1       1.055  -3.605  -3.027  0.00  0.00    +0.047 S 
ATOM     18  O   UNL     1       0.553  -4.632  -3.872  0.00  0.00    -0.155 OA
ATOM     19  O   UNL     1       2.266  -2.933  -3.345  0.00  0.00    -0.155 OA
BRANCH  17  20
ATOM     20  C   UNL     1      -0.251  -2.400  -2.665  0.00  0.00    +0.223 C 
BRANCH  20  21
ATOM     21  C   UNL     1      -0.622  -1.666  -3.928  0.00  0.00    -0.025 A 
ATOM     22  C   UNL     1      -1.623  -2.159  -4.745  0.00  0.00    +0.007 A 
ATOM     23  C   UNL     1      -1.964  -1.487  -5.903  0.00  0.00    +0.020 A 
ATOM     24  C   UNL     1      -1.304  -0.321  -6.246  0.00  0.00    +0.041 A 
ATOM     25  C   UNL     1      -0.302   0.172  -5.428  0.00  0.00    +0.020 A 
ATOM     26  C   UNL     1       0.038  -0.501  -4.270  0.00  0.00    +0.007 A 
ATOM     27 CL   UNL     1      -1.731   0.524  -7.701  0.00  0.00    -0.084 Cl
ENDBRANCH  20  21
ENDBRANCH  17  20
ENDBRANCH  15  17
ENDBRANCH   9  15
TORSDOF 4
