REMARK  Name = ZINC09909117
REMARK  12 active torsions:
REMARK  status: ('A' for Active; 'I' for Inactive)
REMARK    1  A    between atoms: C_1  and  C_2
REMARK    2  A    between atoms: C_3  and  C_25
REMARK    3  A    between atoms: C_5  and  N_18
REMARK    4  A    between atoms: C_6  and  C_7
REMARK    5  A    between atoms: C_7  and  O_9
REMARK    6  A    between atoms: O_9  and  C_10
REMARK    7  A    between atoms: C_10  and  C_11
REMARK    8  A    between atoms: N_16  and  C_17
REMARK    9  A    between atoms: C_19  and  C_21
REMARK   10  A    between atoms: C_21  and  C_22
REMARK   11  A    between atoms: C_21  and  C_23
REMARK   12  A    between atoms: C_21  and  C_24
REMARK                            x       y       z     vdW  Elec       q    Type
REMARK                         _______ _______ _______ _____ _____    ______ ____
ROOT
ATOM      1  C   UNL     1      -2.773   6.643   4.794  0.00  0.00    +0.045 C 
ATOM      2  C   UNL     1      -2.458   5.270   4.260  0.00  0.00    -0.025 A 
ATOM      3  C   UNL     1      -2.821   4.158   4.924  0.00  0.00    -0.008 A 
ATOM      4  S   UNL     1      -2.227   2.843   3.881  0.00  0.00    -0.078 S 
ATOM      5  C   UNL     1      -1.512   3.781   2.612  0.00  0.00    +0.086 A 
ATOM      6  C   UNL     1      -1.752   5.091   3.013  0.00  0.00    +0.091 A 
ATOM      7  C   UNL     1      -3.560   4.052   6.233  0.00  0.00    +0.052 C 
ENDROOT
BRANCH   5   8
ATOM      8  N   UNL     1      -0.863   3.334   1.472  0.00  0.00    -0.279 N 
ATOM      9  C   UNL     1      -0.724   2.012   1.250  0.00  0.00    +0.223 C 
ATOM     10  O   UNL     1      -1.167   1.213   2.049  0.00  0.00    -0.275 OA
ATOM     11  H   UNL     1      -0.509   3.973   0.834  0.00  0.00    +0.155 HD
BRANCH   9  12
ATOM     12  C   UNL     1      -0.019   1.526   0.010  0.00  0.00    +0.039 C 
ATOM     13  C   UNL     1       0.002  -0.004   0.002  0.00  0.00    +0.020 C 
ATOM     14  C   UNL     1       1.417   2.055  -0.000  0.00  0.00    +0.020 C 
ATOM     15  C   UNL     1      -0.759   2.033  -1.229  0.00  0.00    +0.020 C 
ENDBRANCH   9  12
ENDBRANCH   5   8
BRANCH   6  16
ATOM     16  C   UNL     1      -1.310   6.233   2.210  0.00  0.00    +0.342 C 
ATOM     17  O   UNL     1      -2.043   6.698   1.358  0.00  0.00    -0.245 OA
BRANCH  16  18
ATOM     18  O   UNL     1      -0.089   6.769   2.414  0.00  0.00    -0.452 OA
BRANCH  18  19
ATOM     19  C   UNL     1       0.283   7.899   1.582  0.00  0.00    +0.328 C 
BRANCH  19  20
ATOM     20  C   UNL     1       1.669   8.361   1.951  0.00  0.00    +0.258 C 
ATOM     21  O   UNL     1       2.283   7.793   2.829  0.00  0.00    -0.272 OA
ATOM     22  N   UNL     1       2.226   9.404   1.305  0.00  0.00    -0.237 N 
ATOM     23  C   UNL     1       3.466   9.817   1.635  0.00  0.00    +0.306 C 
ATOM     24  O   UNL     1       4.082   9.248   2.515  0.00  0.00    -0.252 OA
ATOM     25  N   UNL     1       4.024  10.860   0.989  0.00  0.00    -0.302 N 
ATOM     26  C   UNL     1       5.371  11.309   1.348  0.00  0.00    +0.129 C 
ATOM     27  H   UNL     1       1.735   9.858   0.603  0.00  0.00    +0.159 HD
ATOM     28  H   UNL     1       3.532  11.314   0.287  0.00  0.00    +0.150 HD
ENDBRANCH  19  20
ENDBRANCH  18  19
ENDBRANCH  16  18
ENDBRANCH   6  16
TORSDOF 6
