REMARK  Name = ZINC45974198
REMARK  5 active torsions:
REMARK  status: ('A' for Active; 'I' for Inactive)
REMARK    1  A    between atoms: C_6  and  S_7
REMARK    2  A    between atoms: S_7  and  N_10
REMARK    3  A    between atoms: N_10  and  C_11
REMARK    4  A    between atoms: N_10  and  C_20
REMARK    5  A    between atoms: C_11  and  C_12
REMARK                            x       y       z     vdW  Elec       q    Type
REMARK                         _______ _______ _______ _____ _____    ______ ____
ROOT
ATOM      1  N   UNL     1      -1.948  -1.147  -1.567  0.00  0.00    -0.165 NA
ENDROOT
BRANCH   1   2
ATOM      2  C   UNL     1      -2.789  -0.164  -2.254  0.00  0.00    +0.080 C 
ATOM      3  C   UNL     1      -4.120  -0.836  -2.650  0.00  0.00    +0.020 C 
ATOM      4  C   UNL     1      -5.150   0.238  -2.872  0.00  0.00    +0.002 C 
ATOM      5  C   UNL     1      -5.253   0.659  -4.351  0.00  0.00    +0.000 C 
ATOM      6  C   UNL     1      -3.877   0.783  -5.034  0.00  0.00    +0.000 C 
ATOM      7  C   UNL     1      -2.855   1.448  -4.152  0.00  0.00    +0.002 C 
ATOM      8  C   UNL     1      -2.066   0.354  -3.405  0.00  0.00    +0.020 C 
ENDBRANCH   1   2
BRANCH   1   9
ATOM      9  S   UNL     1      -1.512  -0.905   0.012  0.00  0.00    +0.062 S 
ATOM     10  O   UNL     1      -1.218  -2.186   0.553  0.00  0.00    -0.153 OA
ATOM     11  O   UNL     1      -2.493  -0.046   0.577  0.00  0.00    -0.153 OA
BRANCH   9  17
ATOM     12  C   UNL     1      -0.017   1.378   0.010  0.00  0.00    +0.029 A 
ATOM     13  C   UNL     1       1.171   2.086   0.002  0.00  0.00    +0.017 A 
ATOM     14  C   UNL     1       2.378   1.411  -0.013  0.00  0.00    +0.018 A 
ATOM     15  C   UNL     1       2.396   0.027  -0.021  0.00  0.00    +0.017 A 
ATOM     16  C   UNL     1       1.208  -0.679  -0.013  0.00  0.00    +0.029 A 
ATOM     17  C   UNL     1       0.002  -0.004   0.002  0.00  0.00    +0.106 A 
ATOM     18 BR   UNL     1       4.003   2.378  -0.024  0.00  0.00    -0.050 Br
ENDBRANCH   9  17
ENDBRANCH   1   9
BRANCH   1  19
ATOM     19  C   UNL     1      -1.492  -2.345  -2.278  0.00  0.00    +0.205 C 
BRANCH  19  20
ATOM     20  C   UNL     1      -2.553  -3.412  -2.198  0.00  0.00    +0.231 C 
ATOM     21  O   UNL     1      -3.588  -3.193  -1.605  0.00  0.00    -0.274 OA
ATOM     22  N   UNL     1      -2.351  -4.608  -2.784  0.00  0.00    -0.304 N 
ATOM     23  C   UNL     1      -1.101  -4.897  -3.503  0.00  0.00    +0.089 C 
ATOM     24  C   UNL     1      -0.543  -6.229  -2.991  0.00  0.00    -0.063 C 
ATOM     25  N   UNL     1      -1.570  -7.271  -3.120  0.00  0.00    +0.381 N 
ATOM     26  C   UNL     1      -2.710  -6.959  -2.248  0.00  0.00    -0.063 C 
ATOM     27  C   UNL     1      -3.373  -5.664  -2.718  0.00  0.00    +0.089 C 
ATOM     28  H   UNL     1      -1.884  -7.316  -4.078  0.00  0.00    -0.086 HD
ATOM     29  H   UNL     1      -1.179  -8.162  -2.854  0.00  0.00    -0.086 HD
ENDBRANCH  19  20
ENDBRANCH   1  19
TORSDOF 5
