REMARK  Name = ZINC10068713
REMARK  11 active torsions:
REMARK  status: ('A' for Active; 'I' for Inactive)
REMARK    1  A    between atoms: C_1  and  N_56
REMARK    2  A    between atoms: C_2  and  N_56
REMARK    3  A    between atoms: C_3  and  C_4
REMARK    4  A    between atoms: C_3  and  N_56
REMARK    5  A    between atoms: C_4  and  C_5
REMARK    6  A    between atoms: C_5  and  N_6
REMARK    7  A    between atoms: C_10  and  O_18
REMARK    8  A    between atoms: C_13  and  O_16
REMARK    9  A    between atoms: O_16  and  C_17
REMARK   10  A    between atoms: O_18  and  C_19
REMARK   11  A    between atoms: C_20  and  C_22
REMARK                            x       y       z     vdW  Elec       q    Type
REMARK                         _______ _______ _______ _____ _____    ______ ____
ROOT
ATOM      1  N   UNL     1      -0.572   1.445   1.376  0.00  0.00    -0.246 N 
ATOM      2  C   UNL     1      -0.202   2.644   1.961  0.00  0.00    +0.169 A 
ATOM      3  N   UNL     1       0.887   3.352   1.771  0.00  0.00    -0.221 NA
ATOM      4  C   UNL     1       1.117   4.518   2.414  0.00  0.00    +0.125 A 
ATOM      5  C   UNL     1       2.242   5.375   2.297  0.00  0.00    +0.147 A 
ATOM      6  C   UNL     1       2.323   6.532   3.033  0.00  0.00    +0.051 A 
ATOM      7  C   UNL     1       1.315   6.903   3.913  0.00  0.00    +0.050 A 
ATOM      8  C   UNL     1       0.202   6.089   4.052  0.00  0.00    +0.136 A 
ATOM      9  C   UNL     1       0.113   4.927   3.317  0.00  0.00    +0.086 A 
ATOM     10  S   UNL     1      -1.082   3.620   3.173  0.00  0.00    -0.048 S 
ATOM     11  C   UNL     1      -1.741   0.865   1.711  0.00  0.00    +0.260 C 
ATOM     12  O   UNL     1      -2.482   1.406   2.510  0.00  0.00    -0.269 OA
ENDROOT
BRANCH  11  13
ATOM     13  C   UNL     1      -2.121  -0.420   1.112  0.00  0.00    +0.094 A 
ATOM     14  C   UNL     1      -3.183  -1.216   1.413  0.00  0.00    +0.068 A 
ATOM     15  C   UNL     1      -3.378  -2.421   0.713  0.00  0.00    +0.008 A 
ATOM     16  C   UNL     1      -4.416  -3.374   0.876  0.00  0.00    +0.010 A 
ATOM     17  C   UNL     1      -4.453  -4.498   0.116  0.00  0.00    +0.001 A 
ATOM     18  C   UNL     1      -3.484  -4.760  -0.846  0.00  0.00    +0.001 A 
ATOM     19  C   UNL     1      -2.456  -3.859  -1.037  0.00  0.00    +0.016 A 
ATOM     20  C   UNL     1      -2.405  -2.713  -0.273  0.00  0.00    +0.021 A 
ATOM     21  S   UNL     1      -1.299  -1.328  -0.186  0.00  0.00    -0.082 S 
ATOM     22 CL   UNL     1      -4.300  -0.742   2.655  0.00  0.00    -0.082 Cl
ENDBRANCH  11  13
BRANCH   8  23
ATOM     23  O   UNL     1      -0.796   6.435   4.909  0.00  0.00    -0.494 OA
ATOM     24  C   UNL     1      -0.633   7.654   5.637  0.00  0.00    +0.277 C 
ENDBRANCH   8  23
BRANCH   5  25
ATOM     25  O   UNL     1       3.251   5.048   1.446  0.00  0.00    -0.493 OA
ATOM     26  C   UNL     1       4.356   5.951   1.372  0.00  0.00    +0.277 C 
ENDBRANCH   5  25
BRANCH   1  27
ATOM     27  C   UNL     1       0.308   0.806   0.394  0.00  0.00    +0.114 C 
BRANCH  27  28
ATOM     28  C   UNL     1      -0.153   1.173  -1.018  0.00  0.00    +0.001 C 
BRANCH  28  29
ATOM     29  C   UNL     1       0.766   0.506  -2.044  0.00  0.00    -0.078 C 
BRANCH  29  32
ATOM     30  C   UNL     1       1.310   0.437  -4.402  0.00  0.00    -0.097 C 
ATOM     31  C   UNL     1      -0.998   0.284  -3.688  0.00  0.00    -0.097 C 
ATOM     32  N   UNL     1       0.320   0.887  -3.401  0.00  0.00    +0.376 N 
ATOM     33  H   UNL     1       0.237   1.909  -3.450  0.00  0.00    -0.083 HD
ENDBRANCH  29  32
ENDBRANCH  28  29
ENDBRANCH  27  28
ENDBRANCH   1  27
TORSDOF 7
