REMARK  Name = ZINC31044690
REMARK  9 active torsions:
REMARK  status: ('A' for Active; 'I' for Inactive)
REMARK    1  A    between atoms: C_1  and  C_2
REMARK    2  A    between atoms: C_5  and  S_8
REMARK    3  A    between atoms: S_8  and  C_9
REMARK    4  A    between atoms: C_9  and  C_10
REMARK    5  A    between atoms: C_10  and  N_11
REMARK    6  A    between atoms: C_12  and  C_14
REMARK    7  A    between atoms: N_19  and  C_21
REMARK    8  A    between atoms: C_21  and  C_22
REMARK    9  A    between atoms: C_24  and  C_27
REMARK                            x       y       z     vdW  Elec       q    Type
REMARK                         _______ _______ _______ _____ _____    ______ ____
ROOT
ATOM      1  C   UNL     1       9.709  -1.280   2.789  0.00  0.00    +0.058 C 
ATOM      2  C   UNL     1       9.286  -0.028   3.562  0.00  0.00    +0.009 C 
ATOM      3  C   UNL     1       7.766   0.129   3.472  0.00  0.00    -0.018 C 
ATOM      4  C   UNL     1       7.351   0.207   2.001  0.00  0.00    -0.078 C 
ATOM      5  N   UNL     1       7.777  -1.014   1.306  0.00  0.00    +0.386 N 
ATOM      6  C   UNL     1       9.238  -1.161   1.337  0.00  0.00    -0.065 C 
ATOM      7  H   UNL     1       7.343  -1.873   1.839  0.00  0.00    -0.081 HD
ENDROOT
BRANCH   1   9
ATOM      8  N   UNL     1      11.851  -1.527   4.002  0.00  0.00    -0.314 N 
ATOM      9  C   UNL     1      11.210  -1.409   2.822  0.00  0.00    +0.214 C 
ATOM     10  O   UNL     1      11.842  -1.406   1.786  0.00  0.00    -0.276 OA
ATOM     11  H   UNL     1      11.277  -1.530   4.941  0.00  0.00    +0.149 HD
BRANCH   8  12
ATOM     12  C   UNL     1      13.310  -1.652   4.034  0.00  0.00    +0.115 C 
BRANCH  12  13
ATOM     13  C   UNL     1      13.780  -1.771   5.485  0.00  0.00    +0.093 C 
BRANCH  13  14
ATOM     14  S   UNL     1      15.586  -1.926   5.525  0.00  0.00    -0.124 S 
BRANCH  14  19
ATOM     15  C   UNL     1      16.886  -2.358  11.404  0.00  0.00    +0.044 C 
ATOM     16  C   UNL     1      16.562  -2.250   9.936  0.00  0.00    -0.050 A 
ATOM     17  C   UNL     1      17.579  -2.284   9.000  0.00  0.00    +0.004 A 
ATOM     18  C   UNL     1      17.286  -2.186   7.654  0.00  0.00    +0.015 A 
ATOM     19  C   UNL     1      15.966  -2.052   7.241  0.00  0.00    +0.008 A 
ATOM     20  C   UNL     1      14.946  -2.011   8.184  0.00  0.00    +0.015 A 
ATOM     21  C   UNL     1      15.247  -2.117   9.528  0.00  0.00    +0.004 A 
ENDBRANCH  14  19
ENDBRANCH  13  14
ENDBRANCH  12  13
ENDBRANCH   8  12
ENDBRANCH   1   9
BRANCH   5  22
ATOM     22  C   UNL     1       7.276  -1.036  -0.075  0.00  0.00    +0.022 C 
BRANCH  22  23
ATOM     23  C   UNL     1       5.772  -1.131  -0.062  0.00  0.00    +0.211 A 
ATOM     24  N   UNL     1       4.929  -0.129  -0.053  0.00  0.00    -0.193 NA
ATOM     25  C   UNL     1       3.699  -0.689  -0.038  0.00  0.00    +0.202 A 
ATOM     26  N   UNL     1       3.865  -1.986  -0.049  0.00  0.00    -0.056 NA
ATOM     27  O   UNL     1       5.047  -2.255  -0.062  0.00  0.00    -0.340 OA
BRANCH  25  28
ATOM     28  C   UNL     1       2.402   0.033  -0.021  0.00  0.00    +0.023 A 
ATOM     29  C   UNL     1       1.205  -0.680  -0.014  0.00  0.00    +0.013 A 
ATOM     30  C   UNL     1       0.002  -0.004   0.002  0.00  0.00    +0.021 A 
ATOM     31  C   UNL     1      -0.017   1.380   0.010  0.00  0.00    +0.041 A 
ATOM     32  C   UNL     1       1.170   2.093   0.002  0.00  0.00    +0.021 A 
ATOM     33  C   UNL     1       2.378   1.426  -0.013  0.00  0.00    +0.013 A 
ATOM     34 CL   UNL     1      -1.533   2.225   0.021  0.00  0.00    -0.084 Cl
ENDBRANCH  25  28
ENDBRANCH  22  23
ENDBRANCH   5  22
TORSDOF 8
