REMARK  Name = ZINC39919453
REMARK  8 active torsions:
REMARK  status: ('A' for Active; 'I' for Inactive)
REMARK    1  A    between atoms: C_1  and  C_2
REMARK    2  A    between atoms: C_5  and  O_8
REMARK    3  A    between atoms: O_8  and  C_9
REMARK    4  A    between atoms: C_9  and  C_11
REMARK    5  A    between atoms: C_9  and  C_12
REMARK    6  A    between atoms: N_14  and  N_15
REMARK    7  A    between atoms: C_16  and  C_28
REMARK    8  A    between atoms: C_31  and  O_34
REMARK                            x       y       z     vdW  Elec       q    Type
REMARK                         _______ _______ _______ _____ _____    ______ ____
ROOT
ATOM      1  N   UNL     1      -0.946  -8.279   2.152  0.00  0.00    -0.191 N 
ATOM      2  C   UNL     1      -2.259  -8.609   2.705  0.00  0.00    +0.212 C 
ATOM      3  N   UNL     1      -2.274  -9.995   3.189  0.00  0.00    -0.320 N 
ATOM      4  C   UNL     1      -1.704 -10.983   2.393  0.00  0.00    +0.041 A 
ATOM      5  C   UNL     1      -2.155 -12.291   2.412  0.00  0.00    +0.025 A 
ATOM      6  C   UNL     1      -1.556 -13.234   1.599  0.00  0.00    +0.022 A 
ATOM      7  C   UNL     1      -0.507 -12.880   0.763  0.00  0.00    +0.042 A 
ATOM      8  C   UNL     1      -0.045 -11.579   0.733  0.00  0.00    +0.035 A 
ATOM      9  C   UNL     1      -0.639 -10.620   1.549  0.00  0.00    +0.061 A 
ATOM     10  C   UNL     1      -0.181  -9.219   1.558  0.00  0.00    +0.267 C 
ATOM     11  O   UNL     1       0.876  -8.914   1.040  0.00  0.00    -0.268 OA
ATOM     12 CL   UNL     1       0.229 -14.081  -0.251  0.00  0.00    -0.084 Cl
ATOM     13  H   UNL     1      -2.672 -10.217   4.045  0.00  0.00    +0.148 HD
ENDROOT
BRANCH   2  14
ATOM     14  C   UNL     1      -3.306  -8.447   1.633  0.00  0.00    -0.008 A 
ATOM     15  C   UNL     1      -4.291  -7.487   1.770  0.00  0.00    +0.011 A 
ATOM     16  C   UNL     1      -5.253  -7.336   0.790  0.00  0.00    +0.046 A 
ATOM     17  C   UNL     1      -5.229  -8.150  -0.333  0.00  0.00    +0.117 A 
ATOM     18  C   UNL     1      -4.240  -9.113  -0.469  0.00  0.00    +0.046 A 
ATOM     19  C   UNL     1      -3.277  -9.256   0.512  0.00  0.00    +0.011 A 
BRANCH  17  20
ATOM     20  O   UNL     1      -6.174  -8.005  -1.299  0.00  0.00    -0.507 OA
ATOM     21  H   UNL     1      -5.934  -7.376  -1.993  0.00  0.00    +0.292 HD
ENDBRANCH  17  20
ENDBRANCH   2  14
BRANCH   1  24
ATOM     22  C   UNL     1      -0.506  -6.166   1.148  0.00  0.00    +0.270 C 
ATOM     23  O   UNL     1      -1.016  -6.561   0.121  0.00  0.00    -0.270 OA
ATOM     24  N   UNL     1      -0.476  -6.962   2.235  0.00  0.00    -0.227 N 
ATOM     25  H   UNL     1      -0.129  -6.623   3.075  0.00  0.00    +0.173 HD
BRANCH  22  26
ATOM     26  C   UNL     1       0.095  -4.785   1.209  0.00  0.00    +0.257 C 
ATOM     27  C   UNL     1       1.606  -4.896   1.425  0.00  0.00    +0.062 C 
BRANCH  26  28
ATOM     28  O   UNL     1      -0.162  -4.100  -0.019  0.00  0.00    -0.480 OA
BRANCH  28  33
ATOM     29  C   UNL     1      -0.086   1.530   0.133  0.00  0.00    +0.044 C 
ATOM     30  C   UNL     1      -0.106   0.024   0.092  0.00  0.00    -0.050 A 
ATOM     31  C   UNL     1       0.057  -0.700   1.259  0.00  0.00    +0.007 A 
ATOM     32  C   UNL     1       0.039  -2.081   1.224  0.00  0.00    +0.046 A 
ATOM     33  C   UNL     1      -0.144  -2.741   0.018  0.00  0.00    +0.122 A 
ATOM     34  C   UNL     1      -0.309  -2.013  -1.151  0.00  0.00    +0.046 A 
ATOM     35  C   UNL     1      -0.295  -0.632  -1.110  0.00  0.00    +0.007 A 
ENDBRANCH  28  33
ENDBRANCH  26  28
ENDBRANCH  22  26
ENDBRANCH   1  24
TORSDOF 6
