REMARK  Name = ZINC39533581
REMARK  11 active torsions:
REMARK  status: ('A' for Active; 'I' for Inactive)
REMARK    1  A    between atoms: C_1  and  C_2
REMARK    2  A    between atoms: C_2  and  C_3
REMARK    3  A    between atoms: C_2  and  C_4
REMARK    4  A    between atoms: C_4  and  C_5
REMARK    5  A    between atoms: C_8  and  C_11
REMARK    6  A    between atoms: C_11  and  C_13
REMARK    7  A    between atoms: C_11  and  N_16
REMARK    8  A    between atoms: C_13  and  N_14
REMARK    9  A    between atoms: C_20  and  S_23
REMARK   10  A    between atoms: S_23  and  O_26
REMARK   11  A    between atoms: O_26  and  C_27
REMARK                            x       y       z     vdW  Elec       q    Type
REMARK                         _______ _______ _______ _____ _____    ______ ____
ROOT
ATOM      1  N   UNL     1      -2.104  -6.925   0.607  0.00  0.00    -0.296 NA
ATOM      2  C   UNL     1      -1.269  -7.024   1.812  0.00  0.00    +0.066 C 
ATOM      3  C   UNL     1      -2.090  -7.635   2.950  0.00  0.00    -0.064 C 
ATOM      4  N   UNL     1      -2.564  -8.967   2.551  0.00  0.00    +0.398 N 
ATOM      5  C   UNL     1      -3.416  -8.849   1.361  0.00  0.00    +0.130 C 
ATOM      6  C   UNL     1      -2.606  -8.248   0.210  0.00  0.00    +0.095 C 
ATOM      7  H   UNL     1      -1.772  -9.556   2.341  0.00  0.00    -0.083 HD
ATOM      8  H   UNL     1      -3.095  -9.375   3.306  0.00  0.00    -0.083 HD
ENDROOT
BRANCH   5   9
ATOM      9  S   UNL     1      -4.017 -10.493   0.883  0.00  0.00    +0.109 S 
ATOM     10  O   UNL     1      -4.982 -10.379  -0.154  0.00  0.00    -0.138 OA
ATOM     11  O   UNL     1      -2.927 -11.396   0.762  0.00  0.00    -0.138 OA
BRANCH   9  12
ATOM     12  O   UNL     1      -4.801 -10.989   2.090  0.00  0.00    -0.347 OA
BRANCH  12  13
ATOM     13  C   UNL     1      -6.017 -10.401   2.239  0.00  0.00    +0.156 A 
ATOM     14  C   UNL     1      -6.141  -9.239   2.986  0.00  0.00    +0.048 A 
ATOM     15  C   UNL     1      -7.378  -8.643   3.136  0.00  0.00    +0.004 A 
ATOM     16  C   UNL     1      -8.493  -9.205   2.542  0.00  0.00    +0.000 A 
ATOM     17  C   UNL     1      -8.373 -10.364   1.797  0.00  0.00    +0.004 A 
ATOM     18  C   UNL     1      -7.137 -10.960   1.639  0.00  0.00    +0.048 A 
ENDBRANCH  12  13
ENDBRANCH   9  12
ENDBRANCH   5   9
BRANCH   1  19
ATOM     19  C   UNL     1      -1.367  -6.290  -0.493  0.00  0.00    +0.101 C 
BRANCH  19  23
ATOM     20  C   UNL     1      -1.144  -2.079   0.187  0.00  0.00    -0.047 A 
ATOM     21  C   UNL     1      -0.696  -2.610  -1.008  0.00  0.00    +0.004 A 
ATOM     22  C   UNL     1      -0.768  -3.973  -1.228  0.00  0.00    +0.005 A 
ATOM     23  C   UNL     1      -1.288  -4.804  -0.253  0.00  0.00    -0.029 A 
ATOM     24  C   UNL     1      -1.735  -4.272   0.942  0.00  0.00    +0.005 A 
ATOM     25  C   UNL     1      -1.659  -2.910   1.164  0.00  0.00    +0.004 A 
BRANCH  20  26
ATOM     26  C   UNL     1      -1.065  -0.593   0.427  0.00  0.00    +0.038 C 
BRANCH  26  28
ATOM     27  C   UNL     1       0.413   1.269   1.196  0.00  0.00    +0.007 C 
ATOM     28  C   UNL     1       0.281  -0.250   1.067  0.00  0.00    -0.013 C 
ATOM     29  C   UNL     1       0.364  -0.889   2.455  0.00  0.00    +0.007 C 
ENDBRANCH  26  28
ENDBRANCH  20  26
ENDBRANCH  19  23
BRANCH  19  30
ATOM     30  C   UNL     1       0.046  -6.871  -0.564  0.00  0.00    +0.117 C 
BRANCH  30  31
ATOM     31  N   UNL     1      -0.032  -8.325  -0.765  0.00  0.00    -0.254 NA
ATOM     32 BR   UNL     1       1.658  -9.073  -0.856  0.00  0.00    +0.010 Br
ATOM     33  H   UNL     1      -0.571  -8.547  -1.588  0.00  0.00    +0.135 HD
ENDBRANCH  30  31
ENDBRANCH  19  30
ENDBRANCH   1  19
TORSDOF 9
