REMARK  Name = ZINC19898628
REMARK  14 active torsions:
REMARK  status: ('A' for Active; 'I' for Inactive)
REMARK    1  A    between atoms: C_1  and  C_2
REMARK    2  A    between atoms: C_2  and  C_3
REMARK    3  A    between atoms: C_3  and  C_4
REMARK    4  A    between atoms: C_4  and  O_5
REMARK    5  A    between atoms: O_5  and  C_6
REMARK    6  A    between atoms: C_6  and  C_8
REMARK    7  A    between atoms: C_9  and  C_38
REMARK    8  A    between atoms: C_13  and  C_15
REMARK    9  A    between atoms: C_19  and  O_21
REMARK   10  A    between atoms: C_25  and  C_28
REMARK   11  A    between atoms: C_31  and  O_36
REMARK   12  A    between atoms: C_32  and  O_34
REMARK   13  A    between atoms: O_34  and  C_35
REMARK   14  A    between atoms: O_36  and  C_37
REMARK                            x       y       z     vdW  Elec       q    Type
REMARK                         _______ _______ _______ _____ _____    ______ ____
ROOT
ATOM      1  C   UNL     1       2.427  -4.420   3.549  0.00  0.00    +0.065 C 
ATOM      2  C   UNL     1       2.251  -5.721   3.841  0.00  0.00    +0.016 C 
ATOM      3  N   UNL     1       2.704  -6.233   5.024  0.00  0.00    -0.321 N 
ATOM      4  C   UNL     1       3.666  -5.577   5.745  0.00  0.00    +0.016 C 
ATOM      5  C   UNL     1       3.902  -4.264   5.537  0.00  0.00    +0.024 C 
ATOM      6  C   UNL     1       3.118  -3.494   4.507  0.00  0.00    +0.092 C 
ATOM      7  C   UNL     1       4.884  -3.578   6.273  0.00  0.00    +0.162 C 
ATOM      8  O   UNL     1       5.082  -2.400   6.050  0.00  0.00    -0.292 OA
ATOM      9  C   UNL     1       5.693  -4.275   7.332  0.00  0.00    +0.088 C 
ATOM     10  C   UNL     1       4.866  -5.426   7.914  0.00  0.00    +0.032 C 
ATOM     11  C   UNL     1       4.454  -6.355   6.770  0.00  0.00    +0.059 C 
ATOM     12  C   UNL     1       1.550  -6.620   2.855  0.00  0.00    +0.061 C 
ATOM     13  H   UNL     1       2.341  -7.069   5.357  0.00  0.00    +0.152 HD
ENDROOT
BRANCH   6  14
ATOM     14  C   UNL     1       2.086  -2.648   5.208  0.00  0.00    -0.032 A 
ATOM     15  C   UNL     1       1.104  -3.250   5.974  0.00  0.00    +0.005 A 
ATOM     16  C   UNL     1       0.157  -2.477   6.618  0.00  0.00    +0.004 A 
ATOM     17  C   UNL     1       0.188  -1.101   6.498  0.00  0.00    +0.045 A 
ATOM     18  C   UNL     1       1.172  -0.495   5.730  0.00  0.00    +0.117 A 
ATOM     19  C   UNL     1       2.126  -1.273   5.090  0.00  0.00    +0.050 A 
BRANCH  18  20
ATOM     20  O   UNL     1       1.205   0.858   5.611  0.00  0.00    -0.507 OA
ATOM     21  H   UNL     1       1.738   1.300   6.286  0.00  0.00    +0.292 HD
ENDBRANCH  18  20
ENDBRANCH   6  14
BRANCH  10  22
ATOM     22  C   UNL     1       5.694  -6.188   8.917  0.00  0.00    -0.040 A 
ATOM     23  C   UNL     1       6.875  -6.788   8.522  0.00  0.00    +0.008 A 
ATOM     24  C   UNL     1       7.638  -7.488   9.438  0.00  0.00    +0.049 A 
ATOM     25  C   UNL     1       7.220  -7.589  10.755  0.00  0.00    +0.161 A 
ATOM     26  C   UNL     1       6.031  -6.985  11.153  0.00  0.00    +0.162 A 
ATOM     27  C   UNL     1       5.273  -6.281  10.230  0.00  0.00    +0.053 A 
BRANCH  26  28
ATOM     28  O   UNL     1       5.615  -7.081  12.444  0.00  0.00    -0.491 OA
ATOM     29  C   UNL     1       4.385  -6.436  12.780  0.00  0.00    +0.277 C 
ENDBRANCH  26  28
BRANCH  25  30
ATOM     30  O   UNL     1       7.969  -8.277  11.658  0.00  0.00    -0.491 OA
ATOM     31  C   UNL     1       9.177  -8.872  11.179  0.00  0.00    +0.277 C 
ENDBRANCH  25  30
ENDBRANCH  10  22
BRANCH   1  32
ATOM     32  C   UNL     1       1.958  -3.917   2.314  0.00  0.00    +0.338 C 
ATOM     33  O   UNL     1       1.511  -4.678   1.476  0.00  0.00    -0.245 OA
BRANCH  32  34
ATOM     34  O   UNL     1       2.004  -2.591   2.064  0.00  0.00    -0.461 OA
BRANCH  34  35
ATOM     35  C   UNL     1       1.513  -2.152   0.796  0.00  0.00    +0.232 C 
BRANCH  35  36
ATOM     36  C   UNL     1       1.647  -0.631   0.696  0.00  0.00    +0.041 C 
BRANCH  36  38
ATOM     37  C   UNL     1       1.254   1.359  -0.762  0.00  0.00    +0.004 C 
ATOM     38  C   UNL     1       1.121  -0.162  -0.662  0.00  0.00    -0.000 C 
ENDBRANCH  36  38
ENDBRANCH  35  36
ENDBRANCH  34  35
ENDBRANCH  32  34
ENDBRANCH   1  32
TORSDOF 10
