REMARK  Name = ZINC05910081
REMARK  11 active torsions:
REMARK  status: ('A' for Active; 'I' for Inactive)
REMARK    1  A    between atoms: C_1  and  C_2
REMARK    2  A    between atoms: C_2  and  C_32
REMARK    3  A    between atoms: N_3  and  O_4
REMARK    4  A    between atoms: O_4  and  C_5
REMARK    5  A    between atoms: C_5  and  C_6
REMARK    6  A    between atoms: N_8  and  N_9
REMARK    7  A    between atoms: N_17  and  C_20
REMARK    8  A    between atoms: C_20  and  N_69
REMARK    9  A    between atoms: C_22  and  C_31
REMARK   10  A    between atoms: C_27  and  C_29
REMARK   11  A    between atoms: C_27  and  C_30
REMARK                            x       y       z     vdW  Elec       q    Type
REMARK                         _______ _______ _______ _____ _____    ______ ____
ROOT
ATOM      1  N   UNL     1      -6.653   3.457   4.802  0.00  0.00    -0.174 NA
ATOM      2  C   UNL     1      -7.914   3.811   4.863  0.00  0.00    +0.153 C 
ATOM      3  C   UNL     1      -8.932   3.710   3.791  0.00  0.00    +0.028 A 
ATOM      4  C   UNL     1      -8.895   3.235   2.485  0.00  0.00    +0.012 A 
ATOM      5  C   UNL     1     -10.039   3.266   1.712  0.00  0.00    +0.001 A 
ATOM      6  C   UNL     1     -11.219   3.762   2.240  0.00  0.00    +0.002 A 
ATOM      7  C   UNL     1     -11.267   4.230   3.537  0.00  0.00    +0.024 A 
ATOM      8  C   UNL     1     -10.125   4.207   4.330  0.00  0.00    +0.044 A 
ATOM      9  N   UNL     1      -9.904   4.610   5.643  0.00  0.00    -0.282 N 
ATOM     10  C   UNL     1      -8.629   4.403   6.012  0.00  0.00    +0.270 C 
ATOM     11  O   UNL     1      -8.147   4.659   7.100  0.00  0.00    -0.268 OA
ENDROOT
BRANCH   1  14
ATOM     12  C   UNL     1      -4.783   2.764   3.503  0.00  0.00    +0.272 C 
ATOM     13  O   UNL     1      -4.081   2.859   4.487  0.00  0.00    -0.270 OA
ATOM     14  N   UNL     1      -6.098   3.050   3.583  0.00  0.00    -0.203 N 
ATOM     15  H   UNL     1      -6.659   2.974   2.795  0.00  0.00    +0.177 HD
BRANCH  12  16
ATOM     16  C   UNL     1      -4.185   2.326   2.191  0.00  0.00    +0.359 C 
BRANCH  16  17
ATOM     17  O   UNL     1      -2.787   2.083   2.361  0.00  0.00    -0.384 OA
BRANCH  17  20
ATOM     18  C   UNL     1      -0.152   0.966  -0.052  0.00  0.00    +0.070 C 
ATOM     19  C   UNL     1      -0.855   1.412   1.204  0.00  0.00    +0.091 C 
ATOM     20  N   UNL     1      -2.127   1.664   1.181  0.00  0.00    -0.088 NA
BRANCH  19  21
ATOM     21  C   UNL     1      -0.100   1.560   2.454  0.00  0.00    +0.036 A 
ATOM     22  C   UNL     1      -0.548   1.958   3.701  0.00  0.00    +0.017 A 
ATOM     23  C   UNL     1       0.359   2.018   4.732  0.00  0.00    +0.008 A 
ATOM     24  C   UNL     1       1.659   1.697   4.495  0.00  0.00    +0.046 A 
ATOM     25  S   UNL     1       1.637   1.282   2.759  0.00  0.00    -0.095 S 
ENDBRANCH  19  21
ENDBRANCH  17  20
ENDBRANCH  16  17
ENDBRANCH  12  16
ENDBRANCH   1  14
BRANCH   9  26
ATOM     26  C   UNL     1     -10.932   5.187   6.513  0.00  0.00    +0.039 C 
BRANCH  26  37
ATOM     27  C   UNL     1      -9.849   7.386   6.583  0.00  0.00    -0.070 C 
ATOM     28  C   UNL     1     -10.351   8.716   7.195  0.00  0.00    -0.048 C 
ATOM     29  C   UNL     1     -11.837   8.786   6.750  0.00  0.00    -0.011 C 
ATOM     30  C   UNL     1     -12.208   7.279   6.856  0.00  0.00    -0.065 C 
ATOM     31  C   UNL     1     -12.342   6.951   8.334  0.00  0.00    -0.009 C 
ATOM     32  C   UNL     1     -11.274   7.500   9.254  0.00  0.00    -0.036 C 
ATOM     33  C   UNL     1     -10.349   8.571   8.716  0.00  0.00    +0.011 C 
ATOM     34  C   UNL     1     -11.998   8.100  10.487  0.00  0.00    +0.011 C 
ATOM     35  C   UNL     1     -10.423   6.331   9.790  0.00  0.00    +0.011 C 
ATOM     36  C   UNL     1      -9.536   9.924   6.711  0.00  0.00    +0.009 C 
ATOM     37  N   UNL     1     -11.049   6.649   6.187  0.00  0.00    +0.393 N 
ATOM     38  H   UNL     1     -11.169   6.737   5.171  0.00  0.00    -0.079 HD
ENDBRANCH  26  37
ENDBRANCH   9  26
TORSDOF 7
