REMARK  Name = ZINC35442683
REMARK  14 active torsions:
REMARK  status: ('A' for Active; 'I' for Inactive)
REMARK    1  A    between atoms: C_1  and  C_2
REMARK    2  A    between atoms: C_4  and  C_29
REMARK    3  A    between atoms: C_6  and  C_26
REMARK    4  A    between atoms: C_9  and  C_11
REMARK    5  A    between atoms: C_11  and  C_12
REMARK    6  A    between atoms: C_15  and  C_17
REMARK    7  A    between atoms: C_20  and  N_23
REMARK    8  A    between atoms: N_23  and  C_24
REMARK    9  A    between atoms: N_23  and  C_25
REMARK   10  A    between atoms: C_26  and  C_27
REMARK   11  A    between atoms: C_26  and  C_28
REMARK   12  A    between atoms: C_29  and  N_30
REMARK   13  A    between atoms: N_30  and  C_31
REMARK   14  A    between atoms: C_31  and  C_32
REMARK                            x       y       z     vdW  Elec       q    Type
REMARK                         _______ _______ _______ _____ _____    ______ ____
ROOT
ATOM      1  C   UNL     1      -0.450   1.090   0.145  0.00  0.00    +0.039 C 
ATOM      2  C   UNL     1      -0.372  -0.411   0.254  0.00  0.00    -0.073 C 
ATOM      3  C   UNL     1      -0.172  -1.089  -0.830  0.00  0.00    -0.026 C 
ATOM      4  C   UNL     1      -0.083  -2.586  -0.882  0.00  0.00    -0.002 C 
ATOM      5  C   UNL     1       0.167  -3.147   0.520  0.00  0.00    -0.003 C 
ATOM      6  C   UNL     1      -0.849  -2.518   1.482  0.00  0.00    +0.012 C 
ATOM      7  C   UNL     1      -0.526  -1.026   1.614  0.00  0.00    +0.024 C 
ENDROOT
BRANCH   5   8
ATOM      8  C   UNL     1      -0.007  -4.667   0.504  0.00  0.00    -0.014 C 
ATOM      9  C   UNL     1       0.381  -5.240   1.868  0.00  0.00    +0.007 C 
ATOM     10  C   UNL     1      -1.468  -5.010   0.204  0.00  0.00    +0.007 C 
ENDBRANCH   5   8
BRANCH   7  11
ATOM     11  C   UNL     1       0.774  -0.851   2.400  0.00  0.00    +0.105 C 
BRANCH  11  12
ATOM     12  C   UNL     1       1.017   0.615   2.650  0.00  0.00    +0.218 A 
ATOM     13  N   UNL     1       0.609   1.298   3.683  0.00  0.00    -0.112 NA
ATOM     14  N   UNL     1       0.995   2.520   3.570  0.00  0.00    -0.107 NA
ATOM     15  C   UNL     1       1.668   2.660   2.452  0.00  0.00    +0.248 A 
ATOM     16  O   UNL     1       1.699   1.454   1.850  0.00  0.00    -0.420 OA
BRANCH  15  17
ATOM     17  C   UNL     1       2.281   3.907   1.948  0.00  0.00    +0.039 A 
ATOM     18  C   UNL     1       2.966   3.908   0.732  0.00  0.00    +0.015 A 
ATOM     19  C   UNL     1       3.537   5.072   0.265  0.00  0.00    +0.024 A 
ATOM     20  C   UNL     1       3.432   6.245   1.005  0.00  0.00    +0.029 A 
ATOM     21  C   UNL     1       2.750   6.247   2.217  0.00  0.00    +0.024 A 
ATOM     22  C   UNL     1       2.172   5.088   2.686  0.00  0.00    +0.015 A 
BRANCH  20  23
ATOM     23  N   UNL     1       4.011   7.421   0.530  0.00  0.00    -0.336 N 
ATOM     24  C   UNL     1       4.627   7.449  -0.798  0.00  0.00    +0.129 C 
ATOM     25  C   UNL     1       4.003   8.628   1.360  0.00  0.00    +0.129 C 
ENDBRANCH  20  23
ENDBRANCH  15  17
ENDBRANCH  11  12
ENDBRANCH   7  11
BRANCH   4  26
ATOM     26  C   UNL     1       1.071  -2.994  -1.800  0.00  0.00    -0.074 C 
BRANCH  26  27
ATOM     27  N   UNL     1       0.781  -2.558  -3.173  0.00  0.00    +0.382 N 
ATOM     28  H   UNL     1      -0.072  -2.994  -3.491  0.00  0.00    -0.085 HD
ATOM     29  H   UNL     1       0.674  -1.555  -3.192  0.00  0.00    -0.085 HD
BRANCH  27  30
ATOM     30  C   UNL     1       1.888  -2.950  -4.055  0.00  0.00    -0.045 C 
BRANCH  30  31
ATOM     31  C   UNL     1       1.591  -2.504  -5.464  0.00  0.00    -0.046 A 
ATOM     32  C   UNL     1       0.905  -3.337  -6.334  0.00  0.00    +0.005 A 
ATOM     33  C   UNL     1       0.654  -2.885  -7.620  0.00  0.00    +0.020 A 
ATOM     34  C   UNL     1       1.091  -1.627  -7.989  0.00  0.00    +0.111 A 
ATOM     35  N   UNL     1       1.741  -0.861  -7.135  0.00  0.00    -0.263 NA
ATOM     36  C   UNL     1       1.992  -1.256  -5.902  0.00  0.00    +0.112 A 
ENDBRANCH  30  31
ENDBRANCH  27  30
ENDBRANCH  26  27
ENDBRANCH   4  26
TORSDOF 9
