REMARK  Name = ZINC40323086
REMARK  12 active torsions:
REMARK  status: ('A' for Active; 'I' for Inactive)
REMARK    1  A    between atoms: C_1  and  C_2
REMARK    2  A    between atoms: C_2  and  C_3
REMARK    3  A    between atoms: C_2  and  C_4
REMARK    4  A    between atoms: C_7  and  C_10
REMARK    5  A    between atoms: C_10  and  C_12
REMARK    6  A    between atoms: C_10  and  N_31
REMARK    7  A    between atoms: C_12  and  N_13
REMARK    8  A    between atoms: C_14  and  C_16
REMARK    9  A    between atoms: C_19  and  S_21
REMARK   10  A    between atoms: S_21  and  C_24
REMARK   11  A    between atoms: N_31  and  C_32
REMARK   12  A    between atoms: N_31  and  C_33
REMARK                            x       y       z     vdW  Elec       q    Type
REMARK                         _______ _______ _______ _____ _____    ______ ____
ROOT
ATOM      1  N   UNL     1      -6.201   0.124   0.394  0.00  0.00    -0.310 N 
ATOM      2  C   UNL     1      -6.935   1.181  -0.008  0.00  0.00    +0.279 C 
ATOM      3  O   UNL     1      -7.520   1.145  -1.074  0.00  0.00    -0.267 OA
ATOM      4  H   UNL     1      -5.734   0.153   1.244  0.00  0.00    +0.149 HD
ENDROOT
BRANCH   2   5
ATOM      5  C   UNL     1      -7.029   2.373   0.840  0.00  0.00    +0.192 A 
ATOM      6  C   UNL     1      -7.739   3.505   0.557  0.00  0.00    +0.056 A 
ATOM      7  C   UNL     1      -7.548   4.381   1.637  0.00  0.00    +0.070 A 
ATOM      8  C   UNL     1      -6.740   3.754   2.521  0.00  0.00    +0.246 A 
ATOM      9  O   UNL     1      -6.433   2.543   2.039  0.00  0.00    -0.433 OA
BRANCH   8  10
ATOM     10  S   UNL     1      -6.186   4.419   4.055  0.00  0.00    +0.058 S 
ATOM     11  O   UNL     1      -4.982   3.738   4.382  0.00  0.00    -0.161 OA
ATOM     12  O   UNL     1      -6.252   5.833   3.933  0.00  0.00    -0.161 OA
BRANCH  10  13
ATOM     13  C   UNL     1      -7.370   3.963   5.278  0.00  0.00    +0.097 A 
ATOM     14  C   UNL     1      -8.447   4.788   5.538  0.00  0.00    +0.028 A 
ATOM     15  C   UNL     1      -9.377   4.431   6.497  0.00  0.00    +0.017 A 
ATOM     16  C   UNL     1      -9.228   3.247   7.197  0.00  0.00    +0.018 A 
ATOM     17  C   UNL     1      -8.149   2.421   6.936  0.00  0.00    +0.017 A 
ATOM     18  C   UNL     1      -7.223   2.777   5.973  0.00  0.00    +0.028 A 
ATOM     19 BR   UNL     1     -10.498   2.757   8.509  0.00  0.00    -0.050 Br
ENDBRANCH  10  13
ENDBRANCH   8  10
ENDBRANCH   2   5
BRANCH   1  20
ATOM     20  C   UNL     1      -6.107  -1.067  -0.453  0.00  0.00    +0.094 C 
BRANCH  20  21
ATOM     21  C   UNL     1      -5.299  -2.146   0.271  0.00  0.00    -0.021 C 
BRANCH  21  25
ATOM     22  C   UNL     1      -1.286  -0.791   0.826  0.00  0.00    -0.045 A 
ATOM     23  C   UNL     1      -2.191  -0.718   1.869  0.00  0.00    +0.004 A 
ATOM     24  C   UNL     1      -3.490  -1.156   1.689  0.00  0.00    +0.002 A 
ATOM     25  C   UNL     1      -3.884  -1.667   0.467  0.00  0.00    -0.059 A 
ATOM     26  C   UNL     1      -2.979  -1.740  -0.576  0.00  0.00    +0.002 A 
ATOM     27  C   UNL     1      -1.682  -1.298  -0.398  0.00  0.00    +0.004 A 
BRANCH  22  29
ATOM     28  C   UNL     1       0.120   1.167   1.406  0.00  0.00    +0.012 C 
ATOM     29  C   UNL     1       0.130  -0.314   1.022  0.00  0.00    +0.013 C 
ATOM     30  C   UNL     1       0.792  -1.125   2.137  0.00  0.00    +0.012 C 
ENDBRANCH  22  29
ENDBRANCH  21  25
BRANCH  21  31
ATOM     31  N   UNL     1      -5.294  -3.376  -0.532  0.00  0.00    +0.382 N 
ATOM     32  C   UNL     1      -4.481  -4.397   0.142  0.00  0.00    -0.096 C 
ATOM     33  C   UNL     1      -6.670  -3.867  -0.684  0.00  0.00    -0.096 C 
ATOM     34  H   UNL     1      -4.903  -3.182  -1.442  0.00  0.00    -0.082 HD
ENDBRANCH  21  31
ENDBRANCH  20  21
ENDBRANCH   1  20
TORSDOF 8
