REMARK  Name = ZINC15162213
REMARK  11 active torsions:
REMARK  status: ('A' for Active; 'I' for Inactive)
REMARK    1  A    between atoms: C_1  and  C_2
REMARK    2  A    between atoms: C_2  and  C_4
REMARK    3  A    between atoms: C_2  and  N_10
REMARK    4  A    between atoms: N_15  and  C_16
REMARK    5  A    between atoms: C_16  and  C_18
REMARK    6  A    between atoms: C_16  and  C_26
REMARK    7  A    between atoms: C_18  and  O_19
REMARK    8  A    between atoms: O_19  and  C_20
REMARK    9  A    between atoms: C_26  and  C_27
REMARK   10  A    between atoms: C_26  and  C_28
REMARK   11  A    between atoms: C_26  and  C_29
REMARK                            x       y       z     vdW  Elec       q    Type
REMARK                         _______ _______ _______ _____ _____    ______ ____
ROOT
ATOM      1  N   UNL     1       0.632   1.566  -1.373  0.00  0.00    -0.293 N 
ATOM      2  C   UNL     1       1.885   1.579  -1.869  0.00  0.00    +0.139 C 
ATOM      3  S   UNL     1       3.188   2.411  -1.134  0.00  0.00    -0.018 S 
ATOM      4  N   UNL     1       2.000   0.868  -2.999  0.00  0.00    -0.285 N 
ATOM      5  C   UNL     1       0.789   0.308  -3.354  0.00  0.00    +0.098 C 
ATOM      6  N   UNL     1       0.535  -0.435  -4.381  0.00  0.00    -0.368 N 
ATOM      7  C   UNL     1      -0.169   0.747  -2.280  0.00  0.00    +0.090 C 
ATOM      8  C   UNL     1      -1.343   1.543  -2.872  0.00  0.00    +0.033 C 
ATOM      9  C   UNL     1      -2.437   1.398  -1.782  0.00  0.00    +0.003 C 
ATOM     10  C   UNL     1      -2.259  -0.041  -1.252  0.00  0.00    +0.003 C 
ATOM     11  C   UNL     1      -0.805  -0.447  -1.562  0.00  0.00    +0.033 C 
ATOM     12  H   UNL     1       2.823   0.761  -3.500  0.00  0.00    +0.155 HD
ATOM     13  H   UNL     1      -0.362  -0.772  -4.526  0.00  0.00    +0.161 HD
ENDROOT
BRANCH   1  15
ATOM     14  C   UNL     1       1.269   3.150   0.378  0.00  0.00    +0.033 C 
ATOM     15  C   UNL     1       0.164   2.237  -0.158  0.00  0.00    +0.103 C 
BRANCH  15  16
ATOM     16  C   UNL     1      -0.184   1.206   0.884  0.00  0.00    -0.027 A 
ATOM     17  C   UNL     1       0.706   0.187   1.172  0.00  0.00    +0.005 A 
ATOM     18  C   UNL     1       0.386  -0.759   2.128  0.00  0.00    +0.000 A 
ATOM     19  C   UNL     1      -0.822  -0.687   2.796  0.00  0.00    +0.000 A 
ATOM     20  C   UNL     1      -1.711   0.332   2.508  0.00  0.00    +0.000 A 
ATOM     21  C   UNL     1      -1.389   1.281   1.556  0.00  0.00    +0.005 A 
ENDBRANCH  15  16
ENDBRANCH   1  15
BRANCH   6  22
ATOM     22  C   UNL     1       1.604  -0.767  -5.327  0.00  0.00    +0.123 C 
BRANCH  22  23
ATOM     23  C   UNL     1       1.740   0.357  -6.357  0.00  0.00    -0.014 C 
ATOM     24  C   UNL     1       2.232   1.628  -5.662  0.00  0.00    +0.013 C 
ATOM     25  C   UNL     1       2.746  -0.058  -7.433  0.00  0.00    +0.013 C 
ATOM     26  C   UNL     1       0.380   0.623  -7.005  0.00  0.00    +0.013 C 
ENDBRANCH  22  23
BRANCH  22  27
ATOM     27  C   UNL     1       1.263  -2.075  -6.042  0.00  0.00    +0.254 C 
BRANCH  27  28
ATOM     28  O   UNL     1       0.065  -1.905  -6.802  0.00  0.00    -0.490 OA
BRANCH  28  29
ATOM     29  C   UNL     1      -0.380  -2.982  -7.502  0.00  0.00    +0.121 A 
ATOM     30  C   UNL     1       0.320  -4.179  -7.455  0.00  0.00    +0.045 A 
ATOM     31  C   UNL     1      -0.134  -5.271  -8.168  0.00  0.00    +0.004 A 
ATOM     32  C   UNL     1      -1.284  -5.173  -8.928  0.00  0.00    +0.000 A 
ATOM     33  C   UNL     1      -1.983  -3.981  -8.977  0.00  0.00    +0.004 A 
ATOM     34  C   UNL     1      -1.537  -2.887  -8.261  0.00  0.00    +0.045 A 
ENDBRANCH  28  29
ENDBRANCH  27  28
ENDBRANCH  22  27
ENDBRANCH   6  22
TORSDOF 7
