REMARK  Name = ZINC15773997
REMARK  8 active torsions:
REMARK  status: ('A' for Active; 'I' for Inactive)
REMARK    1  A    between atoms: C_4  and  C_7
REMARK    2  A    between atoms: C_7  and  C_8
REMARK    3  A    between atoms: C_13  and  C_14
REMARK    4  A    between atoms: C_13  and  N_71
REMARK    5  A    between atoms: C_14  and  C_15
REMARK    6  A    between atoms: C_15  and  N_16
REMARK    7  A    between atoms: C_17  and  C_19
REMARK    8  A    between atoms: C_29  and  C_31
REMARK                            x       y       z     vdW  Elec       q    Type
REMARK                         _______ _______ _______ _____ _____    ______ ____
ROOT
ATOM      1  N   UNL     1      -0.730  -4.066   1.359  0.00  0.00    -0.314 N 
ATOM      2  C   UNL     1      -0.722  -2.732   1.169  0.00  0.00    +0.234 C 
ATOM      3  O   UNL     1      -0.278  -2.000   2.027  0.00  0.00    -0.274 OA
ATOM      4  H   UNL     1      -1.085  -4.652   0.673  0.00  0.00    +0.149 HD
ENDROOT
BRANCH   2   5
ATOM      5  C   UNL     1      -1.266  -2.150  -0.110  0.00  0.00    +0.172 C 
ATOM      6  C   UNL     1      -2.772  -2.438  -0.229  0.00  0.00    +0.069 C 
ATOM      7  C   UNL     1      -3.418  -1.071  -0.271  0.00  0.00    -0.024 A 
ATOM      8  C   UNL     1      -4.745  -0.699  -0.372  0.00  0.00    +0.005 A 
ATOM      9  C   UNL     1      -5.091   0.639  -0.391  0.00  0.00    +0.000 A 
ATOM     10  C   UNL     1      -4.106   1.606  -0.308  0.00  0.00    +0.002 A 
ATOM     11  C   UNL     1      -2.781   1.239  -0.207  0.00  0.00    +0.024 A 
ATOM     12  C   UNL     1      -2.424  -0.111  -0.181  0.00  0.00    +0.041 A 
ATOM     13  N   UNL     1      -1.155  -0.689  -0.092  0.00  0.00    -0.255 N 
ATOM     14  C   UNL     1       0.002  -0.004   0.002  0.00  0.00    +0.252 C 
ATOM     15  O   UNL     1      -0.013   1.210   0.054  0.00  0.00    -0.270 OA
BRANCH  14  16
ATOM     16  C   UNL     1       1.290  -0.729   0.042  0.00  0.00    +0.037 A 
ATOM     17  C   UNL     1       1.322  -2.111  -0.155  0.00  0.00    +0.013 A 
ATOM     18  C   UNL     1       2.528  -2.780  -0.122  0.00  0.00    +0.001 A 
ATOM     19  C   UNL     1       3.701  -2.088   0.117  0.00  0.00    +0.000 A 
ATOM     20  C   UNL     1       3.675  -0.719   0.319  0.00  0.00    +0.001 A 
ATOM     21  C   UNL     1       2.477  -0.036   0.283  0.00  0.00    +0.013 A 
ENDBRANCH  14  16
ENDBRANCH   2   5
BRANCH   1  22
ATOM     22  C   UNL     1      -0.201  -4.632   2.603  0.00  0.00    +0.102 C 
BRANCH  22  23
ATOM     23  C   UNL     1      -0.327  -6.156   2.564  0.00  0.00    +0.000 C 
BRANCH  23  24
ATOM     24  C   UNL     1       0.226  -6.747   3.863  0.00  0.00    -0.077 C 
BRANCH  24  30
ATOM     25  C   UNL     1      -0.644 -10.832   4.775  0.00  0.00    -0.010 C 
ATOM     26  C   UNL     1       0.809 -10.350   4.789  0.00  0.00    -0.015 C 
ATOM     27  C   UNL     1       0.834  -8.827   4.941  0.00  0.00    -0.079 C 
ATOM     28  C   UNL     1      -1.305  -8.622   3.820  0.00  0.00    -0.079 C 
ATOM     29  C   UNL     1      -1.394 -10.139   3.634  0.00  0.00    -0.015 C 
ATOM     30  N   UNL     1       0.118  -8.219   3.800  0.00  0.00    +0.380 N 
ATOM     31  H   UNL     1       0.545  -8.547   2.926  0.00  0.00    -0.082 HD
BRANCH  25  32
ATOM     32  C   UNL     1      -0.678 -12.347   4.562  0.00  0.00    +0.038 C 
BRANCH  32  36
ATOM     33  C   UNL     1      -4.704 -13.741   4.870  0.00  0.00    +0.000 A 
ATOM     34  C   UNL     1      -4.201 -13.346   3.645  0.00  0.00    +0.000 A 
ATOM     35  C   UNL     1      -2.898 -12.895   3.545  0.00  0.00    +0.003 A 
ATOM     36  C   UNL     1      -2.098 -12.838   4.671  0.00  0.00    -0.047 A 
ATOM     37  C   UNL     1      -2.600 -13.238   5.896  0.00  0.00    +0.003 A 
ATOM     38  C   UNL     1      -3.904 -13.684   5.996  0.00  0.00    +0.000 A 
ENDBRANCH  32  36
ENDBRANCH  25  32
ENDBRANCH  24  30
ENDBRANCH  23  24
ENDBRANCH  22  23
ENDBRANCH   1  22
TORSDOF 8
