REMARK  Name = ZINC04222304
REMARK  11 active torsions:
REMARK  status: ('A' for Active; 'I' for Inactive)
REMARK    1  A    between atoms: C_1  and  C_2
REMARK    2  A    between atoms: C_5  and  O_41
REMARK    3  A    between atoms: C_7  and  C_38
REMARK    4  A    between atoms: C_7  and  C_39
REMARK    5  A    between atoms: C_17  and  C_19
REMARK    6  A    between atoms: C_25  and  C_27
REMARK    7  A    between atoms: C_27  and  C_28
REMARK    8  A    between atoms: N_30  and  C_31
REMARK    9  A    between atoms: C_31  and  C_32
REMARK   10  A    between atoms: C_32  and  N_85
REMARK   11  A    between atoms: C_39  and  O_40
REMARK                            x       y       z     vdW  Elec       q    Type
REMARK                         _______ _______ _______ _____ _____    ______ ____
ROOT
ATOM      1  C   UNL     1      -0.382   2.175   1.338  0.00  0.00    +0.012 C 
ATOM      2  C   UNL     1       0.312   1.474   0.168  0.00  0.00    -0.019 C 
ATOM      3  C   UNL     1      -0.410   1.807  -1.142  0.00  0.00    +0.010 C 
ATOM      4  C   UNL     1      -0.331   3.306  -1.426  0.00  0.00    +0.032 C 
ATOM      5  C   UNL     1       1.142   3.705  -1.561  0.00  0.00    +0.123 C 
ATOM      6  C   UNL     1       1.851   3.417  -0.239  0.00  0.00    +0.021 C 
ATOM      7  C   UNL     1       1.773   1.924   0.093  0.00  0.00    +0.011 C 
ATOM      8  C   UNL     1       2.426   1.731   1.476  0.00  0.00    +0.049 C 
ATOM      9  C   UNL     1       2.071   0.383   1.997  0.00  0.00    +0.015 A 
ATOM     10  C   UNL     1       1.103  -0.454   1.542  0.00  0.00    +0.058 A 
ATOM     11  N   UNL     1       0.983  -1.612   2.187  0.00  0.00    -0.229 NA
ATOM     12  C   UNL     1       1.754  -1.931   3.205  0.00  0.00    +0.165 A 
ATOM     13  S   UNL     1       2.776  -0.532   3.341  0.00  0.00    -0.057 S 
ATOM     14  N   UNL     1       1.752  -3.090   3.973  0.00  0.00    -0.264 N 
ATOM     15  C   UNL     1       2.632  -3.230   4.984  0.00  0.00    +0.222 C 
ATOM     16  O   UNL     1       3.425  -2.344   5.225  0.00  0.00    -0.275 OA
ATOM     17  C   UNL     1       0.235  -0.046   0.361  0.00  0.00    +0.054 C 
ATOM     18  C   UNL     1       3.318   3.834  -0.355  0.00  0.00    +0.016 C 
ATOM     19  H   UNL     1       1.118  -3.798   3.781  0.00  0.00    +0.157 HD
ENDROOT
BRANCH  15  20
ATOM     20  C   UNL     1       2.630  -4.486   5.817  0.00  0.00    +0.075 C 
ATOM     21  C   UNL     1       1.265  -4.650   6.489  0.00  0.00    +0.013 C 
ATOM     22  C   UNL     1       1.263  -5.926   7.334  0.00  0.00    +0.001 C 
ATOM     23  C   UNL     1       2.351  -5.829   8.405  0.00  0.00    +0.000 C 
ATOM     24  C   UNL     1       3.716  -5.665   7.734  0.00  0.00    +0.001 C 
ATOM     25  C   UNL     1       3.718  -4.389   6.889  0.00  0.00    +0.013 C 
ENDBRANCH  15  20
BRANCH   5  26
ATOM     26  O   UNL     1       1.235   5.099  -1.861  0.00  0.00    -0.391 OA
ATOM     27  H   UNL     1       0.805   5.352  -2.690  0.00  0.00    +0.210 HD
ENDBRANCH   5  26
BRANCH  17  28
ATOM     28  C   UNL     1      -1.215  -0.453   0.631  0.00  0.00    +0.106 C 
BRANCH  28  29
ATOM     29  C   UNL     1      -1.325  -1.956   0.623  0.00  0.00    +0.214 C 
ATOM     30  O   UNL     1      -0.340  -2.635   0.422  0.00  0.00    -0.276 OA
ATOM     31  N   UNL     1      -2.517  -2.546   0.840  0.00  0.00    -0.317 N 
ATOM     32  H   UNL     1      -3.305  -2.003   1.001  0.00  0.00    +0.149 HD
BRANCH  31  33
ATOM     33  C   UNL     1      -2.624  -4.007   0.833  0.00  0.00    +0.085 C 
BRANCH  33  34
ATOM     34  C   UNL     1      -4.074  -4.414   1.103  0.00  0.00    -0.060 C 
BRANCH  34  40
ATOM     35  C   UNL     1      -3.917  -6.420  -0.246  0.00  0.00    -0.050 C 
ATOM     36  C   UNL     1      -3.979  -7.949  -0.195  0.00  0.00    +0.141 C 
ATOM     37  O   UNL     1      -5.255  -8.352   0.309  0.00  0.00    -0.383 OA
ATOM     38  C   UNL     1      -5.546  -7.843   1.614  0.00  0.00    +0.141 C 
ATOM     39  C   UNL     1      -5.499  -6.313   1.582  0.00  0.00    -0.050 C 
ATOM     40  N   UNL     1      -4.163  -5.890   1.112  0.00  0.00    +0.384 N 
ATOM     41  H   UNL     1      -3.450  -6.263   1.750  0.00  0.00    -0.082 HD
ENDBRANCH  34  40
ENDBRANCH  33  34
ENDBRANCH  31  33
ENDBRANCH  28  29
ENDBRANCH  17  28
BRANCH   6  42
ATOM     42  C   UNL     1       1.183   4.220   0.879  0.00  0.00    +0.165 C 
BRANCH  42  43
ATOM     43  O   UNL     1       1.398   5.615   0.657  0.00  0.00    -0.394 OA
ATOM     44  H   UNL     1       1.002   6.186   1.329  0.00  0.00    +0.209 HD
ENDBRANCH  42  43
ENDBRANCH   6  42
TORSDOF 9
