REMARK  Name = ZINC63699225
REMARK  16 active torsions:
REMARK  status: ('A' for Active; 'I' for Inactive)
REMARK    1  A    between atoms: C_1  and  C_2
REMARK    2  A    between atoms: C_6  and  O_39
REMARK    3  A    between atoms: C_7  and  O_37
REMARK    4  A    between atoms: N_12  and  C_13
REMARK    5  A    between atoms: C_13  and  C_14
REMARK    6  A    between atoms: C_16  and  C_22
REMARK    7  A    between atoms: C_19  and  O_20
REMARK    8  A    between atoms: O_20  and  C_21
REMARK    9  A    between atoms: N_23  and  N_24
REMARK   10  A    between atoms: C_25  and  C_27
REMARK   11  A    between atoms: C_30  and  C_33
REMARK   12  A    between atoms: C_33  and  C_34
REMARK   13  A    between atoms: C_33  and  C_35
REMARK   14  A    between atoms: C_33  and  C_36
REMARK   15  A    between atoms: O_37  and  C_38
REMARK   16  A    between atoms: O_39  and  C_40
REMARK                            x       y       z     vdW  Elec       q    Type
REMARK                         _______ _______ _______ _____ _____    ______ ____
ROOT
ATOM      1  C   UNL     1       0.704  -0.515   3.627  0.00  0.00    -0.022 A 
ATOM      2  C   UNL     1       0.403  -1.683   4.294  0.00  0.00    +0.014 A 
ATOM      3  C   UNL     1       1.124  -2.039   5.436  0.00  0.00    -0.005 A 
ATOM      4  C   UNL     1       2.148  -1.207   5.898  0.00  0.00    +0.013 A 
ATOM      5  C   UNL     1       2.442  -0.041   5.226  0.00  0.00    +0.046 A 
ATOM      6  C   UNL     1       1.726   0.306   4.087  0.00  0.00    +0.121 A 
ENDROOT
BRANCH   6   7
ATOM      7  O   UNL     1       2.023   1.453   3.424  0.00  0.00    -0.495 OA
ATOM      8  C   UNL     1       3.086   2.250   3.950  0.00  0.00    +0.277 C 
ENDBRANCH   6   7
BRANCH   3   9
ATOM      9  C   UNL     1       0.805  -3.287   6.153  0.00  0.00    +0.138 C 
ATOM     10  N   UNL     1       1.476  -3.616   7.214  0.00  0.00    -0.188 NA
BRANCH  10  11
ATOM     11  N   UNL     1       1.173  -4.802   7.895  0.00  0.00    -0.205 N 
ATOM     12  C   UNL     1       1.870  -5.143   8.997  0.00  0.00    +0.262 C 
ATOM     13  O   UNL     1       2.760  -4.423   9.399  0.00  0.00    -0.271 OA
ATOM     14  H   UNL     1       0.462  -5.378   7.573  0.00  0.00    +0.177 HD
BRANCH  12  15
ATOM     15  C   UNL     1       1.544  -6.419   9.729  0.00  0.00    +0.240 C 
ATOM     16  C   UNL     1       0.367  -6.215  10.667  0.00  0.00    +0.036 C 
ATOM     17  C   UNL     1       0.873  -6.464  11.877  0.00  0.00    +0.067 C 
ATOM     18  N   UNL     1       2.183  -6.787  11.792  0.00  0.00    -0.158 NA
ATOM     19  N   UNL     1       2.639  -6.790  10.642  0.00  0.00    -0.170 NA
BRANCH  17  20
ATOM     20  C   UNL     1       0.090  -6.394  13.162  0.00  0.00    +0.006 C 
ATOM     21  C   UNL     1      -1.356  -5.998  12.858  0.00  0.00    +0.017 C 
ATOM     22  C   UNL     1       0.111  -7.763  13.847  0.00  0.00    +0.017 C 
ATOM     23  C   UNL     1       0.721  -5.352  14.088  0.00  0.00    +0.017 C 
ENDBRANCH  17  20
ENDBRANCH  12  15
ENDBRANCH  10  11
ENDBRANCH   3   9
BRANCH   1  24
ATOM     24  C   UNL     1      -0.073  -0.130   2.395  0.00  0.00    -0.038 C 
BRANCH  24  35
ATOM     25  C   UNL     1      -0.019   1.526   0.010  0.00  0.00    -0.008 C 
ATOM     26  C   UNL     1       0.002  -0.004   0.002  0.00  0.00    -0.040 C 
ATOM     27  C   UNL     1       0.696  -0.484  -1.245  0.00  0.00    -0.054 A 
ATOM     28  C   UNL     1       0.435   0.170  -2.441  0.00  0.00    +0.051 A 
ATOM     29  C   UNL     1       1.049  -0.239  -3.611  0.00  0.00    +0.162 A 
ATOM     30  C   UNL     1       1.933  -1.315  -3.587  0.00  0.00    +0.162 A 
ATOM     31  C   UNL     1       2.190  -1.964  -2.393  0.00  0.00    +0.053 A 
ATOM     32  C   UNL     1       1.573  -1.548  -1.223  0.00  0.00    -0.044 A 
ATOM     33  C   UNL     1       1.889  -2.279   0.057  0.00  0.00    +0.017 C 
ATOM     34  C   UNL     1       0.838  -1.946   1.117  0.00  0.00    -0.073 C 
ATOM     35  N   UNL     1       0.701  -0.484   1.198  0.00  0.00    +0.387 N 
ATOM     36  H   UNL     1       1.615  -0.061   1.247  0.00  0.00    -0.080 HD
BRANCH  30  37
ATOM     37  O   UNL     1       2.540  -1.725  -4.733  0.00  0.00    -0.491 OA
ATOM     38  C   UNL     1       3.434  -2.836  -4.632  0.00  0.00    +0.277 C 
ENDBRANCH  30  37
BRANCH  29  39
ATOM     39  O   UNL     1       0.790   0.406  -4.780  0.00  0.00    -0.491 OA
ATOM     40  C   UNL     1      -0.127   1.500  -4.727  0.00  0.00    +0.277 C 
ENDBRANCH  29  39
ENDBRANCH  24  35
ENDBRANCH   1  24
TORSDOF 9
