REMARK  Name = ZINC40316968
REMARK  13 active torsions:
REMARK  status: ('A' for Active; 'I' for Inactive)
REMARK    1  A    between atoms: C_1  and  C_2
REMARK    2  A    between atoms: C_2  and  C_3
REMARK    3  A    between atoms: C_3  and  O_4
REMARK    4  A    between atoms: O_4  and  C_5
REMARK    5  A    between atoms: C_8  and  C_11
REMARK    6  A    between atoms: C_11  and  N_12
REMARK    7  A    between atoms: N_12  and  C_13
REMARK    8  A    between atoms: N_12  and  C_26
REMARK    9  A    between atoms: C_13  and  C_14
REMARK   10  A    between atoms: C_14  and  C_16
REMARK   11  A    between atoms: C_14  and  O_25
REMARK   12  A    between atoms: C_16  and  O_17
REMARK   13  A    between atoms: O_17  and  C_18
REMARK                            x       y       z     vdW  Elec       q    Type
REMARK                         _______ _______ _______ _____ _____    ______ ____
ROOT
ATOM      1  N   UNL     1       2.439  -4.748   6.487  0.00  0.00    +0.387 N 
ATOM      2  H   UNL     1       1.738  -5.222   5.938  0.00  0.00    -0.081 HD
ENDROOT
BRANCH   1   3
ATOM      3  C   UNL     1       2.019  -3.361   6.727  0.00  0.00    -0.045 C 
ATOM      4  C   UNL     1       1.385  -2.783   5.452  0.00  0.00    +0.009 C 
ATOM      5  C   UNL     1       1.235  -1.248   5.586  0.00  0.00    +0.164 C 
ATOM      6  S   UNL     1       2.603  -0.808   6.734  0.00  0.00    -0.033 S 
ATOM      7  O   UNL     1       2.051  -0.265   7.925  0.00  0.00    -0.174 OA
ATOM      8  O   UNL     1       3.586  -0.070   6.020  0.00  0.00    -0.174 OA
ATOM      9  C   UNL     1       3.257  -2.493   7.089  0.00  0.00    +0.151 C 
ENDBRANCH   1   3
BRANCH   1  10
ATOM     10  C   UNL     1       3.716  -4.755   5.762  0.00  0.00    -0.042 C 
BRANCH  10  14
ATOM     11  C   UNL     1       3.103  -3.324   1.782  0.00  0.00    +0.121 A 
ATOM     12  C   UNL     1       3.611  -2.475   2.755  0.00  0.00    +0.046 A 
ATOM     13  C   UNL     1       3.808  -2.940   4.041  0.00  0.00    +0.005 A 
ATOM     14  C   UNL     1       3.500  -4.250   4.359  0.00  0.00    -0.064 A 
ATOM     15  C   UNL     1       2.994  -5.098   3.391  0.00  0.00    +0.005 A 
ATOM     16  C   UNL     1       2.789  -4.636   2.105  0.00  0.00    +0.046 A 
BRANCH  11  17
ATOM     17  O   UNL     1       2.907  -2.869   0.517  0.00  0.00    -0.492 OA
BRANCH  17  18
ATOM     18  C   UNL     1       3.252  -1.507   0.257  0.00  0.00    +0.229 C 
BRANCH  18  20
ATOM     19  C   UNL     1       3.335   0.279  -1.488  0.00  0.00    +0.007 C 
ATOM     20  C   UNL     1       2.965  -1.179  -1.210  0.00  0.00    +0.038 C 
ENDBRANCH  18  20
ENDBRANCH  17  18
ENDBRANCH  11  17
ENDBRANCH  10  14
ENDBRANCH   1  10
BRANCH   1  21
ATOM     21  C   UNL     1       2.602  -5.440   7.773  0.00  0.00    -0.043 C 
BRANCH  21  22
ATOM     22  C   UNL     1       1.239  -5.579   8.454  0.00  0.00    +0.135 C 
BRANCH  22  23
ATOM     23  O   UNL     1       0.377  -6.373   7.636  0.00  0.00    -0.390 OA
ATOM     24  H   UNL     1       0.706  -7.267   7.470  0.00  0.00    +0.210 HD
ENDBRANCH  22  23
BRANCH  22  25
ATOM     25  C   UNL     1       1.416  -6.255   9.815  0.00  0.00    +0.258 C 
BRANCH  25  26
ATOM     26  O   UNL     1       0.163  -6.280  10.501  0.00  0.00    -0.488 OA
BRANCH  26  27
ATOM     27  C   UNL     1       0.145  -6.851  11.734  0.00  0.00    +0.135 A 
ATOM     28  C   UNL     1       1.312  -7.372  12.276  0.00  0.00    +0.047 A 
ATOM     29  C   UNL     1       1.292  -7.951  13.529  0.00  0.00    +0.004 A 
ATOM     30  C   UNL     1       0.110  -8.014  14.245  0.00  0.00    +0.001 A 
ATOM     31  C   UNL     1      -1.054  -7.497  13.708  0.00  0.00    +0.019 A 
ATOM     32  C   UNL     1      -1.039  -6.910  12.457  0.00  0.00    +0.059 A 
ATOM     33 BR   UNL     1      -2.630  -6.195  11.726  0.00  0.00    -0.047 Br
ENDBRANCH  26  27
ENDBRANCH  25  26
ENDBRANCH  22  25
ENDBRANCH  21  22
ENDBRANCH   1  21
TORSDOF 12
