REMARK  Name = ZINC65265917
REMARK  4 active torsions:
REMARK  status: ('A' for Active; 'I' for Inactive)
REMARK    1  A    between atoms: C_1  and  C_2
REMARK    2  A    between atoms: C_2  and  N_3
REMARK    3  A    between atoms: C_6  and  C_8
REMARK    4  A    between atoms: N_25  and  C_26
REMARK                            x       y       z     vdW  Elec       q    Type
REMARK                         _______ _______ _______ _____ _____    ______ ____
ROOT
ATOM      1  C   UNL     1       1.145  -0.612  -4.734  0.00  0.00    +0.268 C 
ATOM      2  O   UNL     1       1.950  -1.215  -5.416  0.00  0.00    -0.268 OA
ATOM      3  N   UNL     1       0.218   0.172  -5.319  0.00  0.00    -0.294 N 
ATOM      4  C   UNL     1      -0.807   0.959  -4.615  0.00  0.00    +0.110 C 
ATOM      5  C   UNL     1      -1.623   1.715  -5.688  0.00  0.00    +0.050 C 
ATOM      6  C   UNL     1      -0.673   1.724  -6.897  0.00  0.00    +0.091 C 
ATOM      7  C   UNL     1       0.068   0.388  -6.772  0.00  0.00    +0.138 C 
ATOM      8  C   UNL     1      -1.406   1.847  -8.188  0.00  0.00    +0.095 C 
ATOM      9  N   UNL     1      -0.721   2.424  -9.230  0.00  0.00    -0.303 N 
ATOM     10  C   UNL     1      -0.783   3.804  -9.394  0.00  0.00    +0.037 A 
ATOM     11  C   UNL     1      -0.995   4.345 -10.654  0.00  0.00    +0.023 A 
ATOM     12  C   UNL     1      -1.042   5.714 -10.823  0.00  0.00    +0.002 A 
ATOM     13  C   UNL     1      -0.875   6.540  -9.726  0.00  0.00    +0.000 A 
ATOM     14  C   UNL     1      -0.671   6.003  -8.474  0.00  0.00    +0.007 A 
ATOM     15  C   UNL     1      -0.628   4.625  -8.284  0.00  0.00    -0.012 A 
ATOM     16  C   UNL     1      -0.434   4.139  -6.871  0.00  0.00    +0.119 C 
ATOM     17  N   UNL     1       0.277   2.855  -6.805  0.00  0.00    -0.299 NA
ATOM     18  N   UNL     1      -2.623   1.432  -8.322  0.00  0.00    -0.372 N 
ATOM     19  H   UNL     1       0.834   2.792  -5.966  0.00  0.00    +0.123 HD
ATOM     20  H   UNL     1      -3.083   1.028  -7.569  0.00  0.00    +0.161 HD
ATOM     21  H   UNL     1      -0.202   1.878  -9.841  0.00  0.00    +0.153 HD
ENDROOT
BRANCH   1  25
ATOM     22  N   UNL     1       0.688  -0.476  -1.203  0.00  0.00    -0.270 N 
ATOM     23  C   UNL     1       1.745  -1.327  -1.213  0.00  0.00    +0.129 A 
ATOM     24  C   UNL     1       2.090  -1.520  -2.509  0.00  0.00    +0.091 A 
ATOM     25  C   UNL     1       1.181  -0.739  -3.263  0.00  0.00    +0.165 A 
ATOM     26  N   UNL     1       0.372  -0.150  -2.405  0.00  0.00    -0.165 NA
ATOM     27 CL   UNL     1       3.376  -2.515  -3.116  0.00  0.00    -0.080 Cl
BRANCH  22  29
ATOM     28  C   UNL     1      -0.019   1.526   0.010  0.00  0.00    +0.029 C 
ATOM     29  C   UNL     1       0.002  -0.004   0.002  0.00  0.00    +0.140 C 
ENDBRANCH  22  29
ENDBRANCH   1  25
BRANCH  18  30
ATOM     30  C   UNL     1      -3.308   1.571  -9.610  0.00  0.00    +0.080 C 
ATOM     31  C   UNL     1      -3.998   2.948  -9.695  0.00  0.00    +0.024 C 
ATOM     32  C   UNL     1      -5.320   2.664 -10.451  0.00  0.00    +0.002 C 
ATOM     33  C   UNL     1      -5.746   1.285  -9.889  0.00  0.00    +0.002 C 
ATOM     34  C   UNL     1      -4.419   0.513  -9.733  0.00  0.00    +0.024 C 
ENDBRANCH  18  30
TORSDOF 3
