REMARK  Name = ZINC13040028
REMARK  8 active torsions:
REMARK  status: ('A' for Active; 'I' for Inactive)
REMARK    1  A    between atoms: C_1  and  N_2
REMARK    2  A    between atoms: N_2  and  C_3
REMARK    3  A    between atoms: N_2  and  C_4
REMARK    4  A    between atoms: C_4  and  C_6
REMARK    5  A    between atoms: C_4  and  C_27
REMARK    6  A    between atoms: C_6  and  N_7
REMARK    7  A    between atoms: C_15  and  C_17
REMARK    8  A    between atoms: C_17  and  N_18
REMARK                            x       y       z     vdW  Elec       q    Type
REMARK                         _______ _______ _______ _____ _____    ______ ____
ROOT
ATOM      1  N   UNL     1       3.606   1.740   0.847  0.00  0.00    -0.330 N 
ATOM      2  C   UNL     1       2.667   0.937   1.469  0.00  0.00    +0.131 A 
ATOM      3  C   UNL     1       2.760  -0.479   1.386  0.00  0.00    +0.051 A 
ATOM      4  C   UNL     1       3.773  -1.290   0.690  0.00  0.00    -0.025 A 
ATOM      5  C   UNL     1       3.639  -2.624   0.766  0.00  0.00    -0.004 A 
ATOM      6  S   UNL     1       2.180  -2.888   1.748  0.00  0.00    -0.073 S 
ATOM      7  C   UNL     1       1.753  -1.196   2.057  0.00  0.00    +0.114 A 
ATOM      8  N   UNL     1       0.790  -0.579   2.714  0.00  0.00    -0.223 NA
ATOM      9  C   UNL     1       0.753   0.739   2.756  0.00  0.00    +0.146 A 
ATOM     10  N   UNL     1       1.667   1.475   2.150  0.00  0.00    -0.216 NA
ATOM     11  C   UNL     1       4.730  -3.348   0.023  0.00  0.00    +0.043 C 
ATOM     12  C   UNL     1       5.832  -2.285  -0.179  0.00  0.00    +0.010 C 
ATOM     13  C   UNL     1       5.016  -0.978  -0.149  0.00  0.00    +0.037 C 
ATOM     14  H   UNL     1       4.465   1.285   0.332  0.00  0.00    +0.147 HD
ENDROOT
BRANCH   1  15
ATOM     15  C   UNL     1       3.455   3.197   0.874  0.00  0.00    +0.092 C 
BRANCH  15  16
ATOM     16  C   UNL     1       4.506   3.835  -0.038  0.00  0.00    -0.017 C 
BRANCH  16  17
ATOM     17  C   UNL     1       4.191   5.298  -0.221  0.00  0.00    -0.006 A 
ATOM     18  C   UNL     1       3.840   5.779  -1.471  0.00  0.00    +0.126 A 
ATOM     19  C   UNL     1       3.551   7.123  -1.637  0.00  0.00    +0.038 A 
ATOM     20  C   UNL     1       3.613   7.983  -0.556  0.00  0.00    +0.004 A 
ATOM     21  C   UNL     1       3.964   7.502   0.691  0.00  0.00    +0.020 A 
ATOM     22  C   UNL     1       4.247   6.158   0.860  0.00  0.00    +0.045 A 
ATOM     23 CL   UNL     1       4.681   5.553   2.429  0.00  0.00    -0.083 Cl
ATOM     24  F   UNL     1       3.779   4.939  -2.527  0.00  0.00    -0.205 F 
ENDBRANCH  16  17
BRANCH  16  26
ATOM     25  C   UNL     1       6.475   2.439   0.151  0.00  0.00    -0.096 C 
ATOM     26  N   UNL     1       5.835   3.693   0.571  0.00  0.00    +0.382 N 
ATOM     27  C   UNL     1       6.684   4.849   0.257  0.00  0.00    -0.096 C 
ATOM     28  H   UNL     1       5.704   3.656   1.663  0.00  0.00    -0.082 HD
ENDBRANCH  16  26
ENDBRANCH  15  16
ENDBRANCH   1  15
BRANCH   9  29
ATOM     29  C   UNL     1      -0.361   1.421   3.508  0.00  0.00    +0.160 C 
BRANCH  29  30
ATOM     30  N   UNL     1       0.045   1.627   4.905  0.00  0.00    -0.291 NA
ATOM     31  C   UNL     1       0.196   0.343   5.605  0.00  0.00    +0.113 C 
ATOM     32  C   UNL     1       0.677   0.601   7.035  0.00  0.00    +0.175 C 
ATOM     33  O   UNL     1      -0.247   1.471   7.694  0.00  0.00    -0.377 OA
ATOM     34  C   UNL     1      -0.418   2.731   7.039  0.00  0.00    +0.175 C 
ATOM     35  C   UNL     1      -0.910   2.495   5.609  0.00  0.00    +0.113 C 
ENDBRANCH  29  30
ENDBRANCH   9  29
TORSDOF 6
