REMARK  Name = ZINC64040805
REMARK  5 active torsions:
REMARK  status: ('A' for Active; 'I' for Inactive)
REMARK    1  A    between atoms: C_5  and  C_7
REMARK    2  A    between atoms: C_9  and  C_13
REMARK    3  A    between atoms: C_17  and  C_20
REMARK    4  A    between atoms: C_20  and  N_21
REMARK    5  A    between atoms: C_22  and  C_24
REMARK                            x       y       z     vdW  Elec       q    Type
REMARK                         _______ _______ _______ _____ _____    ______ ____
ROOT
ATOM      1  C   UNL     1      -0.017   1.376   0.010  0.00  0.00    +0.001 A 
ATOM      2  C   UNL     1       1.174   2.083   0.002  0.00  0.00    +0.007 A 
ATOM      3  C   UNL     1       2.378   1.413  -0.015  0.00  0.00    -0.002 A 
ATOM      4  C   UNL     1       2.421   0.026  -0.030  0.00  0.00    +0.132 A 
ATOM      5  C   UNL     1       1.214  -0.688  -0.017  0.00  0.00    +0.026 A 
ATOM      6  C   UNL     1       0.002  -0.004   0.002  0.00  0.00    +0.012 A 
ATOM      7  O   UNL     1       3.703  -0.428  -0.068  0.00  0.00    -0.486 OA
ATOM      8  C   UNL     1       4.589   0.618   0.366  0.00  0.00    +0.195 C 
ATOM      9  C   UNL     1       3.814   1.902  -0.016  0.00  0.00    +0.085 C 
ENDROOT
BRANCH   5  10
ATOM     10  C   UNL     1       1.228  -2.171  -0.025  0.00  0.00    +0.004 A 
ATOM     11  C   UNL     1       0.471  -2.891   0.899  0.00  0.00    +0.024 A 
ATOM     12  C   UNL     1       0.520  -4.287   0.848  0.00  0.00    +0.055 A 
ATOM     13  C   UNL     1       1.319  -4.902  -0.118  0.00  0.00    +0.123 A 
ATOM     14  N   UNL     1       2.019  -4.183  -0.971  0.00  0.00    -0.262 NA
ATOM     15  C   UNL     1       1.995  -2.865  -0.960  0.00  0.00    +0.119 A 
BRANCH  12  16
ATOM     16  C   UNL     1      -0.262  -5.101   1.804  0.00  0.00    +0.243 C 
ATOM     17  O   UNL     1      -0.955  -4.557   2.641  0.00  0.00    -0.270 OA
ATOM     18  N   UNL     1      -0.207  -6.446   1.746  0.00  0.00    -0.325 N 
ATOM     19  H   UNL     1       0.346  -6.881   1.077  0.00  0.00    +0.145 HD
ATOM     20  H   UNL     1      -0.720  -6.980   2.372  0.00  0.00    +0.145 HD
ENDBRANCH  12  16
ENDBRANCH   5  10
BRANCH   8  21
ATOM     21  C   UNL     1       5.923   0.544  -0.381  0.00  0.00    +0.149 C 
BRANCH  21  22
ATOM     22  N   UNL     1       6.573  -0.737  -0.092  0.00  0.00    -0.308 N 
ATOM     23  C   UNL     1       7.768  -1.026  -0.644  0.00  0.00    +0.244 C 
ATOM     24  O   UNL     1       8.306  -0.223  -1.382  0.00  0.00    -0.270 OA
ATOM     25  H   UNL     1       6.143  -1.377   0.497  0.00  0.00    +0.149 HD
BRANCH  23  26
ATOM     26  C   UNL     1       8.423  -2.315  -0.353  0.00  0.00    +0.037 A 
ATOM     27  C   UNL     1       7.761  -3.269   0.529  0.00  0.00    +0.015 A 
ATOM     28  C   UNL     1       8.325  -4.460   0.817  0.00  0.00    +0.026 A 
ATOM     29  C   UNL     1       9.626  -4.810   0.237  0.00  0.00    +0.043 A 
ATOM     30  N   UNL     1      10.374  -5.881   0.380  0.00  0.00    -0.378 N 
ATOM     31  C   UNL     1      11.541  -5.752  -0.487  0.00  0.00    +0.106 C 
ATOM     32  C   UNL     1      12.856  -5.868   0.287  0.00  0.00    +0.029 C 
ATOM     33  C   UNL     1      14.003  -5.438  -0.635  0.00  0.00    +0.003 C 
ATOM     34  C   UNL     1      13.893  -3.959  -0.999  0.00  0.00    +0.004 C 
ATOM     35  C   UNL     1      12.611  -3.712  -1.812  0.00  0.00    +0.033 C 
ATOM     36  C   UNL     1      11.467  -4.345  -1.056  0.00  0.00    -0.038 C 
ATOM     37  C   UNL     1      10.292  -3.828  -0.652  0.00  0.00    -0.000 A 
ATOM     38  C   UNL     1       9.642  -2.595  -0.924  0.00  0.00    +0.023 A 
ATOM     39  H   UNL     1      10.183  -6.632   0.964  0.00  0.00    +0.160 HD
ENDBRANCH  23  26
ENDBRANCH  21  22
ENDBRANCH   8  21
TORSDOF 5
