REMARK  Name = ZINC64847064
REMARK  8 active torsions:
REMARK  status: ('A' for Active; 'I' for Inactive)
REMARK    1  A    between atoms: C_5  and  N_7
REMARK    2  A    between atoms: N_10  and  C_13
REMARK    3  A    between atoms: C_13  and  C_14
REMARK    4  A    between atoms: C_14  and  C_15
REMARK    5  A    between atoms: C_15  and  N_16
REMARK    6  A    between atoms: C_17  and  C_19
REMARK    7  A    between atoms: C_19  and  C_20
REMARK    8  A    between atoms: N_28  and  C_29
REMARK                            x       y       z     vdW  Elec       q    Type
REMARK                         _______ _______ _______ _____ _____    ______ ____
ROOT
ATOM      1  N   UNL     1       3.860  -8.661  -2.386  0.00  0.00    -0.315 N 
ATOM      2  C   UNL     1       4.679  -9.710  -2.600  0.00  0.00    +0.213 C 
ATOM      3  O   UNL     1       5.608  -9.918  -1.848  0.00  0.00    -0.276 OA
ATOM      4  H   UNL     1       3.118  -8.495  -2.988  0.00  0.00    +0.149 HD
ENDROOT
BRANCH   1   5
ATOM      5  C   UNL     1       4.092  -7.772  -1.245  0.00  0.00    +0.102 C 
BRANCH   5   6
ATOM      6  C   UNL     1       3.029  -6.671  -1.232  0.00  0.00    +0.000 C 
BRANCH   6   7
ATOM      7  C   UNL     1       3.270  -5.743  -0.040  0.00  0.00    -0.077 C 
BRANCH   7  11
ATOM      8  N   UNL     1       1.263  -2.071  -0.003  0.00  0.00    -0.331 N 
ATOM      9  C   UNL     1       1.277  -2.838   1.252  0.00  0.00    +0.086 C 
ATOM     10  C   UNL     1       2.410  -3.868   1.180  0.00  0.00    -0.060 C 
ATOM     11  N   UNL     1       2.250  -4.686  -0.028  0.00  0.00    +0.382 N 
ATOM     12  C   UNL     1       2.401  -3.848  -1.224  0.00  0.00    -0.060 C 
ATOM     13  C   UNL     1       1.262  -2.817  -1.271  0.00  0.00    +0.086 C 
ATOM     14  H   UNL     1       1.333  -5.108  -0.028  0.00  0.00    -0.082 HD
BRANCH   8  19
ATOM     15  C   UNL     1       0.021   1.389   0.034  0.00  0.00    +0.002 A 
ATOM     16  C   UNL     1       1.210   2.095   0.030  0.00  0.00    +0.003 A 
ATOM     17  C   UNL     1       2.417   1.422   0.015  0.00  0.00    +0.040 A 
ATOM     18  C   UNL     1       2.440   0.039   0.004  0.00  0.00    +0.144 A 
ATOM     19  C   UNL     1       1.245  -0.673   0.008  0.00  0.00    +0.065 A 
ATOM     20  C   UNL     1       0.035   0.007   0.023  0.00  0.00    +0.026 A 
ATOM     21  F   UNL     1       3.620  -0.618  -0.011  0.00  0.00    -0.204 F 
ENDBRANCH   8  19
ENDBRANCH   7  11
ENDBRANCH   6   7
ENDBRANCH   5   6
ENDBRANCH   1   5
BRANCH   2  22
ATOM     22  C   UNL     1       4.441 -10.624  -3.774  0.00  0.00    +0.099 C 
BRANCH  22  23
ATOM     23  C   UNL     1       5.504 -11.725  -3.786  0.00  0.00    +0.001 C 
ATOM     24  C   UNL     1       6.881 -11.101  -4.029  0.00  0.00    +0.023 C 
ATOM     25  C   UNL     1       7.947 -12.202  -4.007  0.00  0.00    +0.109 C 
ATOM     26  N   UNL     1       7.574 -13.240  -4.978  0.00  0.00    -0.286 N 
ATOM     27  C   UNL     1       6.237 -13.842  -4.890  0.00  0.00    +0.109 C 
ATOM     28  C   UNL     1       5.191 -12.724  -4.903  0.00  0.00    +0.023 C 
ATOM     29  C   UNL     1       8.443 -13.632  -5.931  0.00  0.00    +0.302 C 
ATOM     30  O   UNL     1       9.510 -13.061  -6.053  0.00  0.00    -0.253 OA
ATOM     31  N   UNL     1       8.130 -14.657  -6.747  0.00  0.00    -0.296 N 
ATOM     32  H   UNL     1       7.252 -15.066  -6.698  0.00  0.00    +0.151 HD
BRANCH  31  33
ATOM     33  C   UNL     1       9.116 -15.155  -7.710  0.00  0.00    +0.074 C 
ATOM     34  C   UNL     1       9.054 -14.312  -8.985  0.00  0.00    +0.022 C 
ATOM     35  C   UNL     1      10.084 -14.831  -9.991  0.00  0.00    +0.002 C 
ATOM     36  C   UNL     1       9.775 -16.291 -10.329  0.00  0.00    +0.000 C 
ATOM     37  C   UNL     1       9.838 -17.134  -9.053  0.00  0.00    +0.002 C 
ATOM     38  C   UNL     1       8.808 -16.614  -8.048  0.00  0.00    +0.022 C 
ENDBRANCH  31  33
ENDBRANCH  22  23
ENDBRANCH   2  22
TORSDOF 8
