REMARK  Name = ZINC39663915
REMARK  11 active torsions:
REMARK  status: ('A' for Active; 'I' for Inactive)
REMARK    1  A    between atoms: C_1  and  N_2
REMARK    2  A    between atoms: N_2  and  C_3
REMARK    3  A    between atoms: N_2  and  C_4
REMARK    4  A    between atoms: C_4  and  C_6
REMARK    5  A    between atoms: C_4  and  C_34
REMARK    6  A    between atoms: C_6  and  N_7
REMARK    7  A    between atoms: C_8  and  C_10
REMARK    8  A    between atoms: C_21  and  C_23
REMARK    9  A    between atoms: C_26  and  C_28
REMARK   10  A    between atoms: C_37  and  O_40
REMARK   11  A    between atoms: O_40  and  C_41
REMARK                            x       y       z     vdW  Elec       q    Type
REMARK                         _______ _______ _______ _____ _____    ______ ____
ROOT
ATOM      1  C   UNL     1      -1.288   3.426   4.090  0.00  0.00    +0.100 C 
ATOM      2  C   UNL     1       0.059   4.172   4.218  0.00  0.00    +0.121 C 
ATOM      3  N   UNL     1      -0.197   5.239   5.215  0.00  0.00    -0.294 N 
ATOM      4  C   UNL     1      -1.062   4.594   6.231  0.00  0.00    +0.115 C 
ATOM      5  C   UNL     1      -2.021   3.704   5.413  0.00  0.00    -0.004 C 
ATOM      6  C   UNL     1      -3.329   4.444   5.147  0.00  0.00    -0.010 C 
ATOM      7  C   UNL     1      -4.066   4.659   6.472  0.00  0.00    -0.082 C 
ATOM      8  N   UNL     1      -4.334   3.360   7.101  0.00  0.00    +0.379 N 
ATOM      9  C   UNL     1      -3.069   2.697   7.438  0.00  0.00    -0.082 C 
ATOM     10  C   UNL     1      -2.289   2.398   6.155  0.00  0.00    -0.010 C 
ATOM     11  C   UNL     1       0.256   6.508   5.200  0.00  0.00    +0.282 C 
ATOM     12  O   UNL     1      -0.044   7.271   6.100  0.00  0.00    -0.267 OA
ATOM     13  H   UNL     1      -4.873   3.501   7.943  0.00  0.00    -0.086 HD
ATOM     14  H   UNL     1      -4.857   2.780   6.463  0.00  0.00    -0.086 HD
ENDROOT
BRANCH  11  15
ATOM     15  C   UNL     1       1.109   6.970   4.102  0.00  0.00    +0.190 A 
ATOM     16  C   UNL     1       1.642   8.233   3.968  0.00  0.00    +0.055 A 
ATOM     17  C   UNL     1       2.385   8.233   2.783  0.00  0.00    +0.050 A 
ATOM     18  C   UNL     1       2.280   6.984   2.243  0.00  0.00    +0.136 A 
ATOM     19  O   UNL     1       1.514   6.230   3.049  0.00  0.00    -0.450 OA
BRANCH  18  20
ATOM     20  C   UNL     1       2.910   6.534   0.985  0.00  0.00    +0.017 A 
ATOM     21  C   UNL     1       3.697   7.415   0.240  0.00  0.00    +0.011 A 
ATOM     22  C   UNL     1       4.282   6.989  -0.934  0.00  0.00    +0.001 A 
ATOM     23  C   UNL     1       4.091   5.691  -1.374  0.00  0.00    +0.000 A 
ATOM     24  C   UNL     1       3.312   4.812  -0.641  0.00  0.00    +0.001 A 
ATOM     25  C   UNL     1       2.726   5.224   0.538  0.00  0.00    +0.011 A 
ENDBRANCH  18  20
ENDBRANCH  11  15
BRANCH   1  27
ATOM     26  N   UNL     1      -1.939   1.199   3.232  0.00  0.00    -0.316 N 
ATOM     27  C   UNL     1      -1.054   1.947   3.921  0.00  0.00    +0.218 C 
ATOM     28  O   UNL     1      -0.070   1.429   4.405  0.00  0.00    -0.275 OA
ATOM     29  H   UNL     1      -2.726   1.613   2.845  0.00  0.00    +0.149 HD
BRANCH  26  30
ATOM     30  C   UNL     1      -1.712  -0.239   3.068  0.00  0.00    +0.093 C 
BRANCH  30  31
ATOM     31  C   UNL     1      -2.919  -0.870   2.371  0.00  0.00    -0.021 C 
BRANCH  31  32
ATOM     32  C   UNL     1      -4.124  -0.775   3.270  0.00  0.00    -0.059 A 
ATOM     33  C   UNL     1      -4.837   0.408   3.347  0.00  0.00    +0.005 A 
ATOM     34  C   UNL     1      -5.942   0.497   4.171  0.00  0.00    +0.046 A 
ATOM     35  C   UNL     1      -6.337  -0.601   4.921  0.00  0.00    +0.120 A 
ATOM     36  C   UNL     1      -5.621  -1.787   4.842  0.00  0.00    +0.046 A 
ATOM     37  C   UNL     1      -4.520  -1.873   4.012  0.00  0.00    +0.005 A 
BRANCH  35  38
ATOM     38  O   UNL     1      -7.424  -0.515   5.733  0.00  0.00    -0.495 OA
ATOM     39  C   UNL     1      -7.773  -1.685   6.475  0.00  0.00    +0.277 C 
ENDBRANCH  35  38
ENDBRANCH  31  32
BRANCH  31  41
ATOM     40  C   UNL     1      -1.993  -0.201   0.261  0.00  0.00    -0.096 C 
ATOM     41  N   UNL     1      -3.187  -0.156   1.115  0.00  0.00    +0.382 N 
ATOM     42  C   UNL     1      -4.311  -0.795   0.419  0.00  0.00    -0.096 C 
ATOM     43  H   UNL     1      -3.420   0.805   1.318  0.00  0.00    -0.082 HD
ENDBRANCH  31  41
ENDBRANCH  30  31
ENDBRANCH  26  30
ENDBRANCH   1  27
TORSDOF 8
