REMARK  Name = ZINC22735882
REMARK  8 active torsions:
REMARK  status: ('A' for Active; 'I' for Inactive)
REMARK    1  A    between atoms: C_1  and  N_2
REMARK    2  A    between atoms: N_5  and  C_8
REMARK    3  A    between atoms: C_8  and  C_10
REMARK    4  A    between atoms: C_8  and  C_25
REMARK    5  A    between atoms: C_10  and  N_11
REMARK    6  A    between atoms: N_11  and  S_12
REMARK    7  A    between atoms: S_12  and  C_15
REMARK    8  A    between atoms: N_33  and  C_34
REMARK                            x       y       z     vdW  Elec       q    Type
REMARK                         _______ _______ _______ _____ _____    ______ ____
ROOT
ATOM      1  C   UNL     1      -2.224   4.770   0.478  0.00  0.00    +0.102 C 
ENDROOT
BRANCH   1   2
ATOM      2  C   UNL     1      -0.970   3.941   0.383  0.00  0.00    -0.029 A 
ATOM      3  C   UNL     1      -0.912   2.700   0.990  0.00  0.00    +0.007 A 
ATOM      4  C   UNL     1       0.234   1.938   0.908  0.00  0.00    +0.024 A 
ATOM      5  C   UNL     1       1.344   2.414   0.211  0.00  0.00    +0.033 A 
ATOM      6  C   UNL     1       1.275   3.660  -0.400  0.00  0.00    -0.025 A 
ATOM      7  C   UNL     1       0.125   4.417  -0.316  0.00  0.00    +0.010 A 
ATOM      8  C   UNL     1       2.602   3.920  -1.084  0.00  0.00    +0.056 C 
ATOM      9  C   UNL     1       3.243   2.514  -1.133  0.00  0.00    +0.109 C 
ATOM     10  N   UNL     1       2.598   1.824   0.005  0.00  0.00    -0.332 N 
ATOM     11  C   UNL     1       2.466   0.385  -0.258  0.00  0.00    +0.129 C 
ENDBRANCH   1   2
BRANCH   1  16
ATOM     12  C   UNL     1      -0.413   8.379   4.428  0.00  0.00    -0.096 C 
ATOM     13  N   UNL     1      -0.623   7.282   3.474  0.00  0.00    +0.379 N 
ATOM     14  C   UNL     1      -1.859   6.548   3.779  0.00  0.00    -0.064 C 
ATOM     15  C   UNL     1      -1.999   5.368   2.814  0.00  0.00    +0.066 C 
ATOM     16  N   UNL     1      -2.014   5.867   1.432  0.00  0.00    -0.298 NA
ATOM     17  C   UNL     1      -0.779   6.602   1.127  0.00  0.00    +0.066 C 
ATOM     18  C   UNL     1      -0.638   7.782   2.092  0.00  0.00    -0.064 C 
ATOM     19  H   UNL     1       0.221   6.583   3.573  0.00  0.00    -0.082 HD
ENDBRANCH   1  16
BRANCH   1  20
ATOM     20  C   UNL     1      -2.559   5.349  -0.898  0.00  0.00    +0.129 C 
BRANCH  20  21
ATOM     21  N   UNL     1      -3.708   6.250  -0.783  0.00  0.00    -0.188 NA
ATOM     22  H   UNL     1      -4.432   6.116   0.033  0.00  0.00    +0.148 HD
BRANCH  21  23
ATOM     23  S   UNL     1      -4.056   7.308  -2.008  0.00  0.00    +0.059 S 
ATOM     24  O   UNL     1      -5.198   8.046  -1.595  0.00  0.00    -0.153 OA
ATOM     25  O   UNL     1      -2.832   7.935  -2.364  0.00  0.00    -0.153 OA
BRANCH  23  26
ATOM     26  C   UNL     1      -4.554   6.348  -3.400  0.00  0.00    +0.113 A 
ATOM     27  C   UNL     1      -3.837   6.397  -4.556  0.00  0.00    +0.029 A 
ATOM     28  C   UNL     1      -4.215   5.646  -5.667  0.00  0.00    +0.003 A 
ATOM     29  C   UNL     1      -5.311   4.840  -5.628  0.00  0.00    +0.008 A 
ATOM     30  C   UNL     1      -6.076   4.763  -4.451  0.00  0.00    -0.016 A 
ATOM     31  C   UNL     1      -5.689   5.524  -3.320  0.00  0.00    +0.008 A 
ATOM     32  C   UNL     1      -6.456   5.450  -2.144  0.00  0.00    +0.010 A 
ATOM     33  C   UNL     1      -7.552   4.645  -2.106  0.00  0.00    +0.001 A 
ATOM     34  C   UNL     1      -7.931   3.894  -3.217  0.00  0.00    +0.001 A 
ATOM     35  C   UNL     1      -7.214   3.943  -4.373  0.00  0.00    +0.008 A 
ENDBRANCH  23  26
ENDBRANCH  21  23
ENDBRANCH  20  21
ENDBRANCH   1  20
TORSDOF 6
