REMARK  Name = ZINC40894117
REMARK  8 active torsions:
REMARK  status: ('A' for Active; 'I' for Inactive)
REMARK    1  A    between atoms: N_9  and  C_11
REMARK    2  A    between atoms: C_11  and  C_12
REMARK    3  A    between atoms: C_12  and  C_13
REMARK    4  A    between atoms: C_13  and  N_14
REMARK    5  A    between atoms: C_15  and  C_17
REMARK    6  A    between atoms: N_22  and  C_24
REMARK    7  A    between atoms: C_27  and  C_31
REMARK    8  A    between atoms: C_33  and  C_36
REMARK                            x       y       z     vdW  Elec       q    Type
REMARK                         _______ _______ _______ _____ _____    ______ ____
ROOT
ATOM      1  C   UNL     1      10.520  -2.229   2.835  0.00  0.00    +0.092 C 
ATOM      2  C   UNL     1      10.706  -0.744   2.514  0.00  0.00    +0.016 C 
ATOM      3  C   UNL     1      11.723  -0.134   3.481  0.00  0.00    +0.020 C 
ATOM      4  C   UNL     1      13.072  -0.839   3.308  0.00  0.00    +0.105 C 
ATOM      5  N   UNL     1      12.875  -2.286   3.473  0.00  0.00    -0.327 N 
ATOM      6  C   UNL     1      11.855  -2.958   2.655  0.00  0.00    +0.118 C 
ENDROOT
BRANCH   5   7
ATOM      7  C   UNL     1      13.641  -3.008   4.388  0.00  0.00    +0.065 A 
ATOM      8  C   UNL     1      13.197  -3.163   5.696  0.00  0.00    +0.027 A 
ATOM      9  C   UNL     1      13.952  -3.876   6.603  0.00  0.00    +0.013 A 
ATOM     10  C   UNL     1      15.163  -4.443   6.207  0.00  0.00    +0.025 A 
ATOM     11  C   UNL     1      15.608  -4.288   4.895  0.00  0.00    +0.052 A 
ATOM     12  C   UNL     1      14.847  -3.578   3.989  0.00  0.00    +0.145 A 
ATOM     13  F   UNL     1      15.275  -3.432   2.716  0.00  0.00    -0.204 F 
BRANCH  10  14
ATOM     14  C   UNL     1      15.976  -5.210   7.182  0.00  0.00    +0.202 A 
ATOM     15  N   UNL     1      17.159  -5.799   6.926  0.00  0.00    -0.191 NA
ATOM     16  C   UNL     1      17.605  -6.388   7.998  0.00  0.00    +0.231 A 
ATOM     17  O   UNL     1      16.721  -6.199   8.986  0.00  0.00    -0.337 OA
ATOM     18  N   UNL     1      15.666  -5.423   8.437  0.00  0.00    -0.056 NA
BRANCH  16  19
ATOM     19  C   UNL     1      18.898  -7.155   8.109  0.00  0.00    +0.078 C 
ATOM     20  C   UNL     1      19.145  -7.942   9.397  0.00  0.00    +0.014 C 
ATOM     21  C   UNL     1      19.930  -6.657   9.123  0.00  0.00    +0.014 C 
ENDBRANCH  16  19
ENDBRANCH  10  14
ENDBRANCH   5   7
BRANCH   1  23
ATOM     22  N   UNL     1       8.238  -2.333   1.887  0.00  0.00    -0.315 N 
ATOM     23  C   UNL     1       9.494  -2.821   1.903  0.00  0.00    +0.218 C 
ATOM     24  O   UNL     1       9.799  -3.736   1.168  0.00  0.00    -0.275 OA
ATOM     25  H   UNL     1       7.994  -1.601   2.474  0.00  0.00    +0.149 HD
BRANCH  22  26
ATOM     26  C   UNL     1       7.241  -2.908   0.981  0.00  0.00    +0.102 C 
BRANCH  26  27
ATOM     27  C   UNL     1       5.908  -2.179   1.160  0.00  0.00    +0.000 C 
BRANCH  27  28
ATOM     28  C   UNL     1       4.866  -2.780   0.214  0.00  0.00    -0.077 C 
BRANCH  28  37
ATOM     29  C   UNL     1      -0.017   1.376   0.010  0.00  0.00    +0.000 A 
ATOM     30  C   UNL     1       1.173   2.080   0.002  0.00  0.00    +0.000 A 
ATOM     31  C   UNL     1       2.375   1.401  -0.015  0.00  0.00    +0.002 A 
ATOM     32  C   UNL     1       2.395   0.014  -0.023  0.00  0.00    -0.061 A 
ATOM     33  C   UNL     1       1.208  -0.687  -0.013  0.00  0.00    -0.048 A 
ATOM     34  C   UNL     1       0.002  -0.004   0.002  0.00  0.00    +0.004 A 
ATOM     35  C   UNL     1       1.186  -2.194  -0.014  0.00  0.00    +0.017 C 
ATOM     36  C   UNL     1       2.554  -2.732  -0.434  0.00  0.00    -0.074 C 
ATOM     37  N   UNL     1       3.587  -2.079   0.386  0.00  0.00    +0.383 N 
ATOM     38  C   UNL     1       3.728  -0.686  -0.046  0.00  0.00    -0.043 C 
ATOM     39  H   UNL     1       3.313  -2.106   1.357  0.00  0.00    -0.081 HD
ENDBRANCH  28  37
ENDBRANCH  27  28
ENDBRANCH  26  27
ENDBRANCH  22  26
ENDBRANCH   1  23
TORSDOF 8
