REMARK  Name = ZINC63152702
REMARK  8 active torsions:
REMARK  status: ('A' for Active; 'I' for Inactive)
REMARK    1  A    between atoms: C_4  and  C_7
REMARK    2  A    between atoms: C_7  and  O_8
REMARK    3  A    between atoms: O_8  and  C_9
REMARK    4  A    between atoms: N_11  and  C_12
REMARK    5  A    between atoms: C_12  and  C_14
REMARK    6  A    between atoms: C_12  and  C_24
REMARK    7  A    between atoms: C_14  and  C_15
REMARK    8  A    between atoms: N_30  and  C_32
REMARK                            x       y       z     vdW  Elec       q    Type
REMARK                         _______ _______ _______ _____ _____    ______ ____
ROOT
ATOM      1  C   UNL     1       7.040  -2.566   2.880  0.00  0.00    +0.166 C 
ENDROOT
BRANCH   1   2
ATOM      2  C   UNL     1       7.048  -3.258   4.218  0.00  0.00    +0.239 C 
ATOM      3  O   UNL     1       6.088  -3.167   4.954  0.00  0.00    -0.273 OA
ATOM      4  N   UNL     1       8.122  -3.978   4.599  0.00  0.00    -0.267 N 
ATOM      5  C   UNL     1       8.130  -4.620   5.843  0.00  0.00    +0.147 A 
ATOM      6  C   UNL     1       7.089  -4.603   6.786  0.00  0.00    +0.065 A 
ATOM      7  C   UNL     1       7.479  -5.338   7.851  0.00  0.00    +0.116 A 
ATOM      8  N   UNL     1       8.727  -5.808   7.595  0.00  0.00    -0.238 N 
ATOM      9  N   UNL     1       9.109  -5.348   6.328  0.00  0.00    -0.151 NA
ATOM     10  H   UNL     1       8.890  -4.051   4.010  0.00  0.00    +0.156 HD
BRANCH   8  11
ATOM     11  C   UNL     1       9.496  -6.614   8.445  0.00  0.00    +0.065 A 
ATOM     12  C   UNL     1       8.989  -7.009   9.675  0.00  0.00    +0.028 A 
ATOM     13  C   UNL     1       9.748  -7.804  10.511  0.00  0.00    +0.002 A 
ATOM     14  C   UNL     1      11.013  -8.207  10.123  0.00  0.00    +0.000 A 
ATOM     15  C   UNL     1      11.521  -7.815   8.898  0.00  0.00    +0.002 A 
ATOM     16  C   UNL     1      10.764  -7.025   8.055  0.00  0.00    +0.028 A 
ENDBRANCH   8  11
ENDBRANCH   1   2
BRANCH   1  19
ATOM     17  C   UNL     1       5.308  -1.599   1.465  0.00  0.00    +0.401 C 
ATOM     18  O   UNL     1       5.944  -1.955   0.493  0.00  0.00    -0.226 OA
ATOM     19  N   UNL     1       5.770  -1.857   2.704  0.00  0.00    -0.269 N 
ATOM     20  H   UNL     1       5.263  -1.572   3.481  0.00  0.00    +0.153 HD
BRANCH  17  21
ATOM     21  O   UNL     1       4.141  -0.946   1.304  0.00  0.00    -0.446 OA
BRANCH  21  22
ATOM     22  C   UNL     1       3.711  -0.707  -0.038  0.00  0.00    +0.269 C 
BRANCH  22  26
ATOM     23  C   UNL     1      -0.017   1.378   0.010  0.00  0.00    +0.000 A 
ATOM     24  C   UNL     1       1.171   2.086   0.002  0.00  0.00    +0.000 A 
ATOM     25  C   UNL     1       2.377   1.411  -0.013  0.00  0.00    +0.007 A 
ATOM     26  C   UNL     1       2.396   0.029  -0.020  0.00  0.00    -0.010 A 
ATOM     27  C   UNL     1       1.208  -0.679  -0.012  0.00  0.00    +0.007 A 
ATOM     28  C   UNL     1       0.002  -0.004   0.002  0.00  0.00    +0.000 A 
ENDBRANCH  22  26
ENDBRANCH  21  22
ENDBRANCH  17  21
ENDBRANCH   1  19
BRANCH   1  29
ATOM     29  C   UNL     1       8.196  -1.567   2.815  0.00  0.00    +0.065 C 
BRANCH  29  30
ATOM     30  C   UNL     1       8.263  -0.965   1.435  0.00  0.00    -0.039 C 
ATOM     31  C   UNL     1       7.714   0.203   1.029  0.00  0.00    -0.001 A 
ATOM     32  C   UNL     1       6.920   1.222   1.725  0.00  0.00    +0.010 A 
ATOM     33  C   UNL     1       6.501   2.309   1.038  0.00  0.00    +0.001 A 
ATOM     34  C   UNL     1       6.805   2.485  -0.319  0.00  0.00    +0.002 A 
ATOM     35  C   UNL     1       7.530   1.593  -1.026  0.00  0.00    +0.026 A 
ATOM     36  C   UNL     1       8.022   0.413  -0.403  0.00  0.00    +0.043 A 
ATOM     37  N   UNL     1       8.734  -0.586  -0.866  0.00  0.00    -0.380 N 
ATOM     38  C   UNL     1       8.963  -1.541   0.224  0.00  0.00    +0.144 C 
ATOM     39  H   UNL     1       9.058  -0.677  -1.775  0.00  0.00    +0.160 HD
ENDBRANCH  29  30
ENDBRANCH   1  29
TORSDOF 8
