REMARK  Name = ZINC35667458
REMARK  10 active torsions:
REMARK  status: ('A' for Active; 'I' for Inactive)
REMARK    1  A    between atoms: C_1  and  C_2
REMARK    2  A    between atoms: C_6  and  N_8
REMARK    3  A    between atoms: C_10  and  C_24
REMARK    4  A    between atoms: N_13  and  C_14
REMARK    5  A    between atoms: C_14  and  C_16
REMARK    6  A    between atoms: C_16  and  N_17
REMARK    7  A    between atoms: N_17  and  C_18
REMARK    8  A    between atoms: C_18  and  C_19
REMARK    9  A    between atoms: C_27  and  O_30
REMARK   10  A    between atoms: O_30  and  C_31
REMARK                            x       y       z     vdW  Elec       q    Type
REMARK                         _______ _______ _______ _____ _____    ______ ____
ROOT
ATOM      1  N   UNL     1       0.052  -2.798   2.394  0.00  0.00    -0.287 N 
ATOM      2  C   UNL     1       0.045  -2.244   3.659  0.00  0.00    +0.120 A 
ATOM      3  C   UNL     1       0.065  -3.248   4.553  0.00  0.00    +0.066 A 
ATOM      4  N   UNL     1       0.085  -4.446   3.850  0.00  0.00    -0.326 N 
ATOM      5  C   UNL     1       0.072  -4.152   2.524  0.00  0.00    +0.205 A 
ATOM      6  N   UNL     1       0.079  -5.035   1.526  0.00  0.00    -0.148 NA
ATOM      7  H   UNL     1       0.101  -5.335   4.237  0.00  0.00    +0.169 HD
ENDROOT
BRANCH   1  13
ATOM      8  C   UNL     1      -0.018   1.503   0.010  0.00  0.00    +0.044 C 
ATOM      9  C   UNL     1       0.002  -0.004   0.002  0.00  0.00    -0.048 A 
ATOM     10  C   UNL     1       0.006  -0.688  -1.200  0.00  0.00    +0.003 A 
ATOM     11  C   UNL     1       0.025  -2.071  -1.212  0.00  0.00    +0.002 A 
ATOM     12  C   UNL     1       0.041  -2.773  -0.022  0.00  0.00    +0.026 A 
ATOM     13  C   UNL     1       0.037  -2.089   1.186  0.00  0.00    +0.049 A 
ATOM     14  C   UNL     1       0.023  -0.700   1.194  0.00  0.00    +0.029 A 
ENDBRANCH   1  13
BRANCH   3  15
ATOM     15  C   UNL     1       0.065  -3.102   6.026  0.00  0.00    +0.000 A 
ATOM     16  C   UNL     1       0.038  -1.832   6.603  0.00  0.00    +0.013 A 
ATOM     17  C   UNL     1       0.039  -1.700   7.975  0.00  0.00    +0.046 A 
ATOM     18  C   UNL     1       0.066  -2.829   8.783  0.00  0.00    +0.120 A 
ATOM     19  C   UNL     1       0.093  -4.094   8.212  0.00  0.00    +0.046 A 
ATOM     20  C   UNL     1       0.087  -4.234   6.841  0.00  0.00    +0.013 A 
BRANCH  18  21
ATOM     21  O   UNL     1       0.067  -2.695  10.135  0.00  0.00    -0.495 OA
ATOM     22  C   UNL     1       0.096  -3.898  10.906  0.00  0.00    +0.277 C 
ENDBRANCH  18  21
ENDBRANCH   3  15
BRANCH   6  23
ATOM     23  C   UNL     1       0.099  -6.336   1.790  0.00  0.00    +0.222 C 
ATOM     24  O   UNL     1       0.110  -6.722   2.944  0.00  0.00    -0.276 OA
BRANCH  23  25
ATOM     25  C   UNL     1       0.107  -7.334   0.661  0.00  0.00    +0.018 C 
BRANCH  25  26
ATOM     26  N   UNL     1       0.129  -8.696   1.212  0.00  0.00    +0.389 N 
ATOM     27  H   UNL     1       0.957  -8.818   1.775  0.00  0.00    -0.085 HD
ATOM     28  H   UNL     1      -0.691  -8.841   1.783  0.00  0.00    -0.085 HD
BRANCH  26  29
ATOM     29  C   UNL     1       0.137  -9.669   0.112  0.00  0.00    -0.006 C 
BRANCH  29  30
ATOM     30  C   UNL     1       0.159 -11.066   0.677  0.00  0.00    +0.088 A 
ATOM     31  C   UNL     1      -0.921 -11.812   0.972  0.00  0.00    +0.042 A 
ATOM     32  C   UNL     1      -0.442 -13.044   1.473  0.00  0.00    +0.041 A 
ATOM     33  C   UNL     1       0.901 -12.977   1.454  0.00  0.00    +0.195 A 
ATOM     34  O   UNL     1       1.260 -11.779   0.966  0.00  0.00    -0.470 OA
ENDBRANCH  29  30
ENDBRANCH  26  29
ENDBRANCH  25  26
ENDBRANCH  23  25
ENDBRANCH   6  23
TORSDOF 8
