REMARK  Name = ZINC01022108
REMARK  9 active torsions:
REMARK  status: ('A' for Active; 'I' for Inactive)
REMARK    1  A    between atoms: C_1  and  C_2
REMARK    2  A    between atoms: C_2  and  O_3
REMARK    3  A    between atoms: O_3  and  C_4
REMARK    4  A    between atoms: C_4  and  C_6
REMARK    5  A    between atoms: C_7  and  C_23
REMARK    6  A    between atoms: C_9  and  N_22
REMARK    7  A    between atoms: C_10  and  C_20
REMARK    8  A    between atoms: C_11  and  C_13
REMARK    9  A    between atoms: C_16  and  C_18
REMARK                            x       y       z     vdW  Elec       q    Type
REMARK                         _______ _______ _______ _____ _____    ______ ____
ROOT
ATOM      1  C   UNL     1      -0.635   1.767   3.605  0.00  0.00    +0.087 C 
ATOM      2  C   UNL     1      -0.294   1.155   4.747  0.00  0.00    +0.115 C 
ATOM      3  O   UNL     1      -0.957   1.359   5.894  0.00  0.00    -0.445 OA
ATOM      4  C   UNL     1      -1.738   2.446   6.022  0.00  0.00    +0.198 C 
ATOM      5  C   UNL     1      -2.176   3.141   4.945  0.00  0.00    +0.099 C 
ATOM      6  C   UNL     1      -1.799   2.718   3.551  0.00  0.00    +0.111 C 
ATOM      7  C   UNL     1       0.879   0.209   4.742  0.00  0.00    +0.087 C 
ENDROOT
BRANCH   6   8
ATOM      8  C   UNL     1      -2.974   2.035   2.900  0.00  0.00    +0.004 A 
ATOM      9  C   UNL     1      -3.650   2.385   1.778  0.00  0.00    +0.027 A 
ATOM     10  C   UNL     1      -4.706   1.597   1.359  0.00  0.00    +0.028 A 
ATOM     11  C   UNL     1      -5.041   0.504   2.088  0.00  0.00    +0.001 A 
ATOM     12  S   UNL     1      -3.841   0.560   3.409  0.00  0.00    -0.096 S 
ATOM     13  C   UNL     1      -6.141  -0.497   1.848  0.00  0.00    +0.053 C 
ATOM     14 BR   UNL     1      -5.673   2.041  -0.204  0.00  0.00    -0.049 Br
ENDBRANCH   6   8
BRANCH   4  15
ATOM     15  N   UNL     1      -2.101   2.863   7.279  0.00  0.00    -0.328 N 
ATOM     16  H   UNL     1      -2.663   3.646   7.386  0.00  0.00    +0.145 HD
ATOM     17  H   UNL     1      -1.794   2.375   8.059  0.00  0.00    +0.145 HD
ENDBRANCH   4  15
BRANCH   1  18
ATOM     18  C   UNL     1       0.111   1.511   2.428  0.00  0.00    +0.339 C 
ATOM     19  O   UNL     1       0.969   2.295   2.069  0.00  0.00    -0.245 OA
BRANCH  18  20
ATOM     20  O   UNL     1      -0.131   0.397   1.706  0.00  0.00    -0.462 OA
BRANCH  20  22
ATOM     21  C   UNL     1       0.243  -1.103  -0.151  0.00  0.00    +0.048 C 
ATOM     22  C   UNL     1       0.658   0.202   0.531  0.00  0.00    +0.229 C 
ENDBRANCH  20  22
ENDBRANCH  18  20
ENDBRANCH   1  18
BRANCH   5  23
ATOM     23  C   UNL     1      -3.007   4.292   5.136  0.00  0.00    +0.101 C 
ATOM     24  N   UNL     1      -3.667   5.205   5.287  0.00  0.00    -0.191 NA
ENDBRANCH   5  23
TORSDOF 6
