REMARK  Name = ZINC21609188
REMARK  12 active torsions:
REMARK  status: ('A' for Active; 'I' for Inactive)
REMARK    1  A    between atoms: C_1  and  C_2
REMARK    2  A    between atoms: C_9  and  C_16
REMARK    3  A    between atoms: C_11  and  O_12
REMARK    4  A    between atoms: C_16  and  S_17
REMARK    5  A    between atoms: S_17  and  C_18
REMARK    6  A    between atoms: C_21  and  C_26
REMARK    7  A    between atoms: N_22  and  C_23
REMARK    8  A    between atoms: C_23  and  C_24
REMARK    9  A    between atoms: C_29  and  C_32
REMARK   10  A    between atoms: C_32  and  C_33
REMARK   11  A    between atoms: C_32  and  C_34
REMARK   12  A    between atoms: C_32  and  C_35
REMARK                            x       y       z     vdW  Elec       q    Type
REMARK                         _______ _______ _______ _____ _____    ______ ____
ROOT
ATOM      1  S   UNL     1       1.345  -7.109  -1.046  0.00  0.00    -0.081 S 
ENDROOT
BRANCH   1   2
ATOM      2  C   UNL     1       2.775  -8.107  -0.793  0.00  0.00    +0.192 A 
ATOM      3  N   UNL     1       3.417  -8.275   0.342  0.00  0.00    -0.122 NA
ATOM      4  N   UNL     1       4.412  -9.070   0.172  0.00  0.00    -0.128 NA
ATOM      5  C   UNL     1       4.473  -9.450  -1.083  0.00  0.00    +0.165 A 
ATOM      6  N   UNL     1       3.426  -8.845  -1.740  0.00  0.00    -0.298 N 
BRANCH   5   7
ATOM      7  C   UNL     1       5.476 -10.357  -1.679  0.00  0.00    +0.019 A 
ATOM      8  C   UNL     1       5.677 -10.370  -3.061  0.00  0.00    +0.012 A 
ATOM      9  C   UNL     1       6.619 -11.215  -3.610  0.00  0.00    +0.005 A 
ATOM     10  C   UNL     1       7.356 -12.056  -2.796  0.00  0.00    -0.042 A 
ATOM     11  C   UNL     1       7.159 -12.053  -1.427  0.00  0.00    +0.005 A 
ATOM     12  C   UNL     1       6.224 -11.209  -0.864  0.00  0.00    +0.012 A 
BRANCH  10  13
ATOM     13  C   UNL     1       8.379 -12.981  -3.404  0.00  0.00    -0.013 C 
ATOM     14  C   UNL     1       8.014 -14.431  -3.077  0.00  0.00    +0.015 C 
ATOM     15  C   UNL     1       8.402 -12.791  -4.922  0.00  0.00    +0.015 C 
ATOM     16  C   UNL     1       9.761 -12.662  -2.829  0.00  0.00    +0.015 C 
ENDBRANCH  10  13
ENDBRANCH   5   7
BRANCH   6  17
ATOM     17  C   UNL     1       3.081  -8.967  -3.158  0.00  0.00    +0.152 C 
BRANCH  17  18
ATOM     18  C   UNL     1       3.675  -7.812  -3.921  0.00  0.00    -0.013 C 
ATOM     19  C   UNL     1       4.426  -8.037  -4.971  0.00  0.00    +0.005 C 
ENDBRANCH  17  18
ENDBRANCH   6  17
ENDBRANCH   1   2
BRANCH   1  20
ATOM     20  C   UNL     1       1.100  -6.478   0.633  0.00  0.00    +0.113 C 
BRANCH  20  29
ATOM     21  C   UNL     1      -0.234   2.304   0.201  0.00  0.00    +0.109 C 
ATOM     22  C   UNL     1      -0.431   0.821   0.377  0.00  0.00    +0.214 C 
ATOM     23  O   UNL     1      -1.294   0.407   1.121  0.00  0.00    -0.276 OA
ATOM     24  N   UNL     1       0.352  -0.047  -0.294  0.00  0.00    -0.286 N 
ATOM     25  C   UNL     1       0.237  -1.417  -0.058  0.00  0.00    +0.037 A 
ATOM     26  C   UNL     1       1.374  -2.225  -0.096  0.00  0.00    +0.024 A 
ATOM     27  C   UNL     1       1.278  -3.565   0.139  0.00  0.00    +0.013 A 
ATOM     28  C   UNL     1       0.029  -4.137   0.408  0.00  0.00    +0.022 A 
ATOM     29  C   UNL     1      -0.104  -5.573   0.659  0.00  0.00    -0.020 A 
ATOM     30  C   UNL     1      -1.343  -6.068   0.915  0.00  0.00    +0.092 A 
ATOM     31  C   UNL     1      -2.455  -5.201   0.933  0.00  0.00    +0.285 A 
ATOM     32  O   UNL     1      -2.326  -3.885   0.703  0.00  0.00    -0.425 OA
ATOM     33  C   UNL     1      -1.123  -3.329   0.442  0.00  0.00    +0.141 A 
ATOM     34  C   UNL     1      -1.008  -1.967   0.207  0.00  0.00    +0.070 A 
ATOM     35  H   UNL     1       1.083   0.325  -1.028  0.00  0.00    +0.155 HD
BRANCH  31  36
ATOM     36  O   UNL     1      -3.560  -5.657   1.164  0.00  0.00    -0.480 OA
ATOM     37  H   UNL     1      -4.437  -4.993   1.182  0.00  0.00    +0.295 HD
ENDBRANCH  31  36
ENDBRANCH  20  29
ENDBRANCH   1  20
TORSDOF 8
