REMARK  Name = ZINC52098432
REMARK  7 active torsions:
REMARK  status: ('A' for Active; 'I' for Inactive)
REMARK    1  A    between atoms: C_1  and  C_2
REMARK    2  A    between atoms: C_2  and  C_3
REMARK    3  A    between atoms: C_2  and  C_13
REMARK    4  A    between atoms: C_2  and  O_19
REMARK    5  A    between atoms: C_3  and  S_4
REMARK    6  A    between atoms: S_4  and  C_5
REMARK    7  A    between atoms: C_9  and  N_11
REMARK                            x       y       z     vdW  Elec       q    Type
REMARK                         _______ _______ _______ _____ _____    ______ ____
ROOT
ATOM      1  S   UNL     1      -0.018   0.194   2.730  0.00  0.00    -0.083 S 
ENDROOT
BRANCH   1   2
ATOM      2  C   UNL     1       0.933  -0.476   4.053  0.00  0.00    +0.192 A 
ATOM      3  N   UNL     1       1.941  -1.290   3.775  0.00  0.00    -0.207 NA
ATOM      4  C   UNL     1       2.682  -1.815   4.748  0.00  0.00    +0.122 A 
ATOM      5  C   UNL     1       2.386  -1.497   6.071  0.00  0.00    +0.086 A 
ATOM      6  C   UNL     1       1.320  -0.639   6.324  0.00  0.00    +0.122 A 
ATOM      7  N   UNL     1       0.626  -0.148   5.300  0.00  0.00    -0.207 NA
ATOM      8  N   UNL     1       3.734  -2.666   4.449  0.00  0.00    -0.343 N 
ATOM      9  H   UNL     1       3.935  -2.883   3.525  0.00  0.00    +0.144 HD
ATOM     10  H   UNL     1       4.270  -3.045   5.164  0.00  0.00    +0.144 HD
BRANCH   6  11
ATOM     11  N   UNL     1       0.989  -0.295   7.625  0.00  0.00    -0.343 N 
ATOM     12  H   UNL     1       1.501  -0.654   8.367  0.00  0.00    +0.144 HD
ATOM     13  H   UNL     1       0.244   0.304   7.794  0.00  0.00    +0.144 HD
ENDBRANCH   6  11
ENDBRANCH   1   2
BRANCH   1  14
ATOM     14  C   UNL     1       0.742  -0.511   1.242  0.00  0.00    +0.116 C 
BRANCH  14  16
ATOM     15  C   UNL     1      -0.019   1.526   0.010  0.00  0.00    +0.047 C 
ATOM     16  C   UNL     1       0.002  -0.004   0.002  0.00  0.00    +0.097 C 
BRANCH  16  17
ATOM     17  C   UNL     1       0.707  -0.490  -1.238  0.00  0.00    -0.016 A 
ATOM     18  C   UNL     1       2.072  -0.708  -1.216  0.00  0.00    +0.006 A 
ATOM     19  C   UNL     1       2.720  -1.153  -2.353  0.00  0.00    +0.000 A 
ATOM     20  C   UNL     1       2.001  -1.382  -3.512  0.00  0.00    +0.000 A 
ATOM     21  C   UNL     1       0.636  -1.166  -3.534  0.00  0.00    +0.000 A 
ATOM     22  C   UNL     1      -0.011  -0.724  -2.395  0.00  0.00    +0.006 A 
ENDBRANCH  16  17
BRANCH  16  23
ATOM     23  O   UNL     1      -1.339  -0.499   0.012  0.00  0.00    -0.383 OA
ATOM     24  H   UNL     1      -1.402  -1.464   0.008  0.00  0.00    +0.211 HD
ENDBRANCH  16  23
ENDBRANCH  14  16
ENDBRANCH   1  14
TORSDOF 6
