REMARK  Name = ZINC62109639
REMARK  5 active torsions:
REMARK  status: ('A' for Active; 'I' for Inactive)
REMARK    1  A    between atoms: C_1  and  C_2
REMARK    2  A    between atoms: C_6  and  C_25
REMARK    3  A    between atoms: N_9  and  S_10
REMARK    4  A    between atoms: S_10  and  C_13
REMARK    5  A    between atoms: C_25  and  C_26
REMARK                            x       y       z     vdW  Elec       q    Type
REMARK                         _______ _______ _______ _____ _____    ______ ____
ROOT
ATOM      1  S   UNL     1      -0.076  -1.276   2.409  0.00  0.00    +0.061 S 
ATOM      2  O   UNL     1       0.716  -1.119   3.578  0.00  0.00    -0.153 OA
ATOM      3  O   UNL     1      -1.431  -0.852   2.344  0.00  0.00    -0.153 OA
ENDROOT
BRANCH   1   4
ATOM      4  C   UNL     1      -0.069  -2.996   2.022  0.00  0.00    +0.108 A 
ATOM      5  C   UNL     1      -1.097  -3.538   1.272  0.00  0.00    +0.030 A 
ATOM      6  C   UNL     1      -1.100  -4.884   0.964  0.00  0.00    +0.030 A 
ATOM      7  C   UNL     1      -0.068  -5.696   1.409  0.00  0.00    +0.067 A 
ATOM      8  C   UNL     1       0.970  -5.149   2.166  0.00  0.00    +0.069 A 
ATOM      9  C   UNL     1       0.967  -3.795   2.465  0.00  0.00    +0.056 A 
ATOM     10  N   UNL     1       1.845  -6.191   2.461  0.00  0.00    -0.306 N 
ATOM     11  H   UNL     1       2.663  -6.117   2.977  0.00  0.00    +0.170 HD
ATOM     12  C   UNL     1       1.362  -7.321   1.910  0.00  0.00    +0.325 A 
ATOM     13  O   UNL     1       1.887  -8.416   1.981  0.00  0.00    -0.247 OA
ATOM     14  N   UNL     1       0.209  -7.054   1.268  0.00  0.00    -0.306 N 
ATOM     15  H   UNL     1      -0.336  -7.698   0.789  0.00  0.00    +0.170 HD
ENDBRANCH   1   4
BRANCH   1  22
ATOM     16  C   UNL     1      -0.019   1.526   0.010  0.00  0.00    +0.028 C 
ATOM     17  C   UNL     1       0.002  -0.004   0.002  0.00  0.00    +0.102 C 
ATOM     18  C   UNL     1       0.730  -0.504  -1.251  0.00  0.00    +0.180 C 
ATOM     19  O   UNL     1       2.114  -0.156  -1.162  0.00  0.00    -0.373 OA
ATOM     20  C   UNL     1       2.800  -0.762  -0.064  0.00  0.00    +0.138 C 
ATOM     21  C   UNL     1       2.178  -0.276   1.250  0.00  0.00    +0.141 C 
ATOM     22  N   UNL     1       0.724  -0.496   1.186  0.00  0.00    -0.169 NA
BRANCH  20  23
ATOM     23  C   UNL     1       4.278  -0.371  -0.106  0.00  0.00    +0.068 C 
BRANCH  23  24
ATOM     24  C   UNL     1       4.916  -0.950  -1.342  0.00  0.00    -0.045 A 
ATOM     25  C   UNL     1       5.484  -2.210  -1.302  0.00  0.00    +0.004 A 
ATOM     26  C   UNL     1       6.069  -2.741  -2.436  0.00  0.00    +0.000 A 
ATOM     27  C   UNL     1       6.086  -2.013  -3.611  0.00  0.00    +0.000 A 
ATOM     28  C   UNL     1       5.517  -0.753  -3.652  0.00  0.00    +0.000 A 
ATOM     29  C   UNL     1       4.929  -0.224  -2.519  0.00  0.00    +0.004 A 
ENDBRANCH  23  24
ENDBRANCH  20  23
ENDBRANCH   1  22
TORSDOF 4
