REMARK  Name = ZINC43236257
REMARK  5 active torsions:
REMARK  status: ('A' for Active; 'I' for Inactive)
REMARK    1  A    between atoms: C_1  and  C_2
REMARK    2  A    between atoms: C_2  and  C_4
REMARK    3  A    between atoms: C_2  and  N_14
REMARK    4  A    between atoms: N_17  and  N_18
REMARK    5  A    between atoms: N_21  and  C_22
REMARK                            x       y       z     vdW  Elec       q    Type
REMARK                         _______ _______ _______ _____ _____    ______ ____
ROOT
ATOM      1  N   UNL     1      -1.537  -0.834   0.218  0.00  0.00    -0.292 N 
ATOM      2  C   UNL     1      -2.248  -0.972  -0.918  0.00  0.00    +0.316 C 
ATOM      3  O   UNL     1      -1.782  -0.597  -1.976  0.00  0.00    -0.251 OA
ATOM      4  N   UNL     1      -3.476  -1.526  -0.881  0.00  0.00    -0.217 N 
ATOM      5  H   UNL     1      -1.909  -1.134   1.063  0.00  0.00    +0.151 HD
ATOM      6  H   UNL     1      -3.988  -1.625  -1.699  0.00  0.00    +0.174 HD
ENDROOT
BRANCH   4   7
ATOM      7  N   UNL     1      -4.014  -1.958   0.338  0.00  0.00    -0.217 N 
ATOM      8  C   UNL     1      -5.242  -2.511   0.375  0.00  0.00    +0.320 C 
ATOM      9  O   UNL     1      -5.708  -2.886   1.433  0.00  0.00    -0.251 OA
ATOM     10  N   UNL     1      -5.953  -2.649  -0.761  0.00  0.00    -0.268 N 
ATOM     11  H   UNL     1      -3.502  -1.859   1.156  0.00  0.00    +0.174 HD
ATOM     12  H   UNL     1      -5.553  -2.421  -1.615  0.00  0.00    +0.156 HD
BRANCH  10  13
ATOM     13  C   UNL     1      -7.269  -3.122  -0.710  0.00  0.00    +0.035 A 
ATOM     14  C   UNL     1      -7.769  -3.902  -1.744  0.00  0.00    +0.023 A 
ATOM     15  C   UNL     1      -9.069  -4.367  -1.690  0.00  0.00    +0.002 A 
ATOM     16  C   UNL     1      -9.872  -4.056  -0.609  0.00  0.00    +0.000 A 
ATOM     17  C   UNL     1      -9.377  -3.278   0.422  0.00  0.00    +0.002 A 
ATOM     18  C   UNL     1      -8.077  -2.816   0.378  0.00  0.00    +0.023 A 
ENDBRANCH  10  13
ENDBRANCH   4   7
BRANCH   1  20
ATOM     19  C   UNL     1      -0.321   1.284   0.338  0.00  0.00    +0.033 C 
ATOM     20  C   UNL     1      -0.201  -0.233   0.178  0.00  0.00    +0.102 C 
BRANCH  20  21
ATOM     21  C   UNL     1       0.635  -0.792   1.300  0.00  0.00    -0.020 A 
ATOM     22  C   UNL     1       0.040  -1.248   2.436  0.00  0.00    +0.006 A 
ATOM     23  C   UNL     1       0.797  -1.768   3.484  0.00  0.00    +0.001 A 
ATOM     24  C   UNL     1       2.154  -1.835   3.402  0.00  0.00    +0.008 A 
ATOM     25  C   UNL     1       2.804  -1.373   2.245  0.00  0.00    -0.018 A 
ATOM     26  C   UNL     1       2.034  -0.850   1.177  0.00  0.00    -0.013 A 
ATOM     27  C   UNL     1       2.684  -0.394   0.017  0.00  0.00    +0.009 A 
ATOM     28  C   UNL     1       4.040  -0.466  -0.067  0.00  0.00    +0.001 A 
ATOM     29  C   UNL     1       4.798  -0.986   0.981  0.00  0.00    +0.001 A 
ATOM     30  C   UNL     1       4.204  -1.425   2.125  0.00  0.00    +0.008 A 
ENDBRANCH  20  21
ENDBRANCH   1  20
TORSDOF 4
