REMARK  Name = ZINC39710551
REMARK  15 active torsions:
REMARK  status: ('A' for Active; 'I' for Inactive)
REMARK    1  A    between atoms: C_1  and  C_2
REMARK    2  A    between atoms: C_2  and  C_3
REMARK    3  A    between atoms: C_10  and  C_15
REMARK    4  A    between atoms: C_15  and  C_17
REMARK    5  A    between atoms: C_15  and  N_27
REMARK    6  A    between atoms: N_22  and  C_23
REMARK    7  A    between atoms: C_23  and  C_24
REMARK    8  A    between atoms: C_23  and  C_25
REMARK    9  A    between atoms: C_23  and  C_26
REMARK   10  A    between atoms: N_27  and  C_28
REMARK   11  A    between atoms: N_27  and  C_37
REMARK   12  A    between atoms: C_28  and  C_29
REMARK   13  A    between atoms: C_32  and  O_35
REMARK   14  A    between atoms: O_35  and  C_36
REMARK   15  A    between atoms: C_37  and  C_38
REMARK                            x       y       z     vdW  Elec       q    Type
REMARK                         _______ _______ _______ _____ _____    ______ ____
ROOT
ATOM      1  C   UNL     1       5.302  -3.308  -3.460  0.00  0.00    -0.009 C 
ENDROOT
BRANCH   1   9
ATOM      2  C   UNL     1       0.376  -0.819  -1.567  0.00  0.00    -0.047 A 
ATOM      3  C   UNL     1      -0.236  -0.971  -2.811  0.00  0.00    +0.005 A 
ATOM      4  C   UNL     1       0.454  -1.315  -3.930  0.00  0.00    +0.024 A 
ATOM      5  C   UNL     1       1.842  -1.535  -3.873  0.00  0.00    +0.040 A 
ATOM      6  N   UNL     1       2.509  -1.872  -4.977  0.00  0.00    -0.285 N 
ATOM      7  C   UNL     1       3.813  -2.094  -4.995  0.00  0.00    +0.223 C 
ATOM      8  O   UNL     1       4.367  -2.398  -6.034  0.00  0.00    -0.275 OA
ATOM      9  C   UNL     1       4.612  -1.967  -3.717  0.00  0.00    +0.088 C 
ATOM     10  C   UNL     1       3.858  -1.584  -2.459  0.00  0.00    -0.006 C 
ATOM     11  C   UNL     1       2.515  -1.381  -2.572  0.00  0.00    -0.007 A 
ATOM     12  C   UNL     1       1.712  -1.004  -1.408  0.00  0.00    +0.013 A 
ATOM     13  H   UNL     1       2.015  -1.959  -5.807  0.00  0.00    +0.155 HD
BRANCH   2  15
ATOM     14  C   UNL     1      -0.518   1.091  -0.261  0.00  0.00    +0.009 C 
ATOM     15  C   UNL     1      -0.462  -0.434  -0.375  0.00  0.00    +0.032 C 
ENDBRANCH   2  15
ENDBRANCH   1   9
BRANCH   1  16
ATOM     16  C   UNL     1       4.249  -4.414  -3.369  0.00  0.00    +0.205 C 
ATOM     17  N   UNL     1       3.438  -4.453  -4.593  0.00  0.00    -0.152 NA
ATOM     18  N   UNL     1       2.262  -4.229  -4.300  0.00  0.00    -0.070 NA
ATOM     19  N   UNL     1       2.075  -4.015  -2.935  0.00  0.00    -0.179 N 
ATOM     20  N   UNL     1       3.283  -4.118  -2.290  0.00  0.00    -0.183 NA
ATOM     21  H   UNL     1       1.225  -3.823  -2.507  0.00  0.00    +0.191 HD
BRANCH  20  22
ATOM     22  C   UNL     1       3.259  -5.197  -1.294  0.00  0.00    +0.035 C 
ATOM     23  C   UNL     1       4.651  -5.352  -0.677  0.00  0.00    +0.029 C 
ATOM     24  C   UNL     1       2.250  -4.856  -0.196  0.00  0.00    +0.029 C 
ATOM     25  C   UNL     1       2.853  -6.508  -1.970  0.00  0.00    +0.029 C 
ENDBRANCH  20  22
ENDBRANCH   1  16
BRANCH   1  26
ATOM     26  N   UNL     1       6.227  -3.602  -4.563  0.00  0.00    +0.389 N 
ATOM     27  H   UNL     1       5.702  -3.751  -5.412  0.00  0.00    -0.081 HD
BRANCH  26  28
ATOM     28  C   UNL     1       6.998  -4.812  -4.246  0.00  0.00    -0.042 C 
BRANCH  28  29
ATOM     29  C   UNL     1       7.849  -5.190  -5.431  0.00  0.00    -0.064 A 
ATOM     30  C   UNL     1       7.306  -5.936  -6.461  0.00  0.00    +0.005 A 
ATOM     31  C   UNL     1       8.085  -6.284  -7.548  0.00  0.00    +0.046 A 
ATOM     32  C   UNL     1       9.412  -5.884  -7.606  0.00  0.00    +0.120 A 
ATOM     33  C   UNL     1       9.954  -5.135  -6.571  0.00  0.00    +0.046 A 
ATOM     34  C   UNL     1       9.170  -4.785  -5.489  0.00  0.00    +0.005 A 
BRANCH  32  35
ATOM     35  O   UNL     1      10.180  -6.225  -8.674  0.00  0.00    -0.495 OA
ATOM     36  C   UNL     1      11.537  -5.779  -8.666  0.00  0.00    +0.277 C 
ENDBRANCH  32  35
ENDBRANCH  28  29
ENDBRANCH  26  28
BRANCH  26  37
ATOM     37  C   UNL     1       7.145  -2.470  -4.747  0.00  0.00    -0.046 C 
BRANCH  37  38
ATOM     38  C   UNL     1       7.806  -2.127  -3.411  0.00  0.00    +0.102 C 
ATOM     39  C   UNL     1       8.637  -0.834  -3.554  0.00  0.00    +0.032 C 
ATOM     40  C   UNL     1       9.893  -1.153  -2.697  0.00  0.00    +0.030 C 
ATOM     41  C   UNL     1      10.044  -2.673  -2.952  0.00  0.00    +0.160 C 
ATOM     42  O   UNL     1       8.700  -3.178  -3.026  0.00  0.00    -0.378 OA
ENDBRANCH  37  38
ENDBRANCH  26  37
ENDBRANCH   1  26
TORSDOF 10
