REMARK  Name = ZINC14584724
REMARK  8 active torsions:
REMARK  status: ('A' for Active; 'I' for Inactive)
REMARK    1  A    between atoms: C_1  and  C_2
REMARK    2  A    between atoms: C_2  and  N_3
REMARK    3  A    between atoms: N_3  and  C_4
REMARK    4  A    between atoms: C_5  and  N_20
REMARK    5  A    between atoms: N_6  and  C_13
REMARK    6  A    between atoms: C_13  and  C_14
REMARK    7  A    between atoms: C_21  and  C_23
REMARK    8  A    between atoms: C_23  and  C_24
REMARK                            x       y       z     vdW  Elec       q    Type
REMARK                         _______ _______ _______ _____ _____    ______ ____
ROOT
ATOM      1  C   UNL     1      -4.520   5.129  -2.922  0.00  0.00    +0.140 A 
ATOM      2  C   UNL     1      -3.677   5.903  -3.693  0.00  0.00    +0.128 A 
ATOM      3  N   UNL     1      -4.078   6.284  -4.953  0.00  0.00    -0.276 N 
ATOM      4  C   UNL     1      -5.283   5.914  -5.423  0.00  0.00    +0.331 A 
ATOM      5  O   UNL     1      -5.622   6.265  -6.538  0.00  0.00    -0.246 OA
ATOM      6  N   UNL     1      -6.120   5.165  -4.684  0.00  0.00    -0.273 N 
ATOM      7  H   UNL     1      -7.011   4.905  -5.058  0.00  0.00    +0.173 HD
ATOM      8  C   UNL     1      -5.774   4.762  -3.447  0.00  0.00    +0.277 A 
ATOM      9  O   UNL     1      -6.540   4.082  -2.785  0.00  0.00    -0.266 OA
ENDROOT
BRANCH   1  10
ATOM     10  N   UNL     1      -4.135   4.719  -1.629  0.00  0.00    -0.264 N 
ATOM     11  C   UNL     1      -3.068   3.909  -1.467  0.00  0.00    +0.224 C 
ATOM     12  O   UNL     1      -2.491   3.465  -2.438  0.00  0.00    -0.275 OA
BRANCH  10  14
ATOM     13  C   UNL     1      -4.328   6.508   0.028  0.00  0.00    +0.025 C 
ATOM     14  C   UNL     1      -4.894   5.173  -0.460  0.00  0.00    +0.110 C 
ENDBRANCH  10  14
BRANCH  11  15
ATOM     15  C   UNL     1      -2.594   3.554  -0.081  0.00  0.00    +0.132 C 
BRANCH  15  16
ATOM     16  C   UNL     1      -1.397   2.643  -0.177  0.00  0.00    -0.031 A 
ATOM     17  C   UNL     1      -1.559   1.293  -0.122  0.00  0.00    +0.005 A 
ATOM     18  C   UNL     1      -0.464   0.435  -0.204  0.00  0.00    +0.001 A 
ATOM     19  C   UNL     1       0.798   0.923  -0.354  0.00  0.00    +0.008 A 
ATOM     20  C   UNL     1       1.004   2.311  -0.422  0.00  0.00    -0.018 A 
ATOM     21  C   UNL     1      -0.110   3.184  -0.333  0.00  0.00    -0.014 A 
ATOM     22  C   UNL     1       0.096   4.572  -0.402  0.00  0.00    +0.009 A 
ATOM     23  C   UNL     1       1.358   5.059  -0.552  0.00  0.00    +0.001 A 
ATOM     24  C   UNL     1       2.453   4.202  -0.640  0.00  0.00    +0.001 A 
ATOM     25  C   UNL     1       2.292   2.852  -0.577  0.00  0.00    +0.008 A 
ENDBRANCH  15  16
ENDBRANCH  11  15
ENDBRANCH   1  10
BRANCH   2  26
ATOM     26  N   UNL     1      -2.448   6.284  -3.211  0.00  0.00    -0.343 N 
ATOM     27  H   UNL     1      -2.212   6.103  -2.287  0.00  0.00    +0.144 HD
ATOM     28  H   UNL     1      -1.816   6.734  -3.793  0.00  0.00    +0.144 HD
ENDBRANCH   2  26
BRANCH   3  29
ATOM     29  C   UNL     1      -3.191   7.101  -5.784  0.00  0.00    +0.163 C 
BRANCH  29  30
ATOM     30  C   UNL     1      -3.461   8.560  -5.524  0.00  0.00    -0.028 A 
ATOM     31  C   UNL     1      -4.401   9.235  -6.280  0.00  0.00    +0.005 A 
ATOM     32  C   UNL     1      -4.653  10.572  -6.038  0.00  0.00    +0.000 A 
ATOM     33  C   UNL     1      -3.957  11.238  -5.046  0.00  0.00    +0.000 A 
ATOM     34  C   UNL     1      -3.013  10.565  -4.293  0.00  0.00    +0.000 A 
ATOM     35  C   UNL     1      -2.765   9.226  -4.532  0.00  0.00    +0.005 A 
ENDBRANCH  29  30
ENDBRANCH   3  29
TORSDOF 7
