REMARK  Name = ZINC49925882
REMARK  7 active torsions:
REMARK  status: ('A' for Active; 'I' for Inactive)
REMARK    1  A    between atoms: C_1  and  C_2
REMARK    2  A    between atoms: C_9  and  C_22
REMARK    3  A    between atoms: C_10  and  C_12
REMARK    4  A    between atoms: C_15  and  C_18
REMARK    5  A    between atoms: C_18  and  C_19
REMARK    6  A    between atoms: C_18  and  C_20
REMARK    7  A    between atoms: C_18  and  C_21
REMARK                            x       y       z     vdW  Elec       q    Type
REMARK                         _______ _______ _______ _____ _____    ______ ____
ROOT
ATOM      1  C   UNL     1      -0.007   1.494  -0.035  0.00  0.00    +0.031 C 
ATOM      2  C   UNL     1       0.025  -0.035  -0.028  0.00  0.00    +0.086 C 
ATOM      3  C   UNL     1      -1.402  -0.578   0.100  0.00  0.00    +0.025 C 
ATOM      4  C   UNL     1      -1.351  -2.087   0.357  0.00  0.00    +0.010 C 
ATOM      5  C   UNL     1      -0.792  -2.342   1.762  0.00  0.00    +0.072 C 
ATOM      6  C   UNL     1       0.470  -1.526   1.925  0.00  0.00    +0.088 A 
ATOM      7  N   UNL     1       0.816  -0.504   1.113  0.00  0.00    -0.321 N 
ATOM      8  C   UNL     1       2.021  -0.004   1.558  0.00  0.00    +0.157 A 
ATOM      9  C   UNL     1       2.367  -0.777   2.664  0.00  0.00    +0.079 A 
ATOM     10  N   UNL     1       1.387  -1.683   2.841  0.00  0.00    -0.343 N 
ATOM     11  H   UNL     1       1.366  -2.354   3.541  0.00  0.00    +0.167 HD
ENDROOT
BRANCH   9  12
ATOM     12  C   UNL     1       3.584  -0.627   3.494  0.00  0.00    +0.001 A 
ATOM     13  C   UNL     1       4.827  -0.443   2.888  0.00  0.00    +0.010 A 
ATOM     14  C   UNL     1       5.958  -0.304   3.667  0.00  0.00    +0.005 A 
ATOM     15  C   UNL     1       5.861  -0.348   5.046  0.00  0.00    -0.042 A 
ATOM     16  C   UNL     1       4.631  -0.531   5.653  0.00  0.00    +0.005 A 
ATOM     17  C   UNL     1       3.493  -0.665   4.886  0.00  0.00    +0.010 A 
BRANCH  15  18
ATOM     18  C   UNL     1       7.100  -0.196   5.890  0.00  0.00    -0.013 C 
ATOM     19  C   UNL     1       7.748   1.160   5.606  0.00  0.00    +0.015 C 
ATOM     20  C   UNL     1       6.722  -0.281   7.370  0.00  0.00    +0.015 C 
ATOM     21  C   UNL     1       8.088  -1.314   5.551  0.00  0.00    +0.015 C 
ENDBRANCH  15  18
ENDBRANCH   9  12
BRANCH   8  22
ATOM     22  C   UNL     1       2.755   1.074   1.006  0.00  0.00    +0.405 C 
ATOM     23  O   UNL     1       2.639   2.199   1.478  0.00  0.00    -0.239 OA
ATOM     24  O   UNL     1       3.506   0.881   0.057  0.00  0.00    -0.239 OA
ENDBRANCH   8  22
TORSDOF 3
