REMARK  Name = ZINC08479007
REMARK  10 active torsions:
REMARK  status: ('A' for Active; 'I' for Inactive)
REMARK    1  A    between atoms: C_1  and  C_2
REMARK    2  A    between atoms: C_3  and  C_29
REMARK    3  A    between atoms: N_4  and  C_25
REMARK    4  A    between atoms: C_5  and  S_7
REMARK    5  A    between atoms: S_7  and  C_8
REMARK    6  A    between atoms: C_8  and  C_9
REMARK    7  A    between atoms: C_22  and  C_24
REMARK    8  A    between atoms: C_25  and  C_26
REMARK    9  A    between atoms: C_26  and  C_27
REMARK   10  A    between atoms: C_26  and  C_28
REMARK                            x       y       z     vdW  Elec       q    Type
REMARK                         _______ _______ _______ _____ _____    ______ ____
ROOT
ATOM      1  C   UNL     1       0.078  -3.839   4.466  0.00  0.00    +0.230 C 
ATOM      2  O   UNL     1       0.092  -4.997   4.108  0.00  0.00    -0.274 OA
ATOM      3  N   UNL     1       0.080  -3.539   5.780  0.00  0.00    -0.266 N 
ATOM      4  C   UNL     1       0.058  -2.205   6.208  0.00  0.00    +0.058 A 
ATOM      5  C   UNL     1      -1.091  -1.441   6.079  0.00  0.00    +0.025 A 
ATOM      6  C   UNL     1      -1.101  -0.133   6.528  0.00  0.00    +0.002 A 
ATOM      7  C   UNL     1       0.030   0.415   7.106  0.00  0.00    +0.002 A 
ATOM      8  C   UNL     1       1.183  -0.338   7.230  0.00  0.00    +0.025 A 
ATOM      9  C   UNL     1       1.204  -1.646   6.773  0.00  0.00    +0.055 A 
ATOM     10  N   UNL     1       2.376  -2.409   6.837  0.00  0.00    -0.284 N 
ATOM     11  C   UNL     1       2.348  -3.667   7.327  0.00  0.00    +0.219 C 
ATOM     12  O   UNL     1       3.352  -4.347   7.300  0.00  0.00    -0.275 OA
ATOM     13  C   UNL     1       1.078  -4.231   7.908  0.00  0.00    +0.118 C 
ATOM     14  C   UNL     1       0.100  -4.602   6.787  0.00  0.00    +0.087 C 
ATOM     15  C   UNL     1      -1.304  -4.778   7.368  0.00  0.00    +0.029 C 
ATOM     16  H   UNL     1       3.214  -2.032   6.526  0.00  0.00    +0.155 HD
ENDROOT
BRANCH   1  17
ATOM     17  C   UNL     1       0.057  -2.734   3.441  0.00  0.00    +0.173 C 
BRANCH  17  18
ATOM     18  S   UNL     1       0.059  -3.453   1.776  0.00  0.00    -0.080 S 
BRANCH  18  23
ATOM     19  C   UNL     1      -0.018   1.503   0.010  0.00  0.00    +0.065 C 
ATOM     20  C   UNL     1       0.002  -0.004   0.002  0.00  0.00    +0.034 A 
ATOM     21  C   UNL     1       0.008  -0.785  -1.092  0.00  0.00    +0.037 A 
ATOM     22  N   UNL     1       0.028  -2.090  -0.654  0.00  0.00    -0.324 N 
ATOM     23  C   UNL     1       0.034  -2.053   0.707  0.00  0.00    +0.148 A 
ATOM     24  N   UNL     1       0.024  -0.796   1.087  0.00  0.00    -0.338 N 
ATOM     25  C   UNL     1      -0.006  -0.320  -2.525  0.00  0.00    +0.065 C 
ATOM     26  H   UNL     1       0.028  -0.488   2.007  0.00  0.00    +0.168 HD
BRANCH  22  27
ATOM     27  C   UNL     1       0.041  -3.291  -1.493  0.00  0.00    +0.127 C 
BRANCH  27  28
ATOM     28  C   UNL     1       1.487  -3.688  -1.792  0.00  0.00    +0.003 C 
ATOM     29  C   UNL     1       1.504  -5.010  -2.563  0.00  0.00    +0.009 C 
ATOM     30  C   UNL     1       2.152  -2.598  -2.636  0.00  0.00    +0.009 C 
ENDBRANCH  27  28
ENDBRANCH  22  27
ENDBRANCH  18  23
ENDBRANCH  17  18
ENDBRANCH   1  17
TORSDOF 5
