REMARK  Name = ZINC21230977
REMARK  8 active torsions:
REMARK  status: ('A' for Active; 'I' for Inactive)
REMARK    1  A    between atoms: C_1  and  O_2
REMARK    2  A    between atoms: O_2  and  C_3
REMARK    3  A    between atoms: C_5  and  C_13
REMARK    4  A    between atoms: C_7  and  O_11
REMARK    5  A    between atoms: C_8  and  O_9
REMARK    6  A    between atoms: O_9  and  C_10
REMARK    7  A    between atoms: O_11  and  C_12
REMARK    8  A    between atoms: C_18  and  C_28
REMARK                            x       y       z     vdW  Elec       q    Type
REMARK                         _______ _______ _______ _____ _____    ______ ____
ROOT
ATOM      1  C   UNL     1      -5.279   4.475   4.290  0.00  0.00    +0.032 C 
ATOM      2  C   UNL     1      -6.577   3.947   3.681  0.00  0.00    +0.059 C 
ATOM      3  C   UNL     1      -6.328   3.468   2.261  0.00  0.00    +0.017 C 
ATOM      4  C   UNL     1      -5.399   4.056   1.494  0.00  0.00    +0.037 C 
ATOM      5  C   UNL     1      -5.059   3.693   0.069  0.00  0.00    +0.143 C 
ATOM      6  N   UNL     1      -5.998   2.789  -0.560  0.00  0.00    -0.331 N 
ATOM      7  C   UNL     1      -6.165   1.487  -0.089  0.00  0.00    +0.049 A 
ATOM      8  C   UNL     1      -5.826   0.388  -0.863  0.00  0.00    +0.025 A 
ATOM      9  C   UNL     1      -5.965  -0.883  -0.335  0.00  0.00    +0.002 A 
ATOM     10  C   UNL     1      -6.433  -1.059   0.955  0.00  0.00    +0.002 A 
ATOM     11  C   UNL     1      -6.789   0.036   1.724  0.00  0.00    +0.025 A 
ATOM     12  C   UNL     1      -6.672   1.307   1.188  0.00  0.00    +0.052 A 
ATOM     13  N   UNL     1      -7.118   2.440   1.860  0.00  0.00    -0.316 N 
ATOM     14  C   UNL     1      -4.626   5.129   2.008  0.00  0.00    +0.163 C 
ATOM     15  O   UNL     1      -3.803   5.659   1.287  0.00  0.00    -0.292 OA
ATOM     16  C   UNL     1      -4.788   5.632   3.411  0.00  0.00    +0.088 C 
ATOM     17  H   UNL     1      -6.593   3.126  -1.421  0.00  0.00    +0.147 HD
ATOM     18  H   UNL     1      -8.199   2.465   2.062  0.00  0.00    +0.152 HD
ENDROOT
BRANCH   5  19
ATOM     19  C   UNL     1      -3.695   3.051   0.052  0.00  0.00    +0.059 A 
ATOM     20  C   UNL     1      -3.196   2.494   1.171  0.00  0.00    +0.205 A 
ATOM     21  O   UNL     1      -1.993   1.911   1.216  0.00  0.00    -0.462 OA
ATOM     22  C   UNL     1      -1.187   1.833   0.137  0.00  0.00    +0.138 A 
ATOM     23  C   UNL     1       0.060   1.224   0.219  0.00  0.00    +0.047 A 
ATOM     24  C   UNL     1       0.868   1.161  -0.896  0.00  0.00    +0.004 A 
ATOM     25  C   UNL     1       0.453   1.704  -2.104  0.00  0.00    +0.001 A 
ATOM     26  C   UNL     1      -0.777   2.316  -2.204  0.00  0.00    +0.015 A 
ATOM     27  C   UNL     1      -1.604   2.386  -1.084  0.00  0.00    +0.064 A 
ATOM     28  C   UNL     1      -2.929   3.031  -1.143  0.00  0.00    +0.198 A 
ATOM     29  O   UNL     1      -3.350   3.526  -2.175  0.00  0.00    -0.287 OA
ENDBRANCH   5  19
BRANCH   1  32
ATOM     30  C   UNL     1      -5.100   4.853   8.046  0.00  0.00    +0.165 A 
ATOM     31  C   UNL     1      -4.866   4.401   6.756  0.00  0.00    +0.053 A 
ATOM     32  C   UNL     1      -5.536   4.970   5.689  0.00  0.00    -0.036 A 
ATOM     33  C   UNL     1      -6.437   5.997   5.903  0.00  0.00    +0.053 A 
ATOM     34  C   UNL     1      -6.680   6.451   7.191  0.00  0.00    +0.165 A 
ATOM     35  C   UNL     1      -6.009   5.881   8.265  0.00  0.00    +0.204 A 
BRANCH  30  37
ATOM     36  C   UNL     1      -3.522   3.239   8.794  0.00  0.00    +0.277 C 
ATOM     37  O   UNL     1      -4.441   4.291   9.094  0.00  0.00    -0.491 OA
ENDBRANCH  30  37
BRANCH  35  38
ATOM     38  O   UNL     1      -6.242   6.327   9.530  0.00  0.00    -0.488 OA
ATOM     39  C   UNL     1      -5.418   7.395  10.003  0.00  0.00    +0.277 C 
ENDBRANCH  35  38
BRANCH  34  40
ATOM     40  O   UNL     1      -7.571   7.457   7.400  0.00  0.00    -0.491 OA
ATOM     41  C   UNL     1      -8.224   7.996   6.249  0.00  0.00    +0.277 C 
ENDBRANCH  34  40
ENDBRANCH   1  32
TORSDOF 5
