REMARK  Name = ZINC36764187
REMARK  8 active torsions:
REMARK  status: ('A' for Active; 'I' for Inactive)
REMARK    1  A    between atoms: C_1  and  C_2
REMARK    2  A    between atoms: C_2  and  C_3
REMARK    3  A    between atoms: C_2  and  C_4
REMARK    4  A    between atoms: C_2  and  C_5
REMARK    5  A    between atoms: C_8  and  C_11
REMARK    6  A    between atoms: C_11  and  C_13
REMARK    7  A    between atoms: C_11  and  N_21
REMARK    8  A    between atoms: C_15  and  C_18
REMARK                            x       y       z     vdW  Elec       q    Type
REMARK                         _______ _______ _______ _____ _____    ______ ____
ROOT
ATOM      1  C   UNL     1       2.707  -1.868  -4.752  0.00  0.00    +0.029 C 
ENDROOT
BRANCH   1   5
ATOM      2  C   UNL     1       0.707  -0.490  -1.238  0.00  0.00    -0.042 A 
ATOM      3  C   UNL     1       0.036  -1.284  -2.148  0.00  0.00    +0.004 A 
ATOM      4  C   UNL     1       0.683  -1.730  -3.286  0.00  0.00    +0.002 A 
ATOM      5  C   UNL     1       2.001  -1.381  -3.513  0.00  0.00    -0.055 A 
ATOM      6  C   UNL     1       2.672  -0.586  -2.603  0.00  0.00    +0.002 A 
ATOM      7  C   UNL     1       2.024  -0.137  -1.467  0.00  0.00    +0.004 A 
BRANCH   2   9
ATOM      8  C   UNL     1      -0.019   1.526   0.010  0.00  0.00    +0.015 C 
ATOM      9  C   UNL     1       0.002  -0.004   0.002  0.00  0.00    -0.013 C 
ATOM     10  C   UNL     1       0.742  -0.511   1.242  0.00  0.00    +0.015 C 
ATOM     11  C   UNL     1      -1.433  -0.534   0.013  0.00  0.00    +0.015 C 
ENDBRANCH   2   9
ENDBRANCH   1   5
BRANCH   1  12
ATOM     12  C   UNL     1       3.568  -3.055  -4.406  0.00  0.00    +0.162 A 
ATOM     13  N   UNL     1       3.293  -4.330  -4.707  0.00  0.00    -0.197 NA
ATOM     14  C   UNL     1       4.241  -5.109  -4.265  0.00  0.00    +0.230 A 
ATOM     15  O   UNL     1       5.163  -4.347  -3.662  0.00  0.00    -0.338 OA
ATOM     16  N   UNL     1       4.704  -3.008  -3.771  0.00  0.00    -0.063 NA
BRANCH  14  17
ATOM     17  C   UNL     1       4.291  -6.608  -4.409  0.00  0.00    +0.078 C 
ATOM     18  C   UNL     1       5.388  -7.354  -3.646  0.00  0.00    +0.014 C 
ATOM     19  C   UNL     1       5.479  -7.205  -5.166  0.00  0.00    +0.014 C 
ENDBRANCH  14  17
ENDBRANCH   1  12
BRANCH   1  20
ATOM     20  N   UNL     1       3.550  -0.792  -5.290  0.00  0.00    +0.387 N 
ATOM     21  H   UNL     1       4.233  -0.522  -4.598  0.00  0.00    -0.089 HD
ATOM     22  H   UNL     1       4.022  -1.118  -6.120  0.00  0.00    -0.089 HD
ATOM     23  H   UNL     1       2.973   0.003  -5.522  0.00  0.00    -0.089 HD
ENDBRANCH   1  20
TORSDOF 5
