REMARK  Name = ZINC09513060
REMARK  8 active torsions:
REMARK  status: ('A' for Active; 'I' for Inactive)
REMARK    1  A    between atoms: C_1  and  C_2
REMARK    2  A    between atoms: C_4  and  C_33
REMARK    3  A    between atoms: C_5  and  C_9
REMARK    4  A    between atoms: C_6  and  C_8
REMARK    5  A    between atoms: C_15  and  C_17
REMARK    6  A    between atoms: C_17  and  S_18
REMARK    7  A    between atoms: S_18  and  C_19
REMARK    8  A    between atoms: C_22  and  C_24
REMARK                            x       y       z     vdW  Elec       q    Type
REMARK                         _______ _______ _______ _____ _____    ______ ____
ROOT
ATOM      1  C   UNL     1      -1.950   1.897  -5.948  0.00  0.00    +0.081 A 
ATOM      2  C   UNL     1      -3.197   2.438  -5.800  0.00  0.00    +0.076 A 
ATOM      3  S   UNL     1      -3.383   2.358  -4.023  0.00  0.00    -0.060 S 
ATOM      4  C   UNL     1      -1.792   1.629  -3.665  0.00  0.00    +0.165 A 
ATOM      5  N   UNL     1      -1.280   1.507  -4.875  0.00  0.00    -0.225 NA
ATOM      6  N   UNL     1      -1.242   1.277  -2.438  0.00  0.00    -0.264 N 
ATOM      7  C   UNL     1      -1.937   1.488  -1.303  0.00  0.00    +0.229 C 
ATOM      8  O   UNL     1      -3.043   1.983  -1.352  0.00  0.00    -0.275 OA
ATOM      9  H   UNL     1      -0.357   0.881  -2.398  0.00  0.00    +0.157 HD
ENDROOT
BRANCH   1  14
ATOM     10  C   UNL     1       0.364   1.324 -11.190  0.00  0.00    +0.044 C 
ATOM     11  C   UNL     1      -0.242   1.474  -9.819  0.00  0.00    -0.050 A 
ATOM     12  C   UNL     1       0.468   2.115  -8.819  0.00  0.00    +0.007 A 
ATOM     13  C   UNL     1      -0.082   2.255  -7.561  0.00  0.00    -0.041 A 
ATOM     14  C   UNL     1      -1.354   1.750  -7.298  0.00  0.00    +0.007 A 
ATOM     15  C   UNL     1      -2.062   1.100  -8.308  0.00  0.00    -0.041 A 
ATOM     16  C   UNL     1      -1.505   0.971  -9.564  0.00  0.00    +0.007 A 
ATOM     17  C   UNL     1      -3.436   0.546  -8.031  0.00  0.00    +0.044 C 
ATOM     18  C   UNL     1       0.692   2.953  -6.472  0.00  0.00    +0.044 C 
ENDBRANCH   1  14
BRANCH   7  19
ATOM     19  C   UNL     1      -1.341   1.107   0.028  0.00  0.00    +0.175 C 
BRANCH  19  20
ATOM     20  S   UNL     1      -2.509   1.510   1.350  0.00  0.00    -0.056 S 
BRANCH  20  21
ATOM     21  C   UNL     1      -1.582   0.976   2.750  0.00  0.00    +0.278 A 
ATOM     22  N   UNL     1      -0.384   0.440   2.731  0.00  0.00    -0.101 NA
ATOM     23  N   UNL     1      -0.013   0.175   3.934  0.00  0.00    -0.106 NA
ATOM     24  C   UNL     1      -0.962   0.524   4.769  0.00  0.00    +0.249 A 
ATOM     25  O   UNL     1      -1.975   1.039   4.037  0.00  0.00    -0.411 OA
BRANCH  24  26
ATOM     26  C   UNL     1      -0.929   0.381   6.239  0.00  0.00    +0.042 A 
ATOM     27  C   UNL     1      -2.016   0.802   7.007  0.00  0.00    +0.017 A 
ATOM     28  C   UNL     1      -1.986   0.662   8.379  0.00  0.00    +0.050 A 
ATOM     29  C   UNL     1      -0.874   0.113   9.001  0.00  0.00    +0.166 A 
ATOM     30  C   UNL     1       0.217  -0.305   8.239  0.00  0.00    +0.167 A 
ATOM     31  C   UNL     1       0.191  -0.172   6.863  0.00  0.00    +0.062 A 
ATOM     32  O   UNL     1       1.171  -0.803   9.080  0.00  0.00    -0.453 OA
ATOM     33  C   UNL     1       0.490  -1.063  10.322  0.00  0.00    +0.466 C 
ATOM     34  O   UNL     1      -0.602  -0.124  10.317  0.00  0.00    -0.453 OA
ENDBRANCH  24  26
ENDBRANCH  20  21
ENDBRANCH  19  20
ENDBRANCH   7  19
TORSDOF 5
