REMARK  Name = ZINC39457691
REMARK  8 active torsions:
REMARK  status: ('A' for Active; 'I' for Inactive)
REMARK    1  A    between atoms: C_1  and  C_2
REMARK    2  A    between atoms: C_3  and  O_34
REMARK    3  A    between atoms: N_6  and  C_7
REMARK    4  A    between atoms: C_12  and  O_13
REMARK    5  A    between atoms: C_16  and  S_24
REMARK    6  A    between atoms: S_24  and  C_27
REMARK    7  A    between atoms: C_27  and  C_28
REMARK    8  A    between atoms: C_27  and  C_29
REMARK                            x       y       z     vdW  Elec       q    Type
REMARK                         _______ _______ _______ _____ _____    ______ ____
ROOT
ATOM      1  C   UNL     1      -1.277   0.817  -1.030  0.00  0.00    +0.068 C 
ATOM      2  C   UNL     1      -1.069  -0.646  -0.736  0.00  0.00    +0.063 A 
ATOM      3  C   UNL     1      -1.225  -1.664  -1.622  0.00  0.00    +0.141 A 
ATOM      4  C   UNL     1      -0.940  -2.858  -0.954  0.00  0.00    +0.022 A 
ATOM      5  C   UNL     1      -0.596  -2.528   0.335  0.00  0.00    +0.080 A 
ATOM      6  N   UNL     1      -0.684  -1.173   0.468  0.00  0.00    -0.305 N 
ATOM      7  C   UNL     1      -0.185  -3.538   1.326  0.00  0.00    +0.101 A 
ATOM      8  C   UNL     1       0.764  -4.562   0.862  0.00  0.00    +0.070 A 
ATOM      9  C   UNL     1       1.156  -5.560   1.737  0.00  0.00    +0.110 A 
ATOM     10  C   UNL     1       0.637  -5.526   3.046  0.00  0.00    +0.026 A 
ATOM     11  C   UNL     1       0.996  -6.514   3.980  0.00  0.00    +0.012 A 
ATOM     12  C   UNL     1       0.499  -6.459   5.246  0.00  0.00    +0.001 A 
ATOM     13  C   UNL     1      -0.365  -5.436   5.630  0.00  0.00    +0.002 A 
ATOM     14  C   UNL     1      -0.741  -4.467   4.750  0.00  0.00    +0.028 A 
ATOM     15  C   UNL     1      -0.252  -4.490   3.431  0.00  0.00    +0.074 A 
ATOM     16  N   UNL     1      -0.631  -3.546   2.560  0.00  0.00    -0.244 NA
ATOM     17  C   UNL     1       1.274  -4.470  -0.506  0.00  0.00    +0.167 C 
ATOM     18  O   UNL     1       2.411  -4.093  -0.693  0.00  0.00    -0.292 OA
ATOM     19  C   UNL     1       0.408  -4.835  -1.690  0.00  0.00    +0.084 C 
ATOM     20  C   UNL     1      -1.000  -4.261  -1.487  0.00  0.00    +0.049 C 
ENDROOT
BRANCH   6  21
ATOM     21  C   UNL     1      -0.428  -0.444   1.638  0.00  0.00    +0.089 A 
ATOM     22  C   UNL     1      -1.452  -0.198   2.542  0.00  0.00    +0.030 A 
ATOM     23  C   UNL     1      -1.197   0.521   3.694  0.00  0.00    +0.002 A 
ATOM     24  C   UNL     1       0.076   0.995   3.950  0.00  0.00    +0.004 A 
ATOM     25  C   UNL     1       1.101   0.754   3.055  0.00  0.00    +0.047 A 
ATOM     26  C   UNL     1       0.856   0.029   1.899  0.00  0.00    +0.141 A 
BRANCH  26  27
ATOM     27  O   UNL     1       1.864  -0.214   1.020  0.00  0.00    -0.505 OA
ATOM     28  H   UNL     1       1.965   0.466   0.340  0.00  0.00    +0.292 HD
ENDBRANCH  26  27
ENDBRANCH   6  21
BRANCH   9  29
ATOM     29  S   UNL     1       2.267  -6.830   1.231  0.00  0.00    +0.001 S 
ATOM     30  O   UNL     1       2.768  -6.395  -0.025  0.00  0.00    -0.169 OA
ATOM     31  O   UNL     1       3.142  -7.009   2.337  0.00  0.00    -0.169 OA
BRANCH  29  32
ATOM     32  C   UNL     1       1.227  -8.300   1.013  0.00  0.00    +0.130 C 
ATOM     33  C   UNL     1       0.165  -8.020  -0.052  0.00  0.00    +0.032 C 
ATOM     34  C   UNL     1       2.095  -9.479   0.569  0.00  0.00    +0.032 C 
ENDBRANCH  29  32
ENDBRANCH   9  29
BRANCH   3  35
ATOM     35  O   UNL     1      -1.594  -1.542  -2.928  0.00  0.00    -0.505 OA
ATOM     36  H   UNL     1      -0.852  -1.435  -3.538  0.00  0.00    +0.292 HD
ENDBRANCH   3  35
TORSDOF 5
