REMARK  Name = ZINC03840705
REMARK  14 active torsions:
REMARK  status: ('A' for Active; 'I' for Inactive)
REMARK    1  A    between atoms: C_1  and  C_2
REMARK    2  A    between atoms: C_7  and  C_9
REMARK    3  A    between atoms: C_9  and  O_10
REMARK    4  A    between atoms: O_10  and  C_11
REMARK    5  A    between atoms: C_11  and  C_13
REMARK    6  A    between atoms: C_13  and  C_14
REMARK    7  A    between atoms: C_13  and  C_15
REMARK    8  A    between atoms: C_13  and  C_16
REMARK    9  A    between atoms: C_18  and  C_39
REMARK   10  A    between atoms: C_21  and  O_38
REMARK   11  A    between atoms: C_23  and  C_27
REMARK   12  A    between atoms: C_27  and  C_29
REMARK   13  A    between atoms: C_27  and  C_30
REMARK   14  A    between atoms: C_37  and  N_78
REMARK                            x       y       z     vdW  Elec       q    Type
REMARK                         _______ _______ _______ _____ _____    ______ ____
ROOT
ATOM      1  C   UNL     1      -2.687  -1.275   1.918  0.00  0.00    +0.014 C 
ATOM      2  C   UNL     1      -2.136  -1.415   0.497  0.00  0.00    +0.042 C 
ATOM      3  C   UNL     1      -2.240  -2.867   0.055  0.00  0.00    +0.055 A 
ATOM      4  C   UNL     1      -1.221  -3.443  -0.637  0.00  0.00    +0.014 A 
ATOM      5  S   UNL     1      -1.822  -5.088  -0.910  0.00  0.00    -0.073 S 
ATOM      6  C   UNL     1      -3.348  -4.892  -0.101  0.00  0.00    +0.116 A 
ATOM      7  N   UNL     1      -3.289  -3.645   0.299  0.00  0.00    -0.245 NA
ATOM      8  C   UNL     1       0.067  -2.821  -1.046  0.00  0.00    +0.051 C 
ATOM      9  C   UNL     1      -0.042  -1.291  -0.888  0.00  0.00    -0.022 C 
ATOM     10  C   UNL     1      -0.666  -0.975   0.473  0.00  0.00    +0.033 C 
ATOM     11  C   UNL     1      -0.635   0.535   0.729  0.00  0.00    +0.123 C 
ATOM     12  C   UNL     1       0.799   1.055   0.671  0.00  0.00    +0.029 C 
ATOM     13  C   UNL     1       1.366   0.781  -0.725  0.00  0.00    +0.007 C 
ATOM     14  C   UNL     1       1.380  -0.727  -0.962  0.00  0.00    +0.008 C 
ATOM     15  C   UNL     1      -0.908  -0.710  -2.008  0.00  0.00    +0.012 C 
ENDROOT
BRANCH  12  16
ATOM     16  C   UNL     1       0.811   2.561   0.944  0.00  0.00    +0.078 C 
ATOM     17  C   UNL     1       0.008   3.281  -0.141  0.00  0.00    +0.017 C 
BRANCH  16  18
ATOM     18  C   UNL     1       2.232   3.062   0.933  0.00  0.00    +0.219 C 
ATOM     19  O   UNL     1       2.715   3.493  -0.092  0.00  0.00    -0.275 OA
ATOM     20  N   UNL     1       2.965   3.033   2.064  0.00  0.00    -0.305 N 
ATOM     21  C   UNL     1       2.434   2.423   3.292  0.00  0.00    +0.089 C 
ATOM     22  C   UNL     1       3.473   1.422   3.822  0.00  0.00    -0.060 C 
ATOM     23  C   UNL     1       5.278   2.571   2.681  0.00  0.00    -0.060 C 
ATOM     24  C   UNL     1       4.315   3.614   2.103  0.00  0.00    +0.089 C 
ATOM     25  C   UNL     1       5.743   1.230   4.643  0.00  0.00    -0.096 C 
ATOM     26  N   UNL     1       4.762   2.125   3.994  0.00  0.00    +0.380 N 
ATOM     27  H   UNL     1       4.616   2.948   4.591  0.00  0.00    -0.082 HD
ENDBRANCH  16  18
ENDBRANCH  12  16
BRANCH  11  28
ATOM     28  O   UNL     1      -1.185   0.807   2.020  0.00  0.00    -0.391 OA
ATOM     29  H   UNL     1      -1.166   1.741   2.267  0.00  0.00    +0.210 HD
ENDBRANCH  11  28
BRANCH   6  30
ATOM     30  C   UNL     1      -4.454  -5.897   0.092  0.00  0.00    +0.294 C 
BRANCH  30  31
ATOM     31  O   UNL     1      -5.381  -5.816  -1.023  0.00  0.00    -0.457 OA
BRANCH  31  32
ATOM     32  C   UNL     1      -6.432  -6.652  -1.003  0.00  0.00    +0.313 C 
ATOM     33  O   UNL     1      -6.571  -7.426  -0.086  0.00  0.00    -0.250 OA
BRANCH  32  34
ATOM     34  C   UNL     1      -7.436  -6.626  -2.126  0.00  0.00    +0.059 C 
ATOM     35  C   UNL     1      -8.524  -7.669  -1.862  0.00  0.00    +0.022 C 
ATOM     36  C   UNL     1      -8.072  -5.236  -2.209  0.00  0.00    +0.022 C 
ATOM     37  C   UNL     1      -6.734  -6.945  -3.447  0.00  0.00    +0.022 C 
ENDBRANCH  32  34
ENDBRANCH  31  32
ENDBRANCH  30  31
ENDBRANCH   6  30
TORSDOF 7
