REMARK  Name = ZINC07901076
REMARK  5 active torsions:
REMARK  status: ('A' for Active; 'I' for Inactive)
REMARK    1  A    between atoms: C_1  and  N_2
REMARK    2  A    between atoms: N_2  and  C_3
REMARK    3  A    between atoms: C_14  and  C_16
REMARK    4  A    between atoms: C_16  and  S_17
REMARK    5  A    between atoms: S_17  and  C_18
REMARK                            x       y       z     vdW  Elec       q    Type
REMARK                         _______ _______ _______ _____ _____    ______ ____
ROOT
ATOM      1  C   UNL     1      -6.276  -2.116   0.047  0.00  0.00    +0.132 C 
ATOM      2  N   UNL     1      -7.243  -1.016   0.062  0.00  0.00    -0.297 N 
ATOM      3  C   UNL     1      -6.811   0.261   0.065  0.00  0.00    +0.226 C 
ATOM      4  O   UNL     1      -7.611   1.172   0.077  0.00  0.00    -0.275 OA
ENDROOT
BRANCH   2   5
ATOM      5  C   UNL     1      -8.679  -1.303   0.073  0.00  0.00    +0.106 C 
ATOM      6  C   UNL     1      -9.021  -2.116   1.321  0.00  0.00    +0.027 C 
ATOM      7  C   UNL     1     -10.475  -2.589   1.207  0.00  0.00    +0.007 C 
ATOM      8  C   UNL     1     -10.553  -3.644   0.106  0.00  0.00    +0.035 C 
ATOM      9  C   UNL     1      -9.906  -3.141  -1.158  0.00  0.00    -0.042 A 
ATOM     10  C   UNL     1      -9.043  -2.068  -1.172  0.00  0.00    -0.024 A 
ATOM     11  C   UNL     1      -8.475  -1.658  -2.371  0.00  0.00    +0.006 A 
ATOM     12  C   UNL     1      -8.771  -2.315  -3.548  0.00  0.00    +0.000 A 
ATOM     13  C   UNL     1      -9.641  -3.389  -3.535  0.00  0.00    +0.000 A 
ATOM     14  C   UNL     1     -10.205  -3.798  -2.344  0.00  0.00    +0.004 A 
ENDBRANCH   2   5
BRANCH   3  15
ATOM     15  C   UNL     1      -5.333   0.556   0.053  0.00  0.00    +0.173 C 
BRANCH  15  16
ATOM     16  S   UNL     1      -5.076   2.348   0.061  0.00  0.00    -0.079 S 
BRANCH  16  17
ATOM     17  C   UNL     1      -3.315   2.404   0.045  0.00  0.00    +0.168 A 
ATOM     18  N   UNL     1      -2.566   3.547   0.045  0.00  0.00    -0.333 N 
ATOM     19  H   UNL     1      -2.914   4.484   0.053  0.00  0.00    +0.168 HD
ATOM     20  C   UNL     1      -1.234   3.165   0.030  0.00  0.00    +0.067 A 
ATOM     21  C   UNL     1      -0.035   3.860   0.023  0.00  0.00    +0.028 A 
ATOM     22  C   UNL     1       1.159   3.170   0.008  0.00  0.00    +0.002 A 
ATOM     23  C   UNL     1       1.169   1.783   0.001  0.00  0.00    +0.002 A 
ATOM     24  C   UNL     1      -0.013   1.076   0.008  0.00  0.00    +0.030 A 
ATOM     25  C   UNL     1      -1.231   1.760   0.017  0.00  0.00    +0.090 A 
ATOM     26  N   UNL     1      -2.528   1.356   0.032  0.00  0.00    -0.222 NA
ENDBRANCH  16  17
ENDBRANCH  15  16
ENDBRANCH   3  15
TORSDOF 4
