REMARK  Name = ZINC09380489
REMARK  19 active torsions:
REMARK  status: ('A' for Active; 'I' for Inactive)
REMARK    1  A    between atoms: C_1  and  C_2
REMARK    2  A    between atoms: C_2  and  O_3
REMARK    3  A    between atoms: O_3  and  C_4
REMARK    4  A    between atoms: C_6  and  C_11
REMARK    5  A    between atoms: C_9  and  O_10
REMARK    6  A    between atoms: C_13  and  C_23
REMARK    7  A    between atoms: C_14  and  O_22
REMARK    8  A    between atoms: N_17  and  C_18
REMARK    9  A    between atoms: C_18  and  C_19
REMARK   10  A    between atoms: C_19  and  N_72
REMARK   11  A    between atoms: C_20  and  N_72
REMARK   12  A    between atoms: C_21  and  N_72
REMARK   13  A    between atoms: C_23  and  C_25
REMARK   14  A    between atoms: C_28  and  O_32
REMARK   15  A    between atoms: C_30  and  C_31
REMARK   16  A    between atoms: O_32  and  C_33
REMARK   17  A    between atoms: C_33  and  C_34
REMARK   18  A    between atoms: C_34  and  C_35
REMARK   19  A    between atoms: C_34  and  C_36
REMARK                            x       y       z     vdW  Elec       q    Type
REMARK                         _______ _______ _______ _____ _____    ______ ____
ROOT
ATOM      1  C   UNL     1       2.988   3.254   0.253  0.00  0.00    +0.144 C 
ATOM      2  C   UNL     1       1.580   2.708   0.236  0.00  0.00    +0.071 C 
ATOM      3  C   UNL     1       1.634   1.471   0.782  0.00  0.00    +0.188 C 
ATOM      4  C   UNL     1       3.031   1.166   1.157  0.00  0.00    +0.282 C 
ATOM      5  O   UNL     1       3.406   0.130   1.667  0.00  0.00    -0.267 OA
ATOM      6  N   UNL     1       3.826   2.207   0.849  0.00  0.00    -0.285 N 
ENDROOT
BRANCH   1   9
ATOM      7  C   UNL     1       4.031   5.124  -2.860  0.00  0.00    +0.162 A 
ATOM      8  C   UNL     1       3.612   4.854  -1.567  0.00  0.00    +0.055 A 
ATOM      9  C   UNL     1       3.445   3.546  -1.154  0.00  0.00    -0.019 A 
ATOM     10  C   UNL     1       3.701   2.504  -2.026  0.00  0.00    +0.009 A 
ATOM     11  C   UNL     1       4.114   2.766  -3.318  0.00  0.00    +0.049 A 
ATOM     12  C   UNL     1       4.284   4.075  -3.739  0.00  0.00    +0.158 A 
BRANCH  12  13
ATOM     13  O   UNL     1       4.696   4.335  -5.009  0.00  0.00    -0.503 OA
ATOM     14  H   UNL     1       5.657   4.387  -5.108  0.00  0.00    +0.292 HD
ENDBRANCH  12  13
BRANCH   7  15
ATOM     15  O   UNL     1       4.196   6.410  -3.269  0.00  0.00    -0.489 OA
BRANCH  15  17
ATOM     16  C   UNL     1       4.223   8.803  -2.930  0.00  0.00    +0.048 C 
ATOM     17  C   UNL     1       4.031   7.431  -2.282  0.00  0.00    +0.226 C 
ENDBRANCH  15  17
ENDBRANCH   7  15
ENDBRANCH   1   9
BRANCH   3  18
ATOM     18  O   UNL     1       0.578   0.642   0.953  0.00  0.00    -0.502 OA
ATOM     19  H   UNL     1       0.888  -0.209   1.378  0.00  0.00    +0.292 HD
ENDBRANCH   3  18
BRANCH   2  20
ATOM     20  C   UNL     1       0.384   3.387  -0.272  0.00  0.00    +0.195 C 
ATOM     21  O   UNL     1       0.453   4.544  -0.645  0.00  0.00    -0.287 OA
BRANCH  20  22
ATOM     22  C   UNL     1      -0.904   2.669  -0.332  0.00  0.00    +0.025 A 
ATOM     23  C   UNL     1      -1.907   2.949   0.602  0.00  0.00    +0.015 A 
ATOM     24  C   UNL     1      -3.109   2.281   0.540  0.00  0.00    +0.046 A 
ATOM     25  C   UNL     1      -3.322   1.320  -0.443  0.00  0.00    +0.121 A 
ATOM     26  C   UNL     1      -2.326   1.035  -1.370  0.00  0.00    +0.049 A 
ATOM     27  C   UNL     1      -1.123   1.702  -1.318  0.00  0.00    -0.036 A 
ATOM     28  C   UNL     1      -0.044   1.392  -2.323  0.00  0.00    +0.044 C 
BRANCH  25  29
ATOM     29  O   UNL     1      -4.506   0.659  -0.497  0.00  0.00    -0.492 OA
BRANCH  29  30
ATOM     30  C   UNL     1      -5.526   1.080   0.411  0.00  0.00    +0.232 C 
BRANCH  30  31
ATOM     31  C   UNL     1      -6.769   0.208   0.222  0.00  0.00    +0.020 C 
ATOM     32  C   UNL     1      -7.814   0.573   1.278  0.00  0.00    +0.010 C 
ATOM     33  C   UNL     1      -7.350   0.443  -1.174  0.00  0.00    +0.010 C 
ENDBRANCH  30  31
ENDBRANCH  29  30
ENDBRANCH  25  29
ENDBRANCH  20  22
ENDBRANCH   2  20
BRANCH   6  34
ATOM     34  C   UNL     1       5.273   2.281   1.068  0.00  0.00    +0.090 C 
BRANCH  34  35
ATOM     35  C   UNL     1       6.004   1.745  -0.164  0.00  0.00    -0.060 C 
BRANCH  35  38
ATOM     36  C   UNL     1       7.871   0.911   1.133  0.00  0.00    -0.097 C 
ATOM     37  C   UNL     1       8.191   1.539  -1.183  0.00  0.00    -0.097 C 
ATOM     38  N   UNL     1       7.461   1.847   0.065  0.00  0.00    +0.377 N 
ATOM     39  H   UNL     1       7.687   2.805   0.356  0.00  0.00    -0.083 HD
ENDBRANCH  35  38
ENDBRANCH  34  35
ENDBRANCH   6  34
TORSDOF 13
