REMARK  Name = ZINC36545434
REMARK  8 active torsions:
REMARK  status: ('A' for Active; 'I' for Inactive)
REMARK    1  A    between atoms: C_5  and  N_7
REMARK    2  A    between atoms: N_7  and  C_8
REMARK    3  A    between atoms: C_8  and  C_10
REMARK    4  A    between atoms: C_8  and  C_15
REMARK    5  A    between atoms: N_17  and  C_18
REMARK    6  A    between atoms: C_24  and  C_26
REMARK    7  A    between atoms: C_30  and  O_33
REMARK    8  A    between atoms: C_31  and  O_32
REMARK                            x       y       z     vdW  Elec       q    Type
REMARK                         _______ _______ _______ _____ _____    ______ ____
ROOT
ATOM      1  N   UNL     1       0.987  -2.127   0.005  0.00  0.00    -0.247 N 
ATOM      2  C   UNL     1       1.361  -2.759   1.135  0.00  0.00    +0.256 C 
ATOM      3  O   UNL     1       1.698  -3.927   1.096  0.00  0.00    -0.269 OA
ENDROOT
BRANCH   1   8
ATOM      4  C   UNL     1      -0.873   1.036   0.239  0.00  0.00    +0.002 A 
ATOM      5  C   UNL     1       0.149   1.954   0.077  0.00  0.00    +0.002 A 
ATOM      6  C   UNL     1       1.449   1.520  -0.109  0.00  0.00    +0.022 A 
ATOM      7  C   UNL     1       1.731   0.167  -0.134  0.00  0.00    +0.062 A 
ATOM      8  C   UNL     1       0.706  -0.757   0.029  0.00  0.00    +0.056 A 
ATOM      9  C   UNL     1      -0.598  -0.317   0.216  0.00  0.00    +0.025 A 
ATOM     10 CL   UNL     1       3.362  -0.377  -0.368  0.00  0.00    -0.082 Cl
ENDBRANCH   1   8
BRANCH   2  11
ATOM     11  C   UNL     1       1.363  -2.033   2.420  0.00  0.00    +0.082 A 
ATOM     12  C   UNL     1       0.221  -1.346   2.840  0.00  0.00    +0.017 A 
ATOM     13  C   UNL     1       0.226  -0.669   4.040  0.00  0.00    +0.005 A 
ATOM     14  C   UNL     1       1.360  -0.666   4.836  0.00  0.00    +0.049 A 
ATOM     15  C   UNL     1       2.499  -1.342   4.434  0.00  0.00    +0.159 A 
ATOM     16  C   UNL     1       2.507  -2.034   3.227  0.00  0.00    +0.171 A 
BRANCH  16  17
ATOM     17  O   UNL     1       3.620  -2.703   2.831  0.00  0.00    -0.503 OA
ATOM     18  H   UNL     1       4.233  -2.171   2.306  0.00  0.00    +0.292 HD
ENDBRANCH  16  17
BRANCH  15  19
ATOM     19  O   UNL     1       3.608  -1.333   5.221  0.00  0.00    -0.503 OA
ATOM     20  H   UNL     1       3.643  -2.058   5.860  0.00  0.00    +0.292 HD
ENDBRANCH  15  19
ENDBRANCH   2  11
BRANCH   1  21
ATOM     21  C   UNL     1       0.874  -2.876  -1.249  0.00  0.00    +0.233 C 
BRANCH  21  22
ATOM     22  C   UNL     1       1.817  -2.292  -2.269  0.00  0.00    +0.135 A 
ATOM     23  C   UNL     1       2.557  -2.992  -3.148  0.00  0.00    +0.047 A 
ATOM     24  C   UNL     1       3.290  -2.052  -3.908  0.00  0.00    +0.041 A 
ATOM     25  C   UNL     1       2.955  -0.833  -3.447  0.00  0.00    +0.195 A 
ATOM     26  O   UNL     1       2.059  -0.985  -2.458  0.00  0.00    -0.465 OA
ENDBRANCH  21  22
BRANCH  21  27
ATOM     27  C   UNL     1      -0.540  -2.785  -1.763  0.00  0.00    +0.242 C 
ATOM     28  O   UNL     1      -1.371  -2.156  -1.143  0.00  0.00    -0.273 OA
ATOM     29  N   UNL     1      -0.880  -3.401  -2.912  0.00  0.00    -0.311 N 
ATOM     30  H   UNL     1      -0.215  -3.904  -3.408  0.00  0.00    +0.149 HD
BRANCH  29  31
ATOM     31  C   UNL     1      -2.255  -3.313  -3.412  0.00  0.00    +0.073 C 
ATOM     32  C   UNL     1      -3.109  -4.396  -2.749  0.00  0.00    +0.022 C 
ATOM     33  C   UNL     1      -4.544  -4.303  -3.270  0.00  0.00    +0.002 C 
ATOM     34  C   UNL     1      -4.550  -4.506  -4.787  0.00  0.00    +0.000 C 
ATOM     35  C   UNL     1      -3.696  -3.424  -5.450  0.00  0.00    +0.002 C 
ATOM     36  C   UNL     1      -2.260  -3.516  -4.928  0.00  0.00    +0.022 C 
ENDBRANCH  29  31
ENDBRANCH  21  27
ENDBRANCH   1  21
TORSDOF 8
