REMARK  Name = ZINC32123981
REMARK  9 active torsions:
REMARK  status: ('A' for Active; 'I' for Inactive)
REMARK    1  A    between atoms: C_1  and  C_2
REMARK    2  A    between atoms: C_3  and  C_29
REMARK    3  A    between atoms: C_4  and  C_28
REMARK    4  A    between atoms: C_8  and  N_12
REMARK    5  A    between atoms: N_12  and  C_13
REMARK    6  A    between atoms: C_22  and  O_26
REMARK    7  A    between atoms: C_23  and  O_24
REMARK    8  A    between atoms: O_24  and  C_25
REMARK    9  A    between atoms: O_26  and  C_27
REMARK                            x       y       z     vdW  Elec       q    Type
REMARK                         _______ _______ _______ _____ _____    ______ ____
ROOT
ATOM      1  C   UNL     1      -0.050   1.611  -0.159  0.00  0.00    +0.011 C 
ATOM      2  C   UNL     1      -0.030   0.084  -0.057  0.00  0.00    -0.027 C 
ATOM      3  C   UNL     1       0.722  -0.513  -1.253  0.00  0.00    +0.030 C 
ATOM      4  C   UNL     1       0.719  -2.041  -1.114  0.00  0.00    -0.027 C 
ATOM      5  C   UNL     1       1.390  -2.415   0.212  0.00  0.00    -0.066 C 
ATOM      6  N   UNL     1       0.642  -1.824   1.327  0.00  0.00    +0.399 N 
ATOM      7  C   UNL     1       0.677  -0.346   1.233  0.00  0.00    -0.066 C 
ATOM      8  C   UNL     1      -0.740  -2.310   1.326  0.00  0.00    +0.073 C 
ATOM      9  N   UNL     1      -1.411  -1.926   0.076  0.00  0.00    -0.301 NA
ATOM     10  C   UNL     1      -0.735  -2.529  -1.082  0.00  0.00    +0.089 C 
ATOM     11  C   UNL     1      -1.463  -0.461  -0.038  0.00  0.00    +0.089 C 
ATOM     12  C   UNL     1       1.460  -2.677  -2.291  0.00  0.00    +0.011 C 
ATOM     13  H   UNL     1       1.075  -2.103   2.194  0.00  0.00    -0.077 HD
ENDROOT
BRANCH   3  14
ATOM     14  C   UNL     1       2.142  -0.008  -1.264  0.00  0.00    -0.040 A 
ATOM     15  C   UNL     1       2.613   0.704  -2.352  0.00  0.00    +0.053 A 
ATOM     16  C   UNL     1       3.917   1.169  -2.364  0.00  0.00    +0.166 A 
ATOM     17  C   UNL     1       4.753   0.918  -1.278  0.00  0.00    +0.166 A 
ATOM     18  C   UNL     1       4.274   0.204  -0.192  0.00  0.00    +0.050 A 
ATOM     19  C   UNL     1       2.969  -0.252  -0.184  0.00  0.00    +0.008 A 
ATOM     20  O   UNL     1       5.974   1.474  -1.529  0.00  0.00    -0.453 OA
ATOM     21  C   UNL     1       6.003   1.712  -2.949  0.00  0.00    +0.466 C 
ATOM     22  O   UNL     1       4.616   1.882  -3.296  0.00  0.00    -0.453 OA
ENDBRANCH   3  14
BRANCH   8  23
ATOM     23  N   UNL     1      -0.742  -3.774   1.449  0.00  0.00    -0.278 NA
ATOM     24  H   UNL     1      -0.409  -4.208   0.601  0.00  0.00    +0.125 HD
BRANCH  23  25
ATOM     25  C   UNL     1      -2.077  -4.271   1.807  0.00  0.00    +0.278 C 
ATOM     26  O   UNL     1      -2.158  -4.482   3.219  0.00  0.00    -0.438 OA
ATOM     27  C   UNL     1      -2.420  -5.777   3.464  0.00  0.00    +0.345 C 
ATOM     28  O   UNL     1      -2.548  -6.265   4.569  0.00  0.00    -0.245 OA
ATOM     29  C   UNL     1      -2.531  -6.518   2.198  0.00  0.00    +0.112 A 
ATOM     30  C   UNL     1      -2.323  -5.607   1.153  0.00  0.00    +0.025 A 
ATOM     31  C   UNL     1      -2.370  -6.025  -0.154  0.00  0.00    +0.013 A 
ATOM     32  C   UNL     1      -2.625  -7.356  -0.451  0.00  0.00    +0.050 A 
ATOM     33  C   UNL     1      -2.834  -8.271   0.567  0.00  0.00    +0.162 A 
ATOM     34  C   UNL     1      -2.787  -7.860   1.899  0.00  0.00    +0.176 A 
BRANCH  34  35
ATOM     35  O   UNL     1      -2.991  -8.755   2.899  0.00  0.00    -0.491 OA
ATOM     36  C   UNL     1      -4.338  -8.937   3.342  0.00  0.00    +0.277 C 
ENDBRANCH  34  35
BRANCH  33  37
ATOM     37  O   UNL     1      -3.083  -9.574   0.268  0.00  0.00    -0.491 OA
ATOM     38  C   UNL     1      -3.116  -9.927  -1.117  0.00  0.00    +0.277 C 
ENDBRANCH  33  37
ENDBRANCH  23  25
ENDBRANCH   8  23
TORSDOF 5
