REMARK  Name = ZINC30742674
REMARK  9 active torsions:
REMARK  status: ('A' for Active; 'I' for Inactive)
REMARK    1  A    between atoms: C_1  and  C_2
REMARK    2  A    between atoms: C_5  and  S_8
REMARK    3  A    between atoms: S_8  and  N_11
REMARK    4  A    between atoms: N_14  and  C_17
REMARK    5  A    between atoms: C_17  and  C_18
REMARK    6  A    between atoms: N_20  and  N_21
REMARK    7  A    between atoms: C_22  and  C_23
REMARK    8  A    between atoms: C_26  and  O_30
REMARK    9  A    between atoms: O_30  and  C_31
REMARK                            x       y       z     vdW  Elec       q    Type
REMARK                         _______ _______ _______ _____ _____    ______ ____
ROOT
ATOM      1  N   UNL     1      -4.751  -3.493   2.984  0.00  0.00    -0.180 NA
ATOM      2  C   UNL     1      -3.993  -4.348   2.058  0.00  0.00    +0.091 C 
ATOM      3  C   UNL     1      -2.539  -3.864   2.027  0.00  0.00    -0.061 C 
ATOM      4  N   UNL     1      -2.511  -2.429   1.713  0.00  0.00    +0.387 N 
ATOM      5  C   UNL     1      -3.181  -1.642   2.756  0.00  0.00    -0.061 C 
ATOM      6  C   UNL     1      -4.661  -2.035   2.817  0.00  0.00    +0.091 C 
ATOM      7  H   UNL     1      -3.065  -2.281   0.775  0.00  0.00    -0.081 HD
ENDROOT
BRANCH   1   8
ATOM      8  S   UNL     1      -5.680  -4.155   4.184  0.00  0.00    +0.061 S 
ATOM      9  O   UNL     1      -6.669  -3.189   4.512  0.00  0.00    -0.153 OA
ATOM     10  O   UNL     1      -6.010  -5.472   3.763  0.00  0.00    -0.153 OA
BRANCH   8  15
ATOM     11  C   UNL     1      -2.161  -4.735   9.051  0.00  0.00    +0.044 C 
ATOM     12  C   UNL     1      -3.040  -4.590   7.836  0.00  0.00    -0.050 A 
ATOM     13  C   UNL     1      -3.759  -3.427   7.638  0.00  0.00    +0.005 A 
ATOM     14  C   UNL     1      -4.566  -3.294   6.523  0.00  0.00    +0.029 A 
ATOM     15  C   UNL     1      -4.652  -4.324   5.606  0.00  0.00    +0.105 A 
ATOM     16  C   UNL     1      -3.936  -5.490   5.806  0.00  0.00    +0.029 A 
ATOM     17  C   UNL     1      -3.127  -5.621   6.919  0.00  0.00    +0.005 A 
ENDBRANCH   8  15
ENDBRANCH   1   8
BRANCH   4  18
ATOM     18  C   UNL     1      -1.133  -1.964   1.505  0.00  0.00    +0.020 C 
BRANCH  18  19
ATOM     19  C   UNL     1      -1.155  -0.563   0.949  0.00  0.00    +0.216 C 
ATOM     20  O   UNL     1      -2.214  -0.008   0.746  0.00  0.00    -0.276 OA
ATOM     21  N   UNL     1       0.002   0.072   0.677  0.00  0.00    -0.209 N 
ATOM     22  H   UNL     1       0.963  -0.431   0.862  0.00  0.00    +0.177 HD
BRANCH  21  23
ATOM     23  N   UNL     1      -0.018   1.374   0.161  0.00  0.00    -0.188 NA
ATOM     24  C   UNL     1       1.088   1.942  -0.212  0.00  0.00    +0.138 C 
BRANCH  24  25
ATOM     25  C   UNL     1       2.263   1.117  -0.548  0.00  0.00    -0.004 A 
ATOM     26  C   UNL     1       2.121  -0.260  -0.740  0.00  0.00    +0.013 A 
ATOM     27  C   UNL     1       3.220  -1.026  -1.059  0.00  0.00    +0.047 A 
ATOM     28  C   UNL     1       4.471  -0.434  -1.180  0.00  0.00    +0.134 A 
ATOM     29  C   UNL     1       4.618   0.934  -0.985  0.00  0.00    +0.060 A 
ATOM     30  C   UNL     1       3.522   1.709  -0.671  0.00  0.00    +0.028 A 
ATOM     31 BR   UNL     1       6.324   1.733  -1.151  0.00  0.00    -0.046 Br
BRANCH  28  32
ATOM     32  O   UNL     1       5.553  -1.195  -1.490  0.00  0.00    -0.494 OA
ATOM     33  C   UNL     1       5.331  -2.594  -1.677  0.00  0.00    +0.277 C 
ENDBRANCH  28  32
ENDBRANCH  24  25
ENDBRANCH  21  23
ENDBRANCH  18  19
ENDBRANCH   4  18
TORSDOF 7
