REMARK  Name = ZINC13126696
REMARK  6 active torsions:
REMARK  status: ('A' for Active; 'I' for Inactive)
REMARK    1  A    between atoms: C_1  and  C_2
REMARK    2  A    between atoms: C_3  and  C_22
REMARK    3  A    between atoms: C_5  and  N_9
REMARK    4  A    between atoms: C_6  and  C_7
REMARK    5  A    between atoms: C_10  and  C_11
REMARK    6  A    between atoms: C_20  and  O_21
REMARK                            x       y       z     vdW  Elec       q    Type
REMARK                         _______ _______ _______ _____ _____    ______ ____
ROOT
ATOM      1  C   UNL     1       0.089  -5.286   2.925  0.00  0.00    +0.042 A 
ATOM      2  C   UNL     1       0.114  -6.721   2.633  0.00  0.00    -0.006 A 
ATOM      3  C   UNL     1       0.121  -7.197   1.318  0.00  0.00    +0.009 A 
ATOM      4  C   UNL     1       0.145  -8.541   1.088  0.00  0.00    +0.001 A 
ATOM      5  C   UNL     1       0.163  -9.447   2.146  0.00  0.00    +0.001 A 
ATOM      6  C   UNL     1       0.156  -9.016   3.438  0.00  0.00    +0.008 A 
ATOM      7  C   UNL     1       0.132  -7.638   3.711  0.00  0.00    -0.017 A 
ATOM      8  C   UNL     1       0.126  -7.157   5.033  0.00  0.00    +0.012 A 
ATOM      9  C   UNL     1       0.104  -5.822   5.289  0.00  0.00    +0.046 A 
ATOM     10  C   UNL     1       0.090  -4.877   4.263  0.00  0.00    +0.126 A 
ENDROOT
BRANCH   1  12
ATOM     11  N   UNL     1       0.054  -3.022   2.122  0.00  0.00    -0.246 NA
ATOM     12  C   UNL     1       0.070  -4.303   1.843  0.00  0.00    +0.124 C 
BRANCH  11  17
ATOM     13  C   UNL     1      -0.018   1.503   0.010  0.00  0.00    +0.046 C 
ATOM     14  C   UNL     1       0.002  -0.004   0.002  0.00  0.00    -0.021 A 
ATOM     15  C   UNL     1       0.005  -0.679  -1.167  0.00  0.00    -0.007 A 
ATOM     16  S   UNL     1       0.031  -2.383  -0.641  0.00  0.00    -0.073 S 
ATOM     17  C   UNL     1       0.036  -2.115   1.123  0.00  0.00    +0.119 A 
ATOM     18  C   UNL     1       0.024  -0.714   1.201  0.00  0.00    +0.087 A 
ATOM     19  C   UNL     1      -0.010  -0.128  -2.570  0.00  0.00    +0.052 C 
BRANCH  18  20
ATOM     20  C   UNL     1       0.027  -0.039   2.464  0.00  0.00    +0.102 C 
ATOM     21  N   UNL     1       0.030   0.496   3.466  0.00  0.00    -0.191 NA
ENDBRANCH  18  20
ENDBRANCH  11  17
ENDBRANCH   1  12
BRANCH  10  22
ATOM     22  O   UNL     1       0.072  -3.555   4.565  0.00  0.00    -0.506 OA
ATOM     23  H   UNL     1      -0.816  -3.184   4.657  0.00  0.00    +0.292 HD
ENDBRANCH  10  22
TORSDOF 4
