REMARK  Name = ZINC09468761
REMARK  3 active torsions:
REMARK  status: ('A' for Active; 'I' for Inactive)
REMARK    1  A    between atoms: C_9  and  C_13
REMARK    2  A    between atoms: N_18  and  S_19
REMARK    3  A    between atoms: S_19  and  C_22
REMARK                            x       y       z     vdW  Elec       q    Type
REMARK                         _______ _______ _______ _____ _____    ______ ____
ROOT
ATOM      1  C   UNL     1       0.036  -4.290  -0.021  0.00  0.00    +0.087 A 
ATOM      2  C   UNL     1      -1.159  -4.956  -0.013  0.00  0.00    +0.077 A 
ATOM      3  S   UNL     1      -0.596  -6.653  -0.027  0.00  0.00    -0.059 S 
ATOM      4  C   UNL     1       1.158  -6.309  -0.042  0.00  0.00    +0.178 A 
ATOM      5  N   UNL     1       1.169  -4.989  -0.041  0.00  0.00    -0.223 NA
ATOM      6  N   UNL     1       2.224  -7.193  -0.057  0.00  0.00    -0.194 N 
ATOM      7  H   UNL     1       3.134  -6.857  -0.064  0.00  0.00    +0.176 HD
ENDROOT
BRANCH   1  16
ATOM      8  C   UNL     1       1.167   2.093   0.002  0.00  0.00    +0.019 A 
ATOM      9  C   UNL     1      -0.017   1.385   0.010  0.00  0.00    +0.048 A 
ATOM     10  C   UNL     1       0.002  -0.004   0.002  0.00  0.00    +0.139 A 
ATOM     11  C   UNL     1       1.236  -0.677  -0.013  0.00  0.00    +0.019 A 
ATOM     12  C   UNL     1       2.430   0.055  -0.021  0.00  0.00    +0.026 A 
ATOM     13  C   UNL     1       2.387   1.431  -0.014  0.00  0.00    +0.019 A 
ATOM     14 BR   UNL     1       3.996   2.424  -0.025  0.00  0.00    -0.050 Br
ATOM     15  C   UNL     1       1.262  -2.140  -0.021  0.00  0.00    +0.028 A 
ATOM     16  C   UNL     1       0.068  -2.810  -0.014  0.00  0.00    +0.086 A 
ATOM     17  C   UNL     1      -1.179  -2.038   0.002  0.00  0.00    +0.347 A 
ATOM     18  O   UNL     1      -2.247  -2.622   0.009  0.00  0.00    -0.244 OA
ATOM     19  O   UNL     1      -1.157  -0.697   0.009  0.00  0.00    -0.422 OA
ENDBRANCH   1  16
BRANCH   6  20
ATOM     20  S   UNL     1       1.945  -8.826  -0.062  0.00  0.00    +0.075 S 
ATOM     21  O   UNL     1       3.218  -9.455  -0.105  0.00  0.00    -0.150 OA
ATOM     22  O   UNL     1       1.004  -9.081   0.971  0.00  0.00    -0.150 OA
BRANCH  20  23
ATOM     23  C   UNL     1       1.141  -9.211  -1.582  0.00  0.00    +0.127 A 
ATOM     24  C   UNL     1       1.885  -9.545  -2.705  0.00  0.00    +0.033 A 
ATOM     25  C   UNL     1       1.211  -9.841  -3.879  0.00  0.00    +0.042 A 
ATOM     26  C   UNL     1      -0.172  -9.795  -3.892  0.00  0.00    +0.129 A 
ATOM     27  N   UNL     1      -0.846  -9.474  -2.804  0.00  0.00    -0.242 NA
ATOM     28  C   UNL     1      -0.237  -9.191  -1.669  0.00  0.00    +0.141 A 
ATOM     29 CL   UNL     1      -1.029 -10.165  -5.356  0.00  0.00    -0.062 Cl
ENDBRANCH  20  23
ENDBRANCH   6  20
TORSDOF 3
