REMARK  Name = ZINC09671829
REMARK  7 active torsions:
REMARK  status: ('A' for Active; 'I' for Inactive)
REMARK    1  A    between atoms: C_10  and  N_12
REMARK    2  A    between atoms: C_13  and  C_15
REMARK    3  A    between atoms: C_15  and  O_16
REMARK    4  A    between atoms: O_16  and  C_17
REMARK    5  A    between atoms: C_17  and  C_19
REMARK    6  A    between atoms: N_22  and  C_25
REMARK    7  A    between atoms: C_28  and  C_30
REMARK                            x       y       z     vdW  Elec       q    Type
REMARK                         _______ _______ _______ _____ _____    ______ ____
ROOT
ATOM      1  C   UNL     1      -5.113   5.326   7.406  0.00  0.00    +0.311 C 
ATOM      2  O   UNL     1      -5.966   4.584   7.830  0.00  0.00    -0.251 OA
ENDROOT
BRANCH   1   3
ATOM      3  C   UNL     1      -4.410   5.005   6.112  0.00  0.00    +0.101 C 
ATOM      4  C   UNL     1      -4.959   3.695   5.543  0.00  0.00    +0.033 C 
ATOM      5  C   UNL     1      -4.200   3.343   4.262  0.00  0.00    +0.107 C 
ATOM      6  N   UNL     1      -2.769   3.205   4.561  0.00  0.00    -0.317 N 
ATOM      7  C   UNL     1      -2.208   4.465   5.066  0.00  0.00    +0.107 C 
ATOM      8  C   UNL     1      -2.908   4.850   6.371  0.00  0.00    +0.033 C 
BRANCH   6   9
ATOM      9  C   UNL     1      -2.068   2.757   3.448  0.00  0.00    +0.099 A 
ATOM     10  C   UNL     1      -0.692   2.563   3.532  0.00  0.00    +0.042 A 
ATOM     11  C   UNL     1      -0.007   2.118   2.416  0.00  0.00    +0.017 A 
ATOM     12  C   UNL     1      -0.722   1.881   1.250  0.00  0.00    +0.071 A 
ATOM     13  C   UNL     1      -2.085   2.100   1.236  0.00  0.00    +0.096 A 
ATOM     14  N   UNL     1      -2.792   2.532   2.314  0.00  0.00    -0.349 N 
ATOM     15  H   UNL     1      -3.808   2.679   2.277  0.00  0.00    +0.167 HD
BRANCH  12  16
ATOM     16  C   UNL     1      -0.017   1.395   0.010  0.00  0.00    +0.419 C 
ATOM     17  F   UNL     1       0.002  -0.004   0.002  0.00  0.00    -0.166 F 
ATOM     18  F   UNL     1       1.296   1.879  -0.000  0.00  0.00    -0.166 F 
ATOM     19  F   UNL     1      -0.694   1.858  -1.124  0.00  0.00    -0.166 F 
ENDBRANCH  12  16
ENDBRANCH   6   9
ENDBRANCH   1   3
BRANCH   1  20
ATOM     20  O   UNL     1      -4.790   6.437   8.088  0.00  0.00    -0.455 OA
BRANCH  20  21
ATOM     21  C   UNL     1      -5.508   6.683   9.325  0.00  0.00    +0.327 C 
BRANCH  21  23
ATOM     22  N   UNL     1      -5.543   8.396  11.109  0.00  0.00    -0.306 N 
ATOM     23  C   UNL     1      -5.016   7.965   9.946  0.00  0.00    +0.251 C 
ATOM     24  O   UNL     1      -4.146   8.608   9.399  0.00  0.00    -0.272 OA
ATOM     25  H   UNL     1      -6.239   7.881  11.547  0.00  0.00    +0.149 HD
BRANCH  22  35
ATOM     26  C   UNL     1      -7.154  12.891   9.876  0.00  0.00    +0.000 A 
ATOM     27  C   UNL     1      -6.696  11.827   9.121  0.00  0.00    +0.000 A 
ATOM     28  C   UNL     1      -6.026  10.790   9.736  0.00  0.00    +0.006 A 
ATOM     29  C   UNL     1      -5.808  10.804  11.107  0.00  0.00    -0.024 A 
ATOM     30  C   UNL     1      -6.269  11.862  11.860  0.00  0.00    -0.042 A 
ATOM     31  C   UNL     1      -6.941  12.907  11.238  0.00  0.00    +0.004 A 
ATOM     32  C   UNL     1      -6.082  11.937  13.352  0.00  0.00    +0.035 C 
ATOM     33  C   UNL     1      -4.986  10.975  13.805  0.00  0.00    +0.007 C 
ATOM     34  C   UNL     1      -5.287   9.589  13.222  0.00  0.00    +0.027 C 
ATOM     35  C   UNL     1      -5.065   9.643  11.712  0.00  0.00    +0.104 C 
ENDBRANCH  22  35
ENDBRANCH  21  23
ENDBRANCH  20  21
ENDBRANCH   1  20
TORSDOF 7
