REMARK  Name = ZINC63373253
REMARK  10 active torsions:
REMARK  status: ('A' for Active; 'I' for Inactive)
REMARK    1  A    between atoms: C_1  and  C_2
REMARK    2  A    between atoms: C_2  and  C_3
REMARK    3  A    between atoms: C_3  and  O_4
REMARK    4  A    between atoms: O_4  and  C_5
REMARK    5  A    between atoms: C_8  and  C_14
REMARK    6  A    between atoms: C_10  and  O_11
REMARK    7  A    between atoms: O_11  and  C_12
REMARK    8  A    between atoms: C_12  and  C_13
REMARK    9  A    between atoms: N_20  and  C_35
REMARK   10  A    between atoms: C_23  and  C_34
REMARK                            x       y       z     vdW  Elec       q    Type
REMARK                         _______ _______ _______ _____ _____    ______ ____
ROOT
ATOM      1  C   UNL     1      -6.238  -4.349  -0.095  0.00  0.00    +0.065 C 
ATOM      2  C   UNL     1      -6.985  -4.141   1.238  0.00  0.00    +0.123 C 
ATOM      3  N   UNL     1      -8.320  -3.623   0.930  0.00  0.00    -0.268 N 
ATOM      4  C   UNL     1      -9.508  -4.143   1.272  0.00  0.00    +0.317 C 
ATOM      5  O   UNL     1      -9.644  -5.072   2.044  0.00  0.00    -0.252 OA
ATOM      6  N   UNL     1     -10.527  -3.521   0.664  0.00  0.00    -0.192 N 
ATOM      7  C   UNL     1     -10.101  -2.475  -0.075  0.00  0.00    +0.253 C 
ATOM      8  O   UNL     1     -10.777  -1.741  -0.764  0.00  0.00    -0.272 OA
ATOM      9  C   UNL     1      -8.605  -2.410   0.135  0.00  0.00    +0.137 C 
ATOM     10  C   UNL     1      -7.865  -2.540  -1.195  0.00  0.00    +0.139 C 
ATOM     11  C   UNL     1      -7.164  -3.894  -1.195  0.00  0.00    -0.027 C 
ATOM     12  C   UNL     1      -7.559  -4.517  -2.302  0.00  0.00    -0.000 A 
ATOM     13  C   UNL     1      -7.162  -5.806  -2.892  0.00  0.00    +0.010 A 
ATOM     14  C   UNL     1      -7.790  -6.155  -4.045  0.00  0.00    +0.001 A 
ATOM     15  C   UNL     1      -8.762  -5.362  -4.662  0.00  0.00    +0.002 A 
ATOM     16  C   UNL     1      -9.182  -4.159  -4.194  0.00  0.00    +0.026 A 
ATOM     17  C   UNL     1      -8.587  -3.680  -2.991  0.00  0.00    +0.043 A 
ATOM     18  N   UNL     1      -8.781  -2.552  -2.337  0.00  0.00    -0.375 N 
ATOM     19  C   UNL     1      -8.204  -1.141   0.889  0.00  0.00    +0.044 C 
ATOM     20  H   UNL     1      -9.414  -1.853  -2.564  0.00  0.00    +0.160 HD
ENDROOT
BRANCH   6  21
ATOM     21  C   UNL     1     -11.869  -3.908   0.782  0.00  0.00    +0.048 A 
ATOM     22  C   UNL     1     -12.225  -4.923   1.659  0.00  0.00    +0.024 A 
ATOM     23  C   UNL     1     -13.548  -5.304   1.775  0.00  0.00    +0.005 A 
ATOM     24  C   UNL     1     -14.519  -4.674   1.018  0.00  0.00    +0.038 A 
ATOM     25  C   UNL     1     -14.168  -3.661   0.141  0.00  0.00    +0.125 A 
ATOM     26  C   UNL     1     -12.845  -3.273   0.027  0.00  0.00    +0.062 A 
ATOM     27  F   UNL     1     -15.118  -3.048  -0.598  0.00  0.00    -0.205 F 
ENDBRANCH   6  21
BRANCH   1  31
ATOM     28  C   UNL     1      -2.660  -2.006  -0.141  0.00  0.00    +0.162 A 
ATOM     29  C   UNL     1      -3.898  -1.384  -0.100  0.00  0.00    +0.050 A 
ATOM     30  C   UNL     1      -5.053  -2.145  -0.086  0.00  0.00    +0.008 A 
ATOM     31  C   UNL     1      -4.976  -3.525  -0.112  0.00  0.00    -0.035 A 
ATOM     32  C   UNL     1      -3.744  -4.151  -0.152  0.00  0.00    +0.053 A 
ATOM     33  C   UNL     1      -2.583  -3.394  -0.173  0.00  0.00    +0.162 A 
BRANCH  28  34
ATOM     34  O   UNL     1      -1.524  -1.259  -0.156  0.00  0.00    -0.488 OA
BRANCH  34  35
ATOM     35  C   UNL     1      -1.679   0.161  -0.122  0.00  0.00    +0.229 C 
BRANCH  35  37
ATOM     36  C   UNL     1      -0.469   2.346  -0.108  0.00  0.00    +0.007 C 
ATOM     37  C   UNL     1      -0.302   0.826  -0.145  0.00  0.00    +0.038 C 
ENDBRANCH  35  37
ENDBRANCH  34  35
ENDBRANCH  28  34
BRANCH  33  38
ATOM     38  O   UNL     1      -1.370  -4.008  -0.219  0.00  0.00    -0.489 OA
BRANCH  38  39
ATOM     39  C   UNL     1      -1.367  -5.437  -0.249  0.00  0.00    +0.226 C 
ATOM     40  C   UNL     1       0.076  -5.943  -0.299  0.00  0.00    +0.048 C 
ENDBRANCH  38  39
ENDBRANCH  33  38
ENDBRANCH   1  31
TORSDOF 7
