REMARK  Name = ZINC35857041
REMARK  13 active torsions:
REMARK  status: ('A' for Active; 'I' for Inactive)
REMARK    1  A    between atoms: C_1  and  C_2
REMARK    2  A    between atoms: C_2  and  C_3
REMARK    3  A    between atoms: C_3  and  C_5
REMARK    4  A    between atoms: C_3  and  O_15
REMARK    5  A    between atoms: N_7  and  C_8
REMARK    6  A    between atoms: C_8  and  C_9
REMARK    7  A    between atoms: C_9  and  N_10
REMARK    8  A    between atoms: O_15  and  C_16
REMARK    9  A    between atoms: C_22  and  C_33
REMARK   10  A    between atoms: C_27  and  C_29
REMARK   11  A    between atoms: C_29  and  C_30
REMARK   12  A    between atoms: C_29  and  C_31
REMARK   13  A    between atoms: C_29  and  C_32
REMARK                            x       y       z     vdW  Elec       q    Type
REMARK                         _______ _______ _______ _____ _____    ______ ____
ROOT
ATOM      1  C   UNL     1       2.364   1.155  -1.657  0.00  0.00    +0.122 A 
ATOM      2  C   UNL     1       1.353   1.981  -2.126  0.00  0.00    +0.046 A 
ATOM      3  C   UNL     1       1.660   3.239  -2.596  0.00  0.00    +0.007 A 
ATOM      4  C   UNL     1       2.974   3.692  -2.603  0.00  0.00    -0.040 A 
ATOM      5  C   UNL     1       3.977   2.877  -2.129  0.00  0.00    -0.016 A 
ATOM      6  C   UNL     1       3.672   1.608  -1.656  0.00  0.00    +0.051 A 
ATOM      7  C   UNL     1       5.419   3.316  -2.081  0.00  0.00    +0.137 C 
ATOM      8  N   UNL     1       5.584   4.555  -2.848  0.00  0.00    -0.290 N 
ATOM      9  C   UNL     1       4.575   5.609  -2.654  0.00  0.00    +0.113 C 
ATOM     10  C   UNL     1       3.233   5.073  -3.147  0.00  0.00    +0.054 C 
ATOM     11  C   UNL     1       6.617   4.721  -3.698  0.00  0.00    +0.222 C 
ATOM     12  O   UNL     1       7.480   3.873  -3.777  0.00  0.00    -0.275 OA
ENDROOT
BRANCH   7  13
ATOM     13  C   UNL     1       5.823   3.556  -0.649  0.00  0.00    -0.020 A 
ATOM     14  C   UNL     1       6.926   2.908  -0.124  0.00  0.00    +0.006 A 
ATOM     15  C   UNL     1       7.297   3.128   1.190  0.00  0.00    +0.003 A 
ATOM     16  C   UNL     1       6.566   3.995   1.979  0.00  0.00    +0.038 A 
ATOM     17  C   UNL     1       5.462   4.644   1.454  0.00  0.00    +0.124 A 
ATOM     18  C   UNL     1       5.094   4.428   0.137  0.00  0.00    +0.044 A 
ATOM     19  F   UNL     1       4.746   5.492   2.226  0.00  0.00    -0.205 F 
ENDBRANCH   7  13
BRANCH  11  20
ATOM     20  C   UNL     1       6.700   5.962  -4.549  0.00  0.00    +0.039 C 
ATOM     21  C   UNL     1       7.883   5.841  -5.512  0.00  0.00    +0.020 C 
ATOM     22  C   UNL     1       5.405   6.120  -5.348  0.00  0.00    +0.020 C 
ATOM     23  C   UNL     1       6.897   7.185  -3.650  0.00  0.00    +0.020 C 
ENDBRANCH  11  20
BRANCH   1  24
ATOM     24  O   UNL     1       2.071  -0.090  -1.196  0.00  0.00    -0.480 OA
BRANCH  24  25
ATOM     25  C   UNL     1       3.146  -0.839  -0.624  0.00  0.00    +0.258 C 
BRANCH  25  26
ATOM     26  C   UNL     1       2.626  -1.670   0.520  0.00  0.00    +0.254 C 
ATOM     27  O   UNL     1       1.438  -1.695   0.761  0.00  0.00    -0.272 OA
ATOM     28  N   UNL     1       3.482  -2.385   1.277  0.00  0.00    -0.314 N 
ATOM     29  H   UNL     1       4.432  -2.365   1.085  0.00  0.00    +0.149 HD
BRANCH  28  30
ATOM     30  C   UNL     1       2.977  -3.192   2.390  0.00  0.00    +0.086 C 
BRANCH  30  31
ATOM     31  C   UNL     1       4.146  -3.898   3.080  0.00  0.00    -0.060 C 
BRANCH  31  32
ATOM     32  N   UNL     1       3.639  -4.708   4.196  0.00  0.00    +0.381 N 
ATOM     33  C   UNL     1       2.848  -5.854   3.679  0.00  0.00    -0.079 C 
ATOM     34  C   UNL     1       2.881  -6.865   4.853  0.00  0.00    -0.020 C 
ATOM     35  C   UNL     1       4.312  -6.698   5.413  0.00  0.00    -0.020 C 
ATOM     36  C   UNL     1       4.765  -5.302   4.948  0.00  0.00    -0.079 C 
ATOM     37  H   UNL     1       3.072  -4.141   4.809  0.00  0.00    -0.082 HD
ENDBRANCH  31  32
ENDBRANCH  30  31
ENDBRANCH  28  30
ENDBRANCH  25  26
BRANCH  25  39
ATOM     38  C   UNL     1       4.388  -0.911  -2.791  0.00  0.00    +0.008 C 
ATOM     39  C   UNL     1       3.749  -1.758  -1.688  0.00  0.00    +0.051 C 
ENDBRANCH  25  39
ENDBRANCH  24  25
ENDBRANCH   1  24
TORSDOF 9
