REMARK  Name = ZINC37228461
REMARK  4 active torsions:
REMARK  status: ('A' for Active; 'I' for Inactive)
REMARK    1  A    between atoms: C_1  and  C_2
REMARK    2  A    between atoms: C_8  and  N_10
REMARK    3  A    between atoms: C_11  and  C_13
REMARK    4  A    between atoms: C_13  and  N_14
REMARK                            x       y       z     vdW  Elec       q    Type
REMARK                         _______ _______ _______ _____ _____    ______ ____
ROOT
ATOM      1  N   UNL     1       4.721   0.698   3.747  0.00  0.00    -0.215 N 
ATOM      2  C   UNL     1       4.570   1.764   4.577  0.00  0.00    +0.251 C 
ATOM      3  O   UNL     1       3.845   2.705   4.356  0.00  0.00    -0.272 OA
ATOM      4  C   UNL     1       5.451   1.458   5.747  0.00  0.00    +0.138 C 
ATOM      5  C   UNL     1       4.862   1.751   7.099  0.00  0.00    +0.040 C 
ATOM      6  C   UNL     1       3.988   2.964   7.179  0.00  0.00    +0.003 C 
ATOM      7  C   UNL     1       4.725   4.280   7.074  0.00  0.00    +0.005 C 
ATOM      8  C   UNL     1       5.422   4.458   5.728  0.00  0.00    +0.035 C 
ATOM      9  C   UNL     1       6.697   3.649   5.658  0.00  0.00    -0.042 A 
ATOM     10  C   UNL     1       6.730   2.283   5.644  0.00  0.00    -0.012 A 
ATOM     11  C   UNL     1       7.932   1.603   5.540  0.00  0.00    +0.006 A 
ATOM     12  C   UNL     1       9.119   2.308   5.472  0.00  0.00    +0.000 A 
ATOM     13  C   UNL     1       9.097   3.690   5.509  0.00  0.00    +0.000 A 
ATOM     14  C   UNL     1       7.894   4.359   5.601  0.00  0.00    +0.004 A 
ATOM     15  N   UNL     1       5.782   0.035   5.592  0.00  0.00    -0.281 N 
ATOM     16  C   UNL     1       5.366  -0.305   4.355  0.00  0.00    +0.310 C 
ATOM     17  O   UNL     1       5.554  -1.395   3.853  0.00  0.00    -0.252 OA
ATOM     18  H   UNL     1       6.208  -0.537   6.246  0.00  0.00    +0.152 HD
ENDROOT
BRANCH   1  19
ATOM     19  C   UNL     1       4.209   0.649   2.377  0.00  0.00    +0.213 C 
BRANCH  19  21
ATOM     20  N   UNL     1       2.116  -0.004   1.231  0.00  0.00    -0.311 N 
ATOM     21  C   UNL     1       2.795   0.128   2.388  0.00  0.00    +0.231 C 
ATOM     22  O   UNL     1       2.268  -0.174   3.438  0.00  0.00    -0.274 OA
ATOM     23  H   UNL     1       2.538   0.237   0.392  0.00  0.00    +0.149 HD
BRANCH  20  30
ATOM     24  C   UNL     1      -0.019   1.526   0.010  0.00  0.00    +0.009 C 
ATOM     25  C   UNL     1       0.002  -0.004   0.002  0.00  0.00    +0.006 C 
ATOM     26  C   UNL     1      -1.433  -0.534   0.013  0.00  0.00    +0.005 C 
ATOM     27  C   UNL     1      -1.413  -2.063   0.004  0.00  0.00    +0.000 C 
ATOM     28  C   UNL     1      -0.673  -2.570   1.244  0.00  0.00    +0.002 C 
ATOM     29  C   UNL     1       0.763  -2.041   1.233  0.00  0.00    +0.022 C 
ATOM     30  C   UNL     1       0.742  -0.511   1.242  0.00  0.00    +0.076 C 
ENDBRANCH  20  30
ENDBRANCH  19  21
ENDBRANCH   1  19
TORSDOF 3
