REMARK  Name = ZINC25819700
REMARK  9 active torsions:
REMARK  status: ('A' for Active; 'I' for Inactive)
REMARK    1  A    between atoms: C_1  and  C_2
REMARK    2  A    between atoms: C_2  and  O_3
REMARK    3  A    between atoms: O_3  and  C_4
REMARK    4  A    between atoms: C_4  and  C_6
REMARK    5  A    between atoms: C_7  and  C_21
REMARK    6  A    between atoms: C_12  and  C_14
REMARK    7  A    between atoms: C_21  and  N_22
REMARK    8  A    between atoms: N_25  and  C_28
REMARK    9  A    between atoms: C_32  and  C_34
REMARK                            x       y       z     vdW  Elec       q    Type
REMARK                         _______ _______ _______ _____ _____    ______ ____
ROOT
ATOM      1  C   UNL     1       1.101  10.396   2.409  0.00  0.00    +0.079 C 
ATOM      2  C   UNL     1      -0.154   9.897   2.399  0.00  0.00    +0.038 C 
ATOM      3  N   UNL     1      -0.854   9.727   3.559  0.00  0.00    -0.271 N 
ATOM      4  C   UNL     1      -0.367  10.022   4.771  0.00  0.00    +0.304 C 
ATOM      5  O   UNL     1      -1.065   9.832   5.747  0.00  0.00    -0.252 OA
ATOM      6  N   UNL     1       0.870  10.529   4.942  0.00  0.00    -0.288 N 
ATOM      7  C   UNL     1       1.706  10.755   3.751  0.00  0.00    +0.144 C 
ATOM      8  H   UNL     1      -1.879   9.327   3.529  0.00  0.00    +0.156 HD
ATOM      9  H   UNL     1       1.259  10.772   5.942  0.00  0.00    +0.151 HD
ENDROOT
BRANCH   7  10
ATOM     10  C   UNL     1       2.079  12.215   3.717  0.00  0.00    -0.022 A 
ATOM     11  C   UNL     1       1.109  13.181   3.907  0.00  0.00    +0.007 A 
ATOM     12  C   UNL     1       1.452  14.520   3.881  0.00  0.00    +0.020 A 
ATOM     13  C   UNL     1       2.765  14.893   3.654  0.00  0.00    +0.041 A 
ATOM     14  C   UNL     1       3.735  13.925   3.458  0.00  0.00    +0.020 A 
ATOM     15  C   UNL     1       3.391  12.587   3.490  0.00  0.00    +0.007 A 
ATOM     16 CL   UNL     1       3.196  16.574   3.615  0.00  0.00    -0.084 Cl
ENDBRANCH   7  10
BRANCH   1  17
ATOM     17  C   UNL     1       1.826  10.577   1.208  0.00  0.00    +0.339 C 
ATOM     18  O   UNL     1       2.680   9.773   0.886  0.00  0.00    -0.245 OA
BRANCH  17  19
ATOM     19  O   UNL     1       1.570  11.642   0.420  0.00  0.00    -0.462 OA
BRANCH  19  21
ATOM     20  C   UNL     1       1.913  13.021  -1.535  0.00  0.00    +0.048 C 
ATOM     21  C   UNL     1       2.340  11.762  -0.778  0.00  0.00    +0.229 C 
ENDBRANCH  19  21
ENDBRANCH  17  19
ENDBRANCH   1  17
BRANCH   2  22
ATOM     22  C   UNL     1      -0.794   9.527   1.085  0.00  0.00    +0.136 C 
BRANCH  22  23
ATOM     23  N   UNL     1      -1.038   8.079   1.051  0.00  0.00    -0.294 NA
ATOM     24  C   UNL     1      -1.870   7.713  -0.104  0.00  0.00    +0.103 C 
ATOM     25  C   UNL     1      -2.168   6.213  -0.060  0.00  0.00    +0.120 C 
ATOM     26  N   UNL     1      -0.903   5.465  -0.069  0.00  0.00    -0.327 N 
ATOM     27  C   UNL     1      -0.071   5.831   1.086  0.00  0.00    +0.120 C 
ATOM     28  C   UNL     1       0.227   7.331   1.042  0.00  0.00    +0.103 C 
BRANCH  26  29
ATOM     29  C   UNL     1      -1.135   4.088  -0.102  0.00  0.00    +0.030 A 
ATOM     30  C   UNL     1      -2.437   3.602  -0.123  0.00  0.00    +0.023 A 
ATOM     31  C   UNL     1      -2.663   2.241  -0.162  0.00  0.00    +0.002 A 
ATOM     32  C   UNL     1      -1.596   1.361  -0.169  0.00  0.00    +0.003 A 
ATOM     33  C   UNL     1      -0.300   1.841  -0.148  0.00  0.00    -0.049 A 
ATOM     34  C   UNL     1      -0.066   3.202  -0.115  0.00  0.00    +0.026 A 
ATOM     35  C   UNL     1       0.860   0.878  -0.162  0.00  0.00    +0.044 C 
ENDBRANCH  26  29
ENDBRANCH  22  23
ENDBRANCH   2  22
TORSDOF 7
