REMARK  Name = ZINC40035732
REMARK  8 active torsions:
REMARK  status: ('A' for Active; 'I' for Inactive)
REMARK    1  A    between atoms: C_1  and  C_2
REMARK    2  A    between atoms: C_2  and  C_3
REMARK    3  A    between atoms: C_3  and  C_39
REMARK    4  A    between atoms: N_15  and  C_31
REMARK    5  A    between atoms: N_18  and  N_19
REMARK    6  A    between atoms: C_20  and  C_21
REMARK    7  A    between atoms: C_34  and  O_37
REMARK    8  A    between atoms: O_37  and  C_38
REMARK                            x       y       z     vdW  Elec       q    Type
REMARK                         _______ _______ _______ _____ _____    ______ ____
ROOT
ATOM      1  C   UNL     1      -0.142  -0.033  -0.995  0.00  0.00    +0.004 C 
ATOM      2  C   UNL     1      -0.131  -1.439  -0.401  0.00  0.00    +0.047 C 
ATOM      3  C   UNL     1      -1.307  -2.234  -0.900  0.00  0.00    -0.037 A 
ATOM      4  C   UNL     1      -1.938  -3.142  -0.075  0.00  0.00    +0.004 A 
ATOM      5  C   UNL     1      -3.016  -3.872  -0.543  0.00  0.00    +0.000 A 
ATOM      6  C   UNL     1      -3.469  -3.699  -1.839  0.00  0.00    +0.001 A 
ATOM      7  C   UNL     1      -2.847  -2.793  -2.674  0.00  0.00    +0.010 A 
ATOM      8  C   UNL     1      -1.764  -2.055  -2.206  0.00  0.00    +0.004 A 
ATOM      9  C   UNL     1      -1.083  -1.068  -3.076  0.00  0.00    +0.084 A 
ATOM     10  C   UNL     1      -0.293  -0.090  -2.489  0.00  0.00    +0.050 A 
ATOM     11  C   UNL     1       0.357   0.837  -3.313  0.00  0.00    +0.264 A 
ATOM     12  O   UNL     1       1.062   1.711  -2.833  0.00  0.00    -0.267 OA
ATOM     13  N   UNL     1       0.186   0.745  -4.649  0.00  0.00    -0.248 N 
ATOM     14  C   UNL     1      -0.606  -0.232  -5.175  0.00  0.00    +0.223 A 
ATOM     15  N   UNL     1      -1.218  -1.109  -4.405  0.00  0.00    -0.214 NA
ATOM     16  N   UNL     1      -0.769  -0.305  -6.534  0.00  0.00    -0.206 N 
ATOM     17  C   UNL     1       1.170   0.672  -0.647  0.00  0.00    +0.016 C 
ATOM     18  H   UNL     1      -0.384   0.378  -7.106  0.00  0.00    +0.177 HD
ENDROOT
BRANCH  13  19
ATOM     19  C   UNL     1       0.826   1.658  -5.499  0.00  0.00    +0.053 A 
ATOM     20  C   UNL     1       2.099   1.383  -5.981  0.00  0.00    +0.030 A 
ATOM     21  C   UNL     1       2.729   2.282  -6.819  0.00  0.00    +0.047 A 
ATOM     22  C   UNL     1       2.090   3.460  -7.179  0.00  0.00    +0.120 A 
ATOM     23  C   UNL     1       0.818   3.735  -6.697  0.00  0.00    +0.047 A 
ATOM     24  C   UNL     1       0.185   2.834  -5.864  0.00  0.00    +0.030 A 
BRANCH  22  25
ATOM     25  O   UNL     1       2.711   4.344  -8.004  0.00  0.00    -0.495 OA
ATOM     26  C   UNL     1       1.994   5.536  -8.333  0.00  0.00    +0.277 C 
ENDBRANCH  22  25
ENDBRANCH  13  19
BRANCH   1  28
ATOM     27  C   UNL     1      -1.311   2.175  -0.971  0.00  0.00    +0.005 C 
ATOM     28  C   UNL     1      -1.311   0.756  -0.400  0.00  0.00    +0.008 C 
ENDBRANCH   1  28
BRANCH  16  29
ATOM     29  N   UNL     1      -1.491  -1.365  -7.098  0.00  0.00    -0.188 NA
ATOM     30  C   UNL     1      -1.645  -1.434  -8.389  0.00  0.00    +0.137 C 
BRANCH  30  31
ATOM     31  C   UNL     1      -2.376  -2.507  -8.959  0.00  0.00    +0.010 C 
ATOM     32  C   UNL     1      -2.920  -3.459  -8.163  0.00  0.00    +0.020 C 
ATOM     33  C   UNL     1      -3.651  -4.562  -8.809  0.00  0.00    +0.017 A 
ATOM     34  C   UNL     1      -4.510  -5.387  -8.087  0.00  0.00    +0.011 A 
ATOM     35  C   UNL     1      -5.176  -6.409  -8.734  0.00  0.00    +0.001 A 
ATOM     36  C   UNL     1      -4.993  -6.614 -10.091  0.00  0.00    +0.004 A 
ATOM     37  C   UNL     1      -4.141  -5.800 -10.817  0.00  0.00    +0.046 A 
ATOM     38  C   UNL     1      -3.467  -4.772 -10.186  0.00  0.00    +0.128 A 
ATOM     39  O   UNL     1      -2.625  -3.957 -10.870  0.00  0.00    -0.487 OA
ATOM     40  C   UNL     1      -2.557  -2.590 -10.453  0.00  0.00    +0.266 C 
ENDBRANCH  30  31
ENDBRANCH  16  29
TORSDOF 5
