REMARK  Name = ZINC39491632
REMARK  15 active torsions:
REMARK  status: ('A' for Active; 'I' for Inactive)
REMARK    1  A    between atoms: C_1  and  C_2
REMARK    2  A    between atoms: C_2  and  C_3
REMARK    3  A    between atoms: C_2  and  C_4
REMARK    4  A    between atoms: C_4  and  C_5
REMARK    5  A    between atoms: C_5  and  C_7
REMARK    6  A    between atoms: C_5  and  S_30
REMARK    7  A    between atoms: C_7  and  N_8
REMARK    8  A    between atoms: C_10  and  C_21
REMARK    9  A    between atoms: C_15  and  C_17
REMARK   10  A    between atoms: C_17  and  O_19
REMARK   11  A    between atoms: O_19  and  C_20
REMARK   12  A    between atoms: C_21  and  N_22
REMARK   13  A    between atoms: N_22  and  C_23
REMARK   14  A    between atoms: C_23  and  C_24
REMARK   15  A    between atoms: S_30  and  C_33
REMARK                            x       y       z     vdW  Elec       q    Type
REMARK                         _______ _______ _______ _____ _____    ______ ____
ROOT
ATOM      1  N   UNL     1       0.161  -0.046   4.842  0.00  0.00    -0.345 N 
ATOM      2  C   UNL     1       0.369   1.114   5.538  0.00  0.00    +0.088 A 
ATOM      3  C   UNL     1      -0.438   1.157   6.609  0.00  0.00    -0.039 A 
ATOM      4  C   UNL     1      -1.228  -0.078   6.598  0.00  0.00    +0.002 A 
ATOM      5  C   UNL     1      -0.812  -0.795   5.458  0.00  0.00    +0.049 A 
ATOM      6  C   UNL     1      -1.394  -2.028   5.169  0.00  0.00    +0.027 A 
ATOM      7  C   UNL     1      -2.364  -2.537   5.982  0.00  0.00    +0.017 A 
ATOM      8  C   UNL     1      -2.789  -1.831   7.117  0.00  0.00    +0.060 A 
ATOM      9  C   UNL     1      -2.214  -0.602   7.429  0.00  0.00    +0.025 A 
ENDROOT
BRANCH   8  10
ATOM     10  C   UNL     1      -3.839  -2.396   7.985  0.00  0.00    +0.339 C 
ATOM     11  O   UNL     1      -4.208  -1.785   8.968  0.00  0.00    -0.245 OA
BRANCH  10  12
ATOM     12  O   UNL     1      -4.390  -3.589   7.688  0.00  0.00    -0.464 OA
ATOM     13  C   UNL     1      -5.402  -4.075   8.572  0.00  0.00    +0.280 C 
ENDBRANCH  10  12
ENDBRANCH   8  10
BRANCH   1  14
ATOM     14  C   UNL     1       0.867  -0.430   3.617  0.00  0.00    +0.148 C 
BRANCH  14  15
ATOM     15  C   UNL     1       0.041  -0.011   2.400  0.00  0.00    +0.156 C 
BRANCH  15  16
ATOM     16  S   UNL     1      -0.073   1.799   2.341  0.00  0.00    +0.001 S 
ATOM     17  O   UNL     1      -0.958   2.266   3.350  0.00  0.00    -0.169 OA
ATOM     18  O   UNL     1       1.221   2.366   2.192  0.00  0.00    -0.169 OA
BRANCH  16  19
ATOM     19  C   UNL     1      -0.896   2.151   0.823  0.00  0.00    +0.089 A 
ATOM     20  C   UNL     1      -0.171   2.248  -0.350  0.00  0.00    +0.027 A 
ATOM     21  C   UNL     1      -0.817   2.524  -1.541  0.00  0.00    +0.002 A 
ATOM     22  C   UNL     1      -2.187   2.704  -1.558  0.00  0.00    +0.000 A 
ATOM     23  C   UNL     1      -2.912   2.606  -0.386  0.00  0.00    +0.002 A 
ATOM     24  C   UNL     1      -2.267   2.325   0.804  0.00  0.00    +0.027 A 
ENDBRANCH  16  19
ENDBRANCH  15  16
BRANCH  15  25
ATOM     25  C   UNL     1       0.717  -0.521   1.125  0.00  0.00    +0.031 C 
BRANCH  25  27
ATOM     26  C   UNL     1      -0.766  -2.528   1.007  0.00  0.00    +0.007 C 
ATOM     27  C   UNL     1       0.684  -2.050   1.108  0.00  0.00    -0.015 C 
ATOM     28  C   UNL     1       1.475  -2.564  -0.097  0.00  0.00    +0.007 C 
ENDBRANCH  25  27
ENDBRANCH  15  25
ENDBRANCH  14  15
ENDBRANCH   1  14
BRANCH   3  29
ATOM     29  C   UNL     1      -0.516   2.263   7.630  0.00  0.00    -0.044 C 
BRANCH  29  30
ATOM     30  N   UNL     1       0.246   1.881   8.826  0.00  0.00    +0.384 N 
ATOM     31  H   UNL     1      -0.142   1.035   9.216  0.00  0.00    -0.085 HD
ATOM     32  H   UNL     1       1.210   1.723   8.574  0.00  0.00    -0.085 HD
BRANCH  30  33
ATOM     33  C   UNL     1       0.169   2.959   9.820  0.00  0.00    -0.046 C 
BRANCH  33  34
ATOM     34  C   UNL     1       0.951   2.567  11.048  0.00  0.00    -0.064 A 
ATOM     35  C   UNL     1       0.328   1.882  12.074  0.00  0.00    +0.002 A 
ATOM     36  C   UNL     1       1.046   1.523  13.200  0.00  0.00    +0.000 A 
ATOM     37  C   UNL     1       2.386   1.847  13.299  0.00  0.00    +0.000 A 
ATOM     38  C   UNL     1       3.009   2.531  12.272  0.00  0.00    +0.000 A 
ATOM     39  C   UNL     1       2.292   2.887  11.144  0.00  0.00    +0.002 A 
ENDBRANCH  33  34
ENDBRANCH  30  33
ENDBRANCH  29  30
ENDBRANCH   3  29
TORSDOF 12
