REMARK  Name = ZINC18200068
REMARK  6 active torsions:
REMARK  status: ('A' for Active; 'I' for Inactive)
REMARK    1  A    between atoms: C_1  and  C_2
REMARK    2  A    between atoms: C_2  and  O_3
REMARK    3  A    between atoms: O_3  and  C_4
REMARK    4  A    between atoms: C_7  and  C_10
REMARK    5  A    between atoms: N_16  and  C_19
REMARK    6  A    between atoms: C_31  and  C_34
REMARK                            x       y       z     vdW  Elec       q    Type
REMARK                         _______ _______ _______ _____ _____    ______ ____
ROOT
ATOM      1  C   UNL     1       1.144  -6.059   1.764  0.00  0.00    +0.092 C 
ATOM      2  C   UNL     1       0.477  -6.480   3.043  0.00  0.00    +0.070 A 
ATOM      3  C   UNL     1       1.188  -6.860   4.154  0.00  0.00    +0.125 A 
ATOM      4  N   UNL     1       0.302  -7.174   5.138  0.00  0.00    -0.277 N 
ATOM      5  H   UNL     1       0.526  -7.472   6.034  0.00  0.00    +0.189 HD
ATOM      6  N   UNL     1      -0.993  -6.988   4.628  0.00  0.00    -0.218 N 
ATOM      7  C   UNL     1      -0.882  -6.565   3.349  0.00  0.00    +0.278 A 
ATOM      8  O   UNL     1      -1.805  -6.305   2.597  0.00  0.00    -0.265 OA
ATOM      9  N   UNL     1       2.562  -6.885   4.152  0.00  0.00    -0.303 N 
ATOM     10  C   UNL     1       3.221  -6.824   2.945  0.00  0.00    +0.017 C 
ATOM     11  C   UNL     1       2.607  -6.445   1.806  0.00  0.00    +0.024 C 
ATOM     12  C   UNL     1       3.313  -6.391   0.589  0.00  0.00    +0.162 C 
ATOM     13  O   UNL     1       2.725  -6.067  -0.424  0.00  0.00    -0.292 OA
ATOM     14  C   UNL     1       4.777  -6.724   0.513  0.00  0.00    +0.091 C 
ATOM     15  C   UNL     1       5.425  -6.418   1.868  0.00  0.00    +0.068 C 
ATOM     16  C   UNL     1       4.683  -7.210   2.945  0.00  0.00    +0.063 C 
ATOM     17  H   UNL     1       3.057  -6.944   4.984  0.00  0.00    +0.153 HD
ENDROOT
BRANCH   1  21
ATOM     18  C   UNL     1       0.802  -1.824   1.306  0.00  0.00    +0.121 A 
ATOM     19  C   UNL     1       0.260  -2.673   0.351  0.00  0.00    +0.046 A 
ATOM     20  C   UNL     1       0.372  -4.041   0.502  0.00  0.00    +0.008 A 
ATOM     21  C   UNL     1       1.024  -4.566   1.603  0.00  0.00    -0.035 A 
ATOM     22  C   UNL     1       1.565  -3.722   2.555  0.00  0.00    +0.008 A 
ATOM     23  C   UNL     1       1.460  -2.353   2.406  0.00  0.00    +0.046 A 
BRANCH  18  24
ATOM     24  O   UNL     1       0.693  -0.477   1.160  0.00  0.00    -0.492 OA
BRANCH  24  26
ATOM     25  C   UNL     1      -0.019   1.526   0.010  0.00  0.00    +0.048 C 
ATOM     26  C   UNL     1       0.002  -0.004   0.002  0.00  0.00    +0.225 C 
ENDBRANCH  24  26
ENDBRANCH  18  24
ENDBRANCH   1  21
BRANCH   6  27
ATOM     27  C   UNL     1      -2.188  -7.203   5.321  0.00  0.00    +0.067 A 
ATOM     28  C   UNL     1      -3.407  -6.986   4.691  0.00  0.00    +0.028 A 
ATOM     29  C   UNL     1      -4.585  -7.199   5.379  0.00  0.00    +0.002 A 
ATOM     30  C   UNL     1      -4.553  -7.628   6.693  0.00  0.00    +0.000 A 
ATOM     31  C   UNL     1      -3.341  -7.846   7.323  0.00  0.00    +0.002 A 
ATOM     32  C   UNL     1      -2.159  -7.640   6.639  0.00  0.00    +0.028 A 
ENDBRANCH   6  27
BRANCH  15  33
ATOM     33  C   UNL     1       6.875  -6.828   1.842  0.00  0.00    +0.109 A 
ATOM     34  C   UNL     1       7.926  -6.014   2.041  0.00  0.00    +0.045 A 
ATOM     35  C   UNL     1       9.089  -6.811   1.929  0.00  0.00    +0.041 A 
ATOM     36  C   UNL     1       8.677  -8.065   1.669  0.00  0.00    +0.195 A 
ATOM     37  O   UNL     1       7.335  -8.071   1.623  0.00  0.00    -0.468 OA
ENDBRANCH  15  33
TORSDOF 5
