REMARK  Name = ZINC40322480
REMARK  8 active torsions:
REMARK  status: ('A' for Active; 'I' for Inactive)
REMARK    1  A    between atoms: C_1  and  C_2
REMARK    2  A    between atoms: C_5  and  S_8
REMARK    3  A    between atoms: S_8  and  C_11
REMARK    4  A    between atoms: C_14  and  C_16
REMARK    5  A    between atoms: N_18  and  C_19
REMARK    6  A    between atoms: C_19  and  C_20
REMARK    7  A    between atoms: C_20  and  C_22
REMARK    8  A    between atoms: C_20  and  N_29
REMARK                            x       y       z     vdW  Elec       q    Type
REMARK                         _______ _______ _______ _____ _____    ______ ____
ROOT
ATOM      1  C   UNL     1       4.827  -5.880  -1.673  0.00  0.00    +0.279 C 
ATOM      2  O   UNL     1       5.853  -6.337  -1.206  0.00  0.00    -0.267 OA
ATOM      3  N   UNL     1       4.673  -5.796  -3.009  0.00  0.00    -0.310 N 
ATOM      4  H   UNL     1       3.855  -5.431  -3.382  0.00  0.00    +0.149 HD
ENDROOT
BRANCH   1   8
ATOM      5  C   UNL     1       1.849  -4.590  -0.083  0.00  0.00    +0.246 A 
ATOM      6  C   UNL     1       2.558  -4.916   1.020  0.00  0.00    +0.070 A 
ATOM      7  C   UNL     1       3.781  -5.449   0.583  0.00  0.00    +0.056 A 
ATOM      8  C   UNL     1       3.756  -5.421  -0.782  0.00  0.00    +0.192 A 
ATOM      9  O   UNL     1       2.572  -4.900  -1.167  0.00  0.00    -0.433 OA
BRANCH   5  10
ATOM     10  S   UNL     1       0.237  -3.881  -0.094  0.00  0.00    +0.058 S 
ATOM     11  O   UNL     1      -0.367  -4.227   1.145  0.00  0.00    -0.161 OA
ATOM     12  O   UNL     1      -0.346  -4.217  -1.346  0.00  0.00    -0.161 OA
BRANCH  10  17
ATOM     13  C   UNL     1       0.920   2.114  -0.065  0.00  0.00    +0.044 C 
ATOM     14  C   UNL     1       0.750   0.616  -0.072  0.00  0.00    -0.050 A 
ATOM     15  C   UNL     1       0.682  -0.066  -1.272  0.00  0.00    +0.005 A 
ATOM     16  C   UNL     1       0.526  -1.439  -1.279  0.00  0.00    +0.028 A 
ATOM     17  C   UNL     1       0.437  -2.131  -0.085  0.00  0.00    +0.097 A 
ATOM     18  C   UNL     1       0.505  -1.448   1.115  0.00  0.00    +0.028 A 
ATOM     19  C   UNL     1       0.666  -0.075   1.122  0.00  0.00    +0.005 A 
ENDBRANCH  10  17
ENDBRANCH   5  10
ENDBRANCH   1   8
BRANCH   3  20
ATOM     20  C   UNL     1       5.743  -6.254  -3.900  0.00  0.00    +0.094 C 
BRANCH  20  21
ATOM     21  C   UNL     1       5.274  -6.156  -5.353  0.00  0.00    -0.020 C 
BRANCH  21  22
ATOM     22  C   UNL     1       5.025  -4.712  -5.704  0.00  0.00    -0.059 A 
ATOM     23  C   UNL     1       6.086  -3.888  -6.032  0.00  0.00    +0.003 A 
ATOM     24  C   UNL     1       5.859  -2.564  -6.354  0.00  0.00    +0.020 A 
ATOM     25  C   UNL     1       4.569  -2.062  -6.348  0.00  0.00    +0.041 A 
ATOM     26  C   UNL     1       3.508  -2.887  -6.019  0.00  0.00    +0.020 A 
ATOM     27  C   UNL     1       3.736  -4.213  -5.703  0.00  0.00    +0.003 A 
ATOM     28 CL   UNL     1       4.283  -0.398  -6.752  0.00  0.00    -0.084 Cl
ENDBRANCH  21  22
BRANCH  21  29
ATOM     29  N   UNL     1       6.309  -6.705  -6.239  0.00  0.00    +0.385 N 
ATOM     30  C   UNL     1       5.882  -6.559  -7.636  0.00  0.00    -0.078 C 
ATOM     31  C   UNL     1       6.991  -7.054  -8.567  0.00  0.00    -0.019 C 
ATOM     32  C   UNL     1       7.277  -8.529  -8.270  0.00  0.00    -0.004 C 
ATOM     33  C   UNL     1       7.649  -8.680  -6.792  0.00  0.00    -0.019 C 
ATOM     34  C   UNL     1       6.516  -8.124  -5.927  0.00  0.00    -0.078 C 
ATOM     35  H   UNL     1       7.172  -6.201  -6.099  0.00  0.00    -0.081 HD
ENDBRANCH  21  29
ENDBRANCH  20  21
ENDBRANCH   3  20
TORSDOF 7
