REMARK  Name = ZINC05785144
REMARK  5 active torsions:
REMARK  status: ('A' for Active; 'I' for Inactive)
REMARK    1  A    between atoms: C_1  and  C_2
REMARK    2  A    between atoms: C_3  and  C_20
REMARK    3  A    between atoms: C_4  and  C_10
REMARK    4  A    between atoms: C_14  and  N_16
REMARK    5  A    between atoms: C_20  and  C_22
REMARK                            x       y       z     vdW  Elec       q    Type
REMARK                         _______ _______ _______ _____ _____    ______ ____
ROOT
ATOM      1  C   UNL     1       0.091   1.461  -0.141  0.00  0.00    +0.061 C 
ATOM      2  C   UNL     1       0.037  -0.044  -0.090  0.00  0.00    +0.018 C 
ATOM      3  C   UNL     1      -1.163  -0.665  -0.025  0.00  0.00    +0.041 C 
ATOM      4  C   UNL     1      -1.171  -2.179   0.024  0.00  0.00    +0.140 C 
ATOM      5  N   UNL     1       0.138  -2.855  -0.003  0.00  0.00    -0.288 N 
ATOM      6  C   UNL     1       1.250  -2.096  -0.069  0.00  0.00    +0.304 C 
ATOM      7  O   UNL     1       2.335  -2.645  -0.092  0.00  0.00    -0.252 OA
ATOM      8  N   UNL     1       1.200  -0.759  -0.116  0.00  0.00    -0.273 N 
ATOM      9  H   UNL     1       0.198  -3.822   0.026  0.00  0.00    +0.151 HD
ATOM     10  H   UNL     1       2.036  -0.271  -0.167  0.00  0.00    +0.156 HD
ENDROOT
BRANCH   4  11
ATOM     11  C   UNL     1      -1.883  -2.600   1.284  0.00  0.00    -0.020 A 
ATOM     12  C   UNL     1      -1.254  -2.473   2.509  0.00  0.00    +0.007 A 
ATOM     13  C   UNL     1      -1.908  -2.858   3.664  0.00  0.00    +0.022 A 
ATOM     14  C   UNL     1      -3.191  -3.369   3.595  0.00  0.00    +0.071 A 
ATOM     15  C   UNL     1      -3.820  -3.496   2.369  0.00  0.00    +0.145 A 
ATOM     16  C   UNL     1      -3.168  -3.106   1.215  0.00  0.00    +0.040 A 
ATOM     17 CL   UNL     1      -4.012  -3.853   5.046  0.00  0.00    -0.081 Cl
BRANCH  15  18
ATOM     18  N   UNL     1      -5.193  -4.043   2.295  0.00  0.00    +0.058 N 
ATOM     19  O   UNL     1      -5.706  -4.244   1.219  0.00  0.00    -0.126 OA
ATOM     20  O   UNL     1      -5.802  -4.290   3.310  0.00  0.00    -0.126 OA
ENDBRANCH  15  18
ENDBRANCH   4  11
BRANCH   3  21
ATOM     21  C   UNL     1      -2.369   0.074  -0.003  0.00  0.00    +0.193 C 
ATOM     22  O   UNL     1      -2.632   0.781   0.952  0.00  0.00    -0.287 OA
BRANCH  21  23
ATOM     23  C   UNL     1      -3.310  -0.012  -1.142  0.00  0.00    +0.022 A 
ATOM     24  C   UNL     1      -2.960  -0.728  -2.288  0.00  0.00    +0.012 A 
ATOM     25  C   UNL     1      -3.842  -0.804  -3.346  0.00  0.00    +0.001 A 
ATOM     26  C   UNL     1      -5.071  -0.173  -3.273  0.00  0.00    +0.000 A 
ATOM     27  C   UNL     1      -5.424   0.538  -2.140  0.00  0.00    +0.001 A 
ATOM     28  C   UNL     1      -4.554   0.617  -1.073  0.00  0.00    +0.012 A 
ENDBRANCH  21  23
ENDBRANCH   3  21
TORSDOF 4
