REMARK  Name = ZINC40613709
REMARK  7 active torsions:
REMARK  status: ('A' for Active; 'I' for Inactive)
REMARK    1  A    between atoms: C_1  and  C_2
REMARK    2  A    between atoms: C_7  and  C_9
REMARK    3  A    between atoms: C_7  and  C_10
REMARK    4  A    between atoms: C_14  and  N_30
REMARK    5  A    between atoms: C_15  and  N_19
REMARK    6  A    between atoms: N_19  and  N_20
REMARK    7  A    between atoms: C_21  and  C_23
REMARK                            x       y       z     vdW  Elec       q    Type
REMARK                         _______ _______ _______ _____ _____    ______ ____
ROOT
ATOM      1  C   UNL     1      -0.019   1.532   0.011  0.00  0.00    +0.013 C 
ATOM      2  C   UNL     1       0.002  -0.004   0.002  0.00  0.00    -0.014 C 
ATOM      3  C   UNL     1       0.687  -0.578  -1.268  0.00  0.00    +0.030 C 
ATOM      4  C   UNL     1       0.128  -2.022  -1.233  0.00  0.00    +0.076 C 
ATOM      5  C   UNL     1       0.883  -2.775  -0.141  0.00  0.00    +0.029 C 
ATOM      6  C   UNL     1       0.830  -2.104   1.220  0.00  0.00    -0.033 C 
ATOM      7  C   UNL     1       0.726  -0.590   1.212  0.00  0.00    +0.014 C 
ATOM      8  C   UNL     1       2.144  -2.467   1.958  0.00  0.00    +0.011 C 
ATOM      9  C   UNL     1      -0.313  -2.705   2.050  0.00  0.00    +0.011 C 
ATOM     10  N   UNL     1      -1.284  -1.873  -0.829  0.00  0.00    -0.310 N 
ATOM     11  C   UNL     1      -1.417  -0.610  -0.086  0.00  0.00    +0.113 C 
ATOM     12  C   UNL     1      -2.312  -2.761  -1.109  0.00  0.00    +0.157 A 
ATOM     13  C   UNL     1      -3.608  -2.501  -0.674  0.00  0.00    +0.207 A 
ATOM     14  C   UNL     1      -4.603  -3.423  -0.981  0.00  0.00    +0.171 A 
ATOM     15  N   UNL     1      -4.282  -4.513  -1.676  0.00  0.00    -0.217 NA
ATOM     16  C   UNL     1      -3.043  -4.723  -2.070  0.00  0.00    +0.225 A 
ATOM     17  N   UNL     1      -2.073  -3.872  -1.803  0.00  0.00    -0.218 NA
ENDROOT
BRANCH  13  18
ATOM     18  N   UNL     1      -3.919  -1.276   0.096  0.00  0.00    +0.063 N 
ATOM     19  O   UNL     1      -4.243  -0.265  -0.482  0.00  0.00    -0.126 OA
ATOM     20  O   UNL     1      -3.849  -1.286   1.303  0.00  0.00    -0.126 OA
ENDBRANCH  13  18
BRANCH  14  21
ATOM     21  N   UNL     1      -5.910  -3.210  -0.570  0.00  0.00    -0.246 N 
ATOM     22  H   UNL     1      -6.136  -2.414  -0.064  0.00  0.00    +0.172 HD
BRANCH  21  23
ATOM     23  N   UNL     1      -6.904  -4.146  -0.885  0.00  0.00    -0.231 N 
ATOM     24  C   UNL     1      -8.175  -3.939  -0.486  0.00  0.00    +0.261 C 
ATOM     25  O   UNL     1      -8.458  -2.941   0.148  0.00  0.00    -0.269 OA
ATOM     26  H   UNL     1      -6.678  -4.942  -1.391  0.00  0.00    +0.173 HD
BRANCH  24  27
ATOM     27  C   UNL     1      -9.224  -4.926  -0.818  0.00  0.00    +0.052 A 
ATOM     28  C   UNL     1      -8.901  -6.076  -1.541  0.00  0.00    +0.014 A 
ATOM     29  C   UNL     1      -9.885  -6.992  -1.848  0.00  0.00    +0.001 A 
ATOM     30  C   UNL     1     -11.190  -6.774  -1.442  0.00  0.00    +0.001 A 
ATOM     31  C   UNL     1     -11.517  -5.638  -0.726  0.00  0.00    +0.016 A 
ATOM     32  C   UNL     1     -10.541  -4.715  -0.406  0.00  0.00    +0.030 A 
ATOM     33 BR   UNL     1     -10.989  -3.164   0.581  0.00  0.00    -0.050 Br
ENDBRANCH  24  27
ENDBRANCH  21  23
ENDBRANCH  14  21
TORSDOF 4
