REMARK  Name = ZINC35970498
REMARK  10 active torsions:
REMARK  status: ('A' for Active; 'I' for Inactive)
REMARK    1  A    between atoms: C_1  and  C_2
REMARK    2  A    between atoms: C_3  and  C_31
REMARK    3  A    between atoms: C_4  and  C_24
REMARK    4  A    between atoms: C_7  and  C_12
REMARK    5  A    between atoms: C_13  and  N_15
REMARK    6  A    between atoms: C_18  and  N_21
REMARK    7  A    between atoms: N_21  and  C_22
REMARK    8  A    between atoms: N_21  and  C_23
REMARK    9  A    between atoms: C_31  and  O_33
REMARK   10  A    between atoms: O_33  and  C_34
REMARK                            x       y       z     vdW  Elec       q    Type
REMARK                         _______ _______ _______ _____ _____    ______ ____
ROOT
ATOM      1  C   UNL     1       0.342   0.705   1.734  0.00  0.00    +0.066 C 
ATOM      2  C   UNL     1       0.328  -0.669   1.114  0.00  0.00    +0.053 C 
ATOM      3  C   UNL     1      -0.872  -1.328   0.933  0.00  0.00    +0.082 C 
ATOM      4  C   UNL     1      -0.834  -2.704   0.307  0.00  0.00    +0.150 C 
ATOM      5  N   UNL     1       0.502  -3.241  -0.065  0.00  0.00    -0.267 N 
ATOM      6  C   UNL     1       0.775  -4.464  -0.645  0.00  0.00    +0.048 C 
ATOM      7  C   UNL     1       2.067  -4.761  -0.905  0.00  0.00    +0.072 C 
ATOM      8  S   UNL     1       2.905  -3.299  -0.325  0.00  0.00    -0.060 S 
ATOM      9  C   UNL     1       1.569  -2.428   0.199  0.00  0.00    +0.166 C 
ATOM     10  N   UNL     1       1.466  -1.233   0.743  0.00  0.00    -0.230 NA
ENDROOT
BRANCH   4  11
ATOM     11  C   UNL     1      -1.468  -3.671   1.273  0.00  0.00    -0.019 A 
ATOM     12  C   UNL     1      -0.791  -4.050   2.417  0.00  0.00    +0.006 A 
ATOM     13  C   UNL     1      -1.372  -4.936   3.304  0.00  0.00    +0.003 A 
ATOM     14  C   UNL     1      -2.631  -5.446   3.048  0.00  0.00    +0.038 A 
ATOM     15  C   UNL     1      -3.310  -5.068   1.903  0.00  0.00    +0.124 A 
ATOM     16  C   UNL     1      -2.730  -4.174   1.018  0.00  0.00    +0.044 A 
ATOM     17  F   UNL     1      -4.541  -5.565   1.651  0.00  0.00    -0.205 F 
ENDBRANCH   4  11
BRANCH   6  18
ATOM     18  C   UNL     1      -0.303  -5.410  -0.967  0.00  0.00    +0.091 C 
ATOM     19  C   UNL     1      -0.004  -6.645  -1.413  0.00  0.00    +0.241 C 
ATOM     20  O   UNL     1       1.286  -7.060  -1.445  0.00  0.00    -0.271 OA
BRANCH  19  21
ATOM     21  N   UNL     1      -1.014  -7.492  -1.837  0.00  0.00    -0.298 N 
ATOM     22  C   UNL     1      -0.876  -8.948  -1.704  0.00  0.00    +0.106 C 
ATOM     23  C   UNL     1      -1.120  -9.594  -3.072  0.00  0.00    +0.004 C 
ATOM     24  C   UNL     1      -2.478  -9.138  -3.612  0.00  0.00    -0.066 C 
ATOM     25  C   UNL     1      -2.474  -7.618  -3.789  0.00  0.00    +0.004 C 
ATOM     26  C   UNL     1      -2.248  -6.950  -2.424  0.00  0.00    +0.106 C 
BRANCH  24  27
ATOM     27  N   UNL     1      -2.730  -9.781  -4.908  0.00  0.00    +0.378 N 
ATOM     28  C   UNL     1      -2.735 -11.241  -4.738  0.00  0.00    -0.096 C 
ATOM     29  C   UNL     1      -4.033  -9.344  -5.427  0.00  0.00    -0.096 C 
ATOM     30  H   UNL     1      -2.004  -9.521  -5.559  0.00  0.00    -0.082 HD
ENDBRANCH  24  27
ENDBRANCH  19  21
ENDBRANCH   6  18
BRANCH   3  31
ATOM     31  C   UNL     1      -2.084  -0.741   1.316  0.00  0.00    +0.339 C 
ATOM     32  O   UNL     1      -2.092   0.369   1.819  0.00  0.00    -0.245 OA
BRANCH  31  33
ATOM     33  O   UNL     1      -3.246  -1.406   1.129  0.00  0.00    -0.465 OA
ATOM     34  C   UNL     1      -4.445  -0.748   1.543  0.00  0.00    +0.280 C 
ENDBRANCH  31  33
ENDBRANCH   3  31
TORSDOF 6
