REMARK  Name = ZINC08860907
REMARK  3 active torsions:
REMARK  status: ('A' for Active; 'I' for Inactive)
REMARK    1  A    between atoms: C_4  and  C_7
REMARK    2  A    between atoms: C_13  and  C_15
REMARK    3  A    between atoms: N_17  and  N_18
REMARK                            x       y       z     vdW  Elec       q    Type
REMARK                         _______ _______ _______ _____ _____    ______ ____
ROOT
ATOM      1  C   UNL     1       5.194  -1.684  -1.823  0.00  0.00    +0.245 C 
ATOM      2  O   UNL     1       6.023  -0.889  -1.435  0.00  0.00    -0.273 OA
ATOM      3  N   UNL     1       5.530  -2.620  -2.732  0.00  0.00    -0.206 N 
ATOM      4  H   UNL     1       4.866  -3.256  -3.042  0.00  0.00    +0.177 HD
ENDROOT
BRANCH   3   5
ATOM      5  N   UNL     1       6.839  -2.675  -3.229  0.00  0.00    -0.175 NA
ATOM      6  C   UNL     1       7.139  -3.513  -4.191  0.00  0.00    +0.153 C 
ATOM      7  C   UNL     1       6.207  -4.338  -4.994  0.00  0.00    +0.030 A 
ATOM      8  C   UNL     1       4.824  -4.484  -4.993  0.00  0.00    +0.027 A 
ATOM      9  C   UNL     1       4.226  -5.353  -5.885  0.00  0.00    +0.020 A 
ATOM     10  C   UNL     1       5.002  -6.076  -6.775  0.00  0.00    +0.032 A 
ATOM     11  C   UNL     1       6.376  -5.938  -6.783  0.00  0.00    +0.041 A 
ATOM     12  C   UNL     1       6.995  -5.066  -5.893  0.00  0.00    +0.057 A 
ATOM     13  N   UNL     1       8.335  -4.745  -5.694  0.00  0.00    -0.279 N 
ATOM     14  C   UNL     1       8.482  -3.837  -4.715  0.00  0.00    +0.269 C 
ATOM     15  O   UNL     1       9.535  -3.367  -4.327  0.00  0.00    -0.268 OA
ATOM     16 BR   UNL     1       7.418  -6.936  -8.006  0.00  0.00    -0.048 Br
ATOM     17 BR   UNL     1       2.346  -5.557  -5.889  0.00  0.00    -0.050 Br
ATOM     18  H   UNL     1       9.069  -5.126  -6.202  0.00  0.00    +0.155 HD
ENDBRANCH   3   5
BRANCH   1  24
ATOM     19  C   UNL     1       3.644  -0.475  -0.264  0.00  0.00    +0.057 C 
ATOM     20  C   UNL     1       3.901  -1.207   1.072  0.00  0.00    +0.113 C 
ATOM     21  N   UNL     1       3.536  -2.607   0.827  0.00  0.00    -0.314 N 
ATOM     22  C   UNL     1       3.470  -2.872  -0.489  0.00  0.00    +0.226 C 
ATOM     23  O   UNL     1       3.196  -3.952  -0.968  0.00  0.00    -0.275 OA
ATOM     24  C   UNL     1       3.786  -1.625  -1.287  0.00  0.00    +0.171 C 
ATOM     25  H   UNL     1       3.365  -3.259   1.525  0.00  0.00    +0.149 HD
BRANCH  19  29
ATOM     26  C   UNL     1      -0.290   1.185  -0.368  0.00  0.00    +0.000 A 
ATOM     27  C   UNL     1       0.808   1.997  -0.578  0.00  0.00    +0.000 A 
ATOM     28  C   UNL     1       2.081   1.460  -0.544  0.00  0.00    +0.004 A 
ATOM     29  C   UNL     1       2.256   0.111  -0.300  0.00  0.00    -0.042 A 
ATOM     30  C   UNL     1       1.158  -0.701  -0.088  0.00  0.00    +0.004 A 
ATOM     31  C   UNL     1      -0.116  -0.164  -0.123  0.00  0.00    +0.000 A 
ENDBRANCH  19  29
ENDBRANCH   1  24
TORSDOF 3
