REMARK  Name = ZINC12038584
REMARK  10 active torsions:
REMARK  status: ('A' for Active; 'I' for Inactive)
REMARK    1  A    between atoms: C_1  and  C_2
REMARK    2  A    between atoms: C_10  and  C_11
REMARK    3  A    between atoms: N_13  and  C_14
REMARK    4  A    between atoms: N_13  and  C_15
REMARK    5  A    between atoms: C_15  and  C_16
REMARK    6  A    between atoms: C_16  and  O_17
REMARK    7  A    between atoms: O_17  and  C_18
REMARK    8  A    between atoms: N_19  and  C_20
REMARK    9  A    between atoms: C_20  and  C_21
REMARK   10  A    between atoms: C_21  and  C_27
REMARK                            x       y       z     vdW  Elec       q    Type
REMARK                         _______ _______ _______ _____ _____    ______ ____
ROOT
ATOM      1  C   UNL     1      -1.770  -0.450  -3.365  0.00  0.00    +0.046 C 
ATOM      2  C   UNL     1      -0.940   0.676  -3.926  0.00  0.00    -0.019 A 
ATOM      3  C   UNL     1      -1.344   1.330  -5.098  0.00  0.00    +0.051 A 
ATOM      4  C   UNL     1      -2.491   1.095  -5.913  0.00  0.00    +0.131 A 
ATOM      5  N   UNL     1      -2.677   1.835  -6.993  0.00  0.00    -0.220 NA
ATOM      6  C   UNL     1      -1.835   2.789  -7.348  0.00  0.00    +0.224 A 
ATOM      7  N   UNL     1      -0.756   3.055  -6.637  0.00  0.00    -0.228 NA
ATOM      8  C   UNL     1      -0.490   2.368  -5.545  0.00  0.00    +0.114 A 
ATOM      9  S   UNL     1       0.801   2.387  -4.329  0.00  0.00    -0.064 S 
ATOM     10  C   UNL     1       0.201   1.064  -3.292  0.00  0.00    +0.080 A 
ATOM     11  N   UNL     1      -3.397   0.109  -5.578  0.00  0.00    -0.328 N 
ATOM     12  H   UNL     1      -3.318  -0.354  -4.729  0.00  0.00    +0.147 HD
ENDROOT
BRANCH  10  13
ATOM     13  C   UNL     1       0.795   0.522  -2.064  0.00  0.00    +0.253 C 
ATOM     14  O   UNL     1       0.362  -0.508  -1.582  0.00  0.00    -0.269 OA
ATOM     15  N   UNL     1       1.819   1.167  -1.470  0.00  0.00    -0.298 N 
ATOM     16  C   UNL     1       2.264   2.464  -1.983  0.00  0.00    +0.132 C 
BRANCH  15  17
ATOM     17  C   UNL     1       2.486   0.569  -0.311  0.00  0.00    +0.136 C 
BRANCH  17  18
ATOM     18  C   UNL     1       1.789   1.027   0.972  0.00  0.00    +0.178 C 
BRANCH  18  19
ATOM     19  O   UNL     1       0.455   0.515   0.998  0.00  0.00    -0.381 OA
ATOM     20  C   UNL     1      -0.287   0.887   2.161  0.00  0.00    +0.194 C 
ENDBRANCH  18  19
ENDBRANCH  17  18
ENDBRANCH  15  17
ENDBRANCH  10  13
BRANCH  11  21
ATOM     21  C   UNL     1      -4.477  -0.239  -6.504  0.00  0.00    +0.114 C 
BRANCH  21  22
ATOM     22  C   UNL     1      -5.622  -0.893  -5.729  0.00  0.00    +0.015 C 
ATOM     23  C   UNL     1      -5.081  -2.066  -4.907  0.00  0.00    +0.041 C 
ATOM     24  C   UNL     1      -4.516  -3.126  -5.859  0.00  0.00    +0.160 C 
ATOM     25  O   UNL     1      -5.537  -3.545  -6.766  0.00  0.00    -0.380 OA
ATOM     26  C   UNL     1      -6.048  -2.497  -7.593  0.00  0.00    +0.160 C 
ATOM     27  C   UNL     1      -6.675  -1.413  -6.713  0.00  0.00    +0.041 C 
BRANCH  22  28
ATOM     28  C   UNL     1      -6.251   0.121  -4.808  0.00  0.00    -0.040 A 
ATOM     29  C   UNL     1      -7.583   0.459  -4.958  0.00  0.00    +0.004 A 
ATOM     30  C   UNL     1      -8.161   1.385  -4.110  0.00  0.00    +0.000 A 
ATOM     31  C   UNL     1      -7.404   1.981  -3.119  0.00  0.00    +0.000 A 
ATOM     32  C   UNL     1      -6.070   1.647  -2.973  0.00  0.00    +0.000 A 
ATOM     33  C   UNL     1      -5.494   0.717  -3.817  0.00  0.00    +0.004 A 
ENDBRANCH  22  28
ENDBRANCH  21  22
ENDBRANCH  11  21
TORSDOF 7
