REMARK  Name = ZINC20413173
REMARK  6 active torsions:
REMARK  status: ('A' for Active; 'I' for Inactive)
REMARK    1  A    between atoms: C_5  and  C_7
REMARK    2  A    between atoms: N_9  and  S_10
REMARK    3  A    between atoms: S_10  and  C_13
REMARK    4  A    between atoms: C_16  and  O_20
REMARK    5  A    between atoms: O_20  and  C_21
REMARK    6  A    between atoms: C_24  and  N_28
REMARK                            x       y       z     vdW  Elec       q    Type
REMARK                         _______ _______ _______ _____ _____    ______ ____
ROOT
ATOM      1  C   UNL     1      -1.473  -5.043  -0.012  0.00  0.00    +0.116 A 
ATOM      2  C   UNL     1      -2.116  -5.265   1.191  0.00  0.00    +0.052 A 
ATOM      3  C   UNL     1      -3.426  -5.708   1.205  0.00  0.00    +0.086 A 
ATOM      4  C   UNL     1      -4.095  -5.928   0.009  0.00  0.00    +0.165 A 
ATOM      5  C   UNL     1      -3.446  -5.704  -1.198  0.00  0.00    +0.086 A 
ATOM      6  C   UNL     1      -2.138  -5.257  -1.205  0.00  0.00    +0.052 A 
ATOM      7 CL   UNL     1      -4.279  -5.979  -2.696  0.00  0.00    -0.080 Cl
ATOM      8 CL   UNL     1      -4.234  -5.987   2.716  0.00  0.00    -0.080 Cl
ENDROOT
BRANCH   1   9
ATOM      9  S   UNL     1       0.197  -4.481  -0.025  0.00  0.00    +0.101 S 
ATOM     10  O   UNL     1       0.746  -4.866  -1.278  0.00  0.00    -0.146 OA
ATOM     11  O   UNL     1       0.770  -4.880   1.213  0.00  0.00    -0.146 OA
BRANCH   9  14
ATOM     12  C   UNL     1       1.266  -2.146  -0.022  0.00  0.00    +0.164 C 
ATOM     13  N   UNL     1       2.476  -2.805  -0.038  0.00  0.00    -0.340 N 
ATOM     14  N   UNL     1       0.155  -2.825  -0.015  0.00  0.00    -0.112 NA
ATOM     15  H   UNL     1       3.303  -2.299  -0.043  0.00  0.00    +0.144 HD
ATOM     16  H   UNL     1       2.500  -3.775  -0.043  0.00  0.00    +0.144 HD
BRANCH  12  21
ATOM     17  C   UNL     1      -0.017   1.381   0.010  0.00  0.00    +0.004 A 
ATOM     18  C   UNL     1       1.193   2.059   0.002  0.00  0.00    +0.020 A 
ATOM     19  C   UNL     1       2.375   1.339  -0.013  0.00  0.00    +0.111 A 
ATOM     20  N   UNL     1       2.364   0.022  -0.020  0.00  0.00    -0.252 NA
ATOM     21  C   UNL     1       1.229  -0.664  -0.013  0.00  0.00    +0.105 A 
ATOM     22  C   UNL     1       0.002  -0.004   0.002  0.00  0.00    +0.031 A 
ENDBRANCH  12  21
ENDBRANCH   9  14
ENDBRANCH   1   9
BRANCH   4  23
ATOM     23  O   UNL     1      -5.383  -6.364   0.019  0.00  0.00    -0.452 OA
BRANCH  23  24
ATOM     24  C   UNL     1      -6.372  -5.431   0.029  0.00  0.00    +0.147 A 
ATOM     25  C   UNL     1      -6.053  -4.081   0.022  0.00  0.00    +0.050 A 
ATOM     26  C   UNL     1      -7.060  -3.135   0.032  0.00  0.00    +0.036 A 
ATOM     27  C   UNL     1      -8.384  -3.532   0.048  0.00  0.00    +0.128 A 
ATOM     28  C   UNL     1      -8.705  -4.877   0.054  0.00  0.00    +0.056 A 
ATOM     29  C   UNL     1      -7.702  -5.828   0.039  0.00  0.00    +0.085 A 
ATOM     30 CL   UNL     1      -8.105  -7.517   0.040  0.00  0.00    -0.080 Cl
BRANCH  27  31
ATOM     31  N   UNL     1      -9.460  -2.516   0.059  0.00  0.00    +0.056 N 
ATOM     32  O   UNL     1      -9.181  -1.340   0.054  0.00  0.00    -0.126 OA
ATOM     33  O   UNL     1     -10.619  -2.862   0.073  0.00  0.00    -0.126 OA
ENDBRANCH  27  31
ENDBRANCH  23  24
ENDBRANCH   4  23
TORSDOF 6
