REMARK  Name = ZINC12244990
REMARK  6 active torsions:
REMARK  status: ('A' for Active; 'I' for Inactive)
REMARK    1  A    between atoms: C_3  and  N_17
REMARK    2  A    between atoms: C_6  and  C_7
REMARK    3  A    between atoms: C_13  and  O_16
REMARK    4  A    between atoms: C_20  and  N_62
REMARK    5  A    between atoms: C_23  and  C_24
REMARK    6  A    between atoms: C_23  and  N_62
REMARK                            x       y       z     vdW  Elec       q    Type
REMARK                         _______ _______ _______ _____ _____    ______ ____
ROOT
ATOM      1  N   UNL     1       0.285  -4.728  -1.837  0.00  0.00    -0.330 N 
ATOM      2  C   UNL     1      -0.894  -5.588  -1.998  0.00  0.00    +0.103 C 
ATOM      3  C   UNL     1      -0.454  -7.053  -2.057  0.00  0.00    +0.003 C 
ATOM      4  C   UNL     1       0.289  -7.410  -0.766  0.00  0.00    -0.068 C 
ATOM      5  C   UNL     1       1.484  -6.467  -0.598  0.00  0.00    +0.003 C 
ATOM      6  C   UNL     1       0.988  -5.020  -0.581  0.00  0.00    +0.103 C 
ENDROOT
BRANCH   1   9
ATOM      7  C   UNL     1      -0.076  -1.190  -0.941  0.00  0.00    +0.015 A 
ATOM      8  C   UNL     1       0.263  -2.522  -0.868  0.00  0.00    +0.024 A 
ATOM      9  C   UNL     1      -0.065  -3.384  -1.911  0.00  0.00    +0.030 A 
ATOM     10  C   UNL     1      -0.742  -2.903  -3.029  0.00  0.00    +0.024 A 
ATOM     11  C   UNL     1      -1.089  -1.574  -3.105  0.00  0.00    +0.015 A 
ATOM     12  C   UNL     1      -0.761  -0.706  -2.059  0.00  0.00    +0.037 A 
BRANCH  12  13
ATOM     13  C   UNL     1      -1.132   0.720  -2.138  0.00  0.00    +0.247 C 
ATOM     14  O   UNL     1      -1.112   1.295  -3.209  0.00  0.00    -0.270 OA
ATOM     15  N   UNL     1      -1.494   1.385  -1.023  0.00  0.00    -0.295 N 
ATOM     16  C   UNL     1      -1.644   0.676   0.256  0.00  0.00    +0.108 C 
ATOM     17  C   UNL     1      -3.033   0.974   0.828  0.00  0.00    +0.021 C 
ATOM     18  C   UNL     1      -3.228   2.489   0.919  0.00  0.00    +0.034 C 
ATOM     19  C   UNL     1      -3.136   3.105  -0.478  0.00  0.00    +0.132 C 
ATOM     20  C   UNL     1      -1.747   2.831  -1.062  0.00  0.00    +0.139 C 
BRANCH  19  21
ATOM     21  O   UNL     1      -3.348   4.516  -0.393  0.00  0.00    -0.390 OA
ATOM     22  H   UNL     1      -3.301   4.973  -1.244  0.00  0.00    +0.210 HD
ENDBRANCH  19  21
ENDBRANCH  12  13
ENDBRANCH   1   9
BRANCH   4  23
ATOM     23  N   UNL     1       0.774  -8.800  -0.844  0.00  0.00    +0.384 N 
ATOM     24  H   UNL     1       1.592  -8.908  -0.233  0.00  0.00    -0.085 HD
ATOM     25  H   UNL     1       1.041  -9.012  -1.813  0.00  0.00    -0.085 HD
BRANCH  23  26
ATOM     26  C   UNL     1      -0.282  -9.736  -0.415  0.00  0.00    -0.046 C 
BRANCH  26  27
ATOM     27  C   UNL     1       0.242 -11.146  -0.505  0.00  0.00    -0.061 A 
ATOM     28  C   UNL     1       0.875 -11.718   0.583  0.00  0.00    +0.005 A 
ATOM     29  C   UNL     1       1.356 -13.012   0.505  0.00  0.00    +0.050 A 
ATOM     30  C   UNL     1       1.205 -13.739  -0.665  0.00  0.00    +0.166 A 
ATOM     31  C   UNL     1       0.567 -13.163  -1.761  0.00  0.00    +0.166 A 
ATOM     32  C   UNL     1       0.082 -11.868  -1.674  0.00  0.00    +0.051 A 
ATOM     33  O   UNL     1       0.544 -14.071  -2.779  0.00  0.00    -0.453 OA
ATOM     34  C   UNL     1       0.809 -15.346  -2.163  0.00  0.00    +0.466 C 
ATOM     35  O   UNL     1       1.582 -15.008  -0.997  0.00  0.00    -0.453 OA
ENDBRANCH  26  27
ENDBRANCH  23  26
ENDBRANCH   4  23
TORSDOF 6
