REMARK  Name = ZINC39953596
REMARK  4 active torsions:
REMARK  status: ('A' for Active; 'I' for Inactive)
REMARK    1  A    between atoms: C_1  and  C_2
REMARK    2  A    between atoms: N_5  and  C_11
REMARK    3  A    between atoms: C_15  and  C_18
REMARK    4  A    between atoms: C_18  and  O_19
REMARK                            x       y       z     vdW  Elec       q    Type
REMARK                         _______ _______ _______ _____ _____    ______ ____
ROOT
ATOM      1  C   UNL     1      -0.019   1.526   0.010  0.00  0.00    +0.019 C 
ATOM      2  C   UNL     1       0.002  -0.004   0.002  0.00  0.00    +0.090 C 
ATOM      3  C   UNL     1      -1.433  -0.535   0.016  0.00  0.00    +0.124 C 
ATOM      4  N   UNL     1      -2.015  -0.338   1.345  0.00  0.00    -0.255 N 
ATOM      5  C   UNL     1      -1.265  -0.464   2.452  0.00  0.00    +0.311 C 
ATOM      6  O   UNL     1      -1.800  -0.397   3.541  0.00  0.00    -0.252 OA
ATOM      7  N   UNL     1       0.062  -0.662   2.384  0.00  0.00    -0.240 N 
ATOM      8  C   UNL     1       0.729  -0.505   1.225  0.00  0.00    +0.225 C 
ATOM      9  O   UNL     1       1.911  -0.766   1.163  0.00  0.00    -0.275 OA
ATOM     10  H   UNL     1       0.547  -0.922   3.183  0.00  0.00    +0.159 HD
ENDROOT
BRANCH   4  11
ATOM     11  C   UNL     1      -3.435   0.002   1.469  0.00  0.00    +0.234 C 
ATOM     12  C   UNL     1      -4.174  -1.102   2.190  0.00  0.00    +0.022 C 
ATOM     13  C   UNL     1      -4.988  -0.553   3.062  0.00  0.00    +0.006 C 
ATOM     14  C   UNL     1      -4.839   0.949   2.973  0.00  0.00    +0.169 C 
ATOM     15  O   UNL     1      -3.595   1.179   2.283  0.00  0.00    -0.346 OA
BRANCH  14  16
ATOM     16  C   UNL     1      -4.789   1.558   4.376  0.00  0.00    +0.191 C 
BRANCH  16  17
ATOM     17  O   UNL     1      -4.766   2.983   4.275  0.00  0.00    -0.392 OA
ATOM     18  H   UNL     1      -4.734   3.437   5.128  0.00  0.00    +0.210 HD
ENDBRANCH  16  17
ENDBRANCH  14  16
ENDBRANCH   4  11
TORSDOF 3
