REMARK  Name = ZINC13064947
REMARK  12 active torsions:
REMARK  status: ('A' for Active; 'I' for Inactive)
REMARK    1  A    between atoms: C_1  and  C_2
REMARK    2  A    between atoms: C_2  and  C_3
REMARK    3  A    between atoms: C_3  and  C_5
REMARK    4  A    between atoms: C_3  and  N_70
REMARK    5  A    between atoms: N_9  and  C_10
REMARK    6  A    between atoms: C_10  and  C_11
REMARK    7  A    between atoms: C_18  and  C_19
REMARK    8  A    between atoms: C_18  and  N_70
REMARK    9  A    between atoms: C_22  and  C_32
REMARK   10  A    between atoms: C_24  and  C_31
REMARK   11  A    between atoms: C_33  and  C_34
REMARK   12  A    between atoms: C_33  and  N_70
REMARK                            x       y       z     vdW  Elec       q    Type
REMARK                         _______ _______ _______ _____ _____    ______ ____
ROOT
ATOM      1  N   UNL     1      -0.885   3.406   1.112  0.00  0.00    +0.391 N 
ATOM      2  H   UNL     1      -1.467   3.648   0.302  0.00  0.00    -0.080 HD
ENDROOT
BRANCH   1   3
ATOM      3  C   UNL     1      -1.564   3.861   2.344  0.00  0.00    +0.003 C 
BRANCH   3   4
ATOM      4  C   UNL     1      -2.805   3.034   2.557  0.00  0.00    +0.138 A 
ATOM      5  N   UNL     1      -3.684   2.693   1.646  0.00  0.00    -0.115 NA
ATOM      6  N   UNL     1      -4.598   1.987   2.219  0.00  0.00    -0.023 NA
ATOM      7  N   UNL     1      -4.324   1.869   3.471  0.00  0.00    -0.044 NA
ATOM      8  N   UNL     1      -3.224   2.496   3.718  0.00  0.00    -0.226 N 
BRANCH   8   9
ATOM      9  C   UNL     1      -2.557   2.606   5.017  0.00  0.00    +0.182 C 
BRANCH   9  10
ATOM     10  C   UNL     1      -3.067   3.824   5.743  0.00  0.00    -0.026 A 
ATOM     11  C   UNL     1      -2.433   5.042   5.580  0.00  0.00    +0.008 A 
ATOM     12  C   UNL     1      -2.904   6.160   6.242  0.00  0.00    +0.038 A 
ATOM     13  C   UNL     1      -4.005   6.059   7.075  0.00  0.00    +0.123 A 
ATOM     14  C   UNL     1      -4.636   4.838   7.241  0.00  0.00    +0.038 A 
ATOM     15  C   UNL     1      -4.167   3.722   6.575  0.00  0.00    +0.008 A 
ATOM     16  F   UNL     1      -4.463   7.151   7.726  0.00  0.00    -0.205 F 
ENDBRANCH   9  10
ENDBRANCH   8   9
ENDBRANCH   3   4
BRANCH   3  18
ATOM     17  C   UNL     1      -2.919   5.473   0.998  0.00  0.00    +0.002 C 
ATOM     18  C   UNL     1      -1.954   5.332   2.177  0.00  0.00    -0.011 C 
ENDBRANCH   3  18
ENDBRANCH   1   3
BRANCH   1  19
ATOM     19  C   UNL     1       0.425   4.077   0.981  0.00  0.00    -0.036 C 
BRANCH  19  20
ATOM     20  C   UNL     1       1.326   3.709   2.132  0.00  0.00    +0.001 A 
ATOM     21  C   UNL     1       2.204   2.683   2.002  0.00  0.00    +0.017 A 
ATOM     22  C   UNL     1       3.067   2.354   3.137  0.00  0.00    +0.002 A 
ATOM     23  C   UNL     1       3.996   1.311   3.061  0.00  0.00    -0.041 A 
ATOM     24  C   UNL     1       4.784   1.025   4.139  0.00  0.00    +0.007 A 
ATOM     25  C   UNL     1       4.671   1.762   5.311  0.00  0.00    -0.048 A 
ATOM     26  C   UNL     1       3.763   2.794   5.409  0.00  0.00    +0.029 A 
ATOM     27  C   UNL     1       2.950   3.103   4.323  0.00  0.00    +0.050 A 
ATOM     28  N   UNL     1       2.034   4.130   4.393  0.00  0.00    -0.322 N 
ATOM     29  H   UNL     1       1.954   4.645   5.211  0.00  0.00    +0.169 HD
ATOM     30  C   UNL     1       1.248   4.429   3.343  0.00  0.00    +0.251 A 
ATOM     31  O   UNL     1       0.449   5.344   3.441  0.00  0.00    -0.268 OA
ATOM     32  C   UNL     1       5.551   1.429   6.488  0.00  0.00    +0.044 C 
ATOM     33  C   UNL     1       4.127   0.505   1.794  0.00  0.00    +0.044 C 
ENDBRANCH  19  20
ENDBRANCH   1  19
BRANCH   1  34
ATOM     34  C   UNL     1      -0.700   1.940   1.150  0.00  0.00    -0.045 C 
BRANCH  34  35
ATOM     35  C   UNL     1      -0.396   1.447  -0.266  0.00  0.00    +0.102 C 
ATOM     36  C   UNL     1      -0.377  -0.097  -0.305  0.00  0.00    +0.032 C 
ATOM     37  C   UNL     1       0.762  -0.434  -1.294  0.00  0.00    +0.030 C 
ATOM     38  C   UNL     1       1.297   0.947  -1.734  0.00  0.00    +0.160 C 
ATOM     39  O   UNL     1       0.936   1.842  -0.660  0.00  0.00    -0.378 OA
ENDBRANCH  34  35
ENDBRANCH   1  34
TORSDOF 9
