REMARK  Name = ZINC40344671
REMARK  12 active torsions:
REMARK  status: ('A' for Active; 'I' for Inactive)
REMARK    1  A    between atoms: C_1  and  C_2
REMARK    2  A    between atoms: C_2  and  O_3
REMARK    3  A    between atoms: O_3  and  C_4
REMARK    4  A    between atoms: C_6  and  C_11
REMARK    5  A    between atoms: C_9  and  O_10
REMARK    6  A    between atoms: C_14  and  C_31
REMARK    7  A    between atoms: N_21  and  C_22
REMARK    8  A    between atoms: C_22  and  C_23
REMARK    9  A    between atoms: C_26  and  O_29
REMARK   10  A    between atoms: O_29  and  C_30
REMARK   11  A    between atoms: C_34  and  O_37
REMARK   12  A    between atoms: O_37  and  C_38
REMARK                            x       y       z     vdW  Elec       q    Type
REMARK                         _______ _______ _______ _____ _____    ______ ____
ROOT
ATOM      1  C   UNL     1       0.654  -4.954  -0.018  0.00  0.00    +0.142 C 
ATOM      2  C   UNL     1       0.901  -5.472  -1.408  0.00  0.00    +0.035 A 
ATOM      3  C   UNL     1       1.190  -5.174  -2.744  0.00  0.00    +0.099 A 
ATOM      4  N   UNL     1       1.250  -6.316  -3.400  0.00  0.00    -0.173 NA
ATOM      5  N   UNL     1       1.027  -7.306  -2.611  0.00  0.00    -0.272 N 
ATOM      6  H   UNL     1       1.021  -8.239  -2.875  0.00  0.00    +0.189 HD
ATOM      7  C   UNL     1       0.800  -6.849  -1.343  0.00  0.00    +0.126 A 
ATOM      8  C   UNL     1       0.496  -7.229   0.041  0.00  0.00    +0.266 C 
ATOM      9  O   UNL     1       0.345  -8.372   0.429  0.00  0.00    -0.268 OA
ATOM     10  N   UNL     1       0.410  -6.135   0.820  0.00  0.00    -0.281 N 
ENDROOT
BRANCH   1  13
ATOM     11  C   UNL     1      -1.498  -1.849   0.006  0.00  0.00    +0.162 A 
ATOM     12  C   UNL     1      -0.389  -2.680  -0.003  0.00  0.00    +0.055 A 
ATOM     13  C   UNL     1      -0.553  -4.052  -0.008  0.00  0.00    -0.019 A 
ATOM     14  C   UNL     1      -1.823  -4.600  -0.005  0.00  0.00    +0.009 A 
ATOM     15  C   UNL     1      -2.934  -3.777   0.004  0.00  0.00    +0.049 A 
ATOM     16  C   UNL     1      -2.776  -2.400   0.016  0.00  0.00    +0.158 A 
BRANCH  16  17
ATOM     17  O   UNL     1      -3.868  -1.589   0.030  0.00  0.00    -0.503 OA
ATOM     18  H   UNL     1      -4.192  -1.350  -0.849  0.00  0.00    +0.292 HD
ENDBRANCH  16  17
BRANCH  11  19
ATOM     19  O   UNL     1      -1.339  -0.499   0.012  0.00  0.00    -0.489 OA
BRANCH  19  21
ATOM     20  C   UNL     1      -0.019   1.526   0.010  0.00  0.00    +0.048 C 
ATOM     21  C   UNL     1       0.002  -0.004   0.002  0.00  0.00    +0.226 C 
ENDBRANCH  19  21
ENDBRANCH  11  19
ENDBRANCH   1  13
BRANCH   3  22
ATOM     22  C   UNL     1       1.392  -3.820  -3.318  0.00  0.00    +0.003 A 
ATOM     23  C   UNL     1       0.660  -2.739  -2.831  0.00  0.00    +0.013 A 
ATOM     24  C   UNL     1       0.850  -1.482  -3.366  0.00  0.00    +0.046 A 
ATOM     25  C   UNL     1       1.769  -1.293  -4.389  0.00  0.00    +0.120 A 
ATOM     26  C   UNL     1       2.499  -2.368  -4.877  0.00  0.00    +0.046 A 
ATOM     27  C   UNL     1       2.318  -3.626  -4.341  0.00  0.00    +0.013 A 
BRANCH  25  28
ATOM     28  O   UNL     1       1.954  -0.054  -4.915  0.00  0.00    -0.495 OA
ATOM     29  C   UNL     1       2.915   0.069  -5.965  0.00  0.00    +0.277 C 
ENDBRANCH  25  28
ENDBRANCH   3  22
BRANCH  10  30
ATOM     30  C   UNL     1       0.121  -6.123   2.256  0.00  0.00    +0.144 C 
BRANCH  30  31
ATOM     31  C   UNL     1      -1.368  -6.030   2.469  0.00  0.00    -0.030 A 
ATOM     32  C   UNL     1      -1.975  -4.792   2.566  0.00  0.00    +0.009 A 
ATOM     33  C   UNL     1      -3.340  -4.705   2.761  0.00  0.00    +0.046 A 
ATOM     34  C   UNL     1      -4.101  -5.861   2.860  0.00  0.00    +0.120 A 
ATOM     35  C   UNL     1      -3.489  -7.102   2.762  0.00  0.00    +0.046 A 
ATOM     36  C   UNL     1      -2.125  -7.184   2.561  0.00  0.00    +0.009 A 
BRANCH  34  37
ATOM     37  O   UNL     1      -5.444  -5.777   3.052  0.00  0.00    -0.495 OA
ATOM     38  C   UNL     1      -6.164  -7.008   3.144  0.00  0.00    +0.277 C 
ENDBRANCH  34  37
ENDBRANCH  30  31
ENDBRANCH  10  30
TORSDOF 9
