REMARK  Name = ZINC38980039
REMARK  4 active torsions:
REMARK  status: ('A' for Active; 'I' for Inactive)
REMARK    1  A    between atoms: C_3  and  C_8
REMARK    2  A    between atoms: N_14  and  N_15
REMARK    3  A    between atoms: C_16  and  C_17
REMARK    4  A    between atoms: C_22  and  O_23
REMARK                            x       y       z     vdW  Elec       q    Type
REMARK                         _______ _______ _______ _____ _____    ______ ____
ROOT
ATOM      1  C   UNL     1       3.788   2.252   0.051  0.00  0.00    +0.264 C 
ATOM      2  N   UNL     1       3.501   3.429  -0.784  0.00  0.00    -0.189 NA
ATOM      3  N   UNL     1       4.090   3.290  -1.859  0.00  0.00    -0.219 N 
ATOM      4  C   UNL     1       4.798   2.131  -1.940  0.00  0.00    +0.174 C 
ATOM      5  S   UNL     1       5.722   1.640  -3.296  0.00  0.00    -0.015 S 
ATOM      6  N   UNL     1       4.668   1.423  -0.793  0.00  0.00    -0.172 N 
ATOM      7  H   UNL     1       4.051   3.942  -2.576  0.00  0.00    +0.176 HD
ENDROOT
BRANCH   1  10
ATOM      8  C   UNL     1       0.167   1.531   0.841  0.00  0.00    +0.002 A 
ATOM      9  C   UNL     1       1.334   2.210   0.543  0.00  0.00    +0.007 A 
ATOM     10  C   UNL     1       2.516   1.512   0.376  0.00  0.00    -0.001 A 
ATOM     11  C   UNL     1       2.531   0.136   0.506  0.00  0.00    +0.027 A 
ATOM     12  C   UNL     1       1.363  -0.543   0.805  0.00  0.00    +0.041 A 
ATOM     13  C   UNL     1       0.181   0.156   0.972  0.00  0.00    +0.020 A 
ATOM     14 CL   UNL     1       1.381  -2.271   0.968  0.00  0.00    -0.084 Cl
ENDBRANCH   1  10
BRANCH   6  15
ATOM     15  N   UNL     1       5.239   0.183  -0.478  0.00  0.00    -0.183 NA
ATOM     16  C   UNL     1       6.084  -0.370  -1.295  0.00  0.00    +0.142 C 
BRANCH  16  17
ATOM     17  C   UNL     1       6.556  -1.744  -1.049  0.00  0.00    +0.038 A 
ATOM     18  C   UNL     1       7.470  -2.339  -1.922  0.00  0.00    +0.028 A 
ATOM     19  C   UNL     1       7.908  -3.626  -1.685  0.00  0.00    +0.020 A 
ATOM     20  C   UNL     1       7.446  -4.330  -0.586  0.00  0.00    +0.034 A 
ATOM     21  C   UNL     1       6.541  -3.751   0.285  0.00  0.00    +0.061 A 
ATOM     22  C   UNL     1       6.095  -2.458   0.066  0.00  0.00    +0.139 A 
ATOM     23 BR   UNL     1       5.918  -4.723   1.783  0.00  0.00    -0.046 Br
ATOM     24 BR   UNL     1       9.144  -4.432  -2.868  0.00  0.00    -0.050 Br
BRANCH  22  25
ATOM     25  O   UNL     1       5.211  -1.886   0.924  0.00  0.00    -0.505 OA
ATOM     26  H   UNL     1       4.284  -2.037   0.693  0.00  0.00    +0.292 HD
ENDBRANCH  22  25
ENDBRANCH  16  17
ENDBRANCH   6  15
TORSDOF 4
