REMARK  Name = ZINC03298594
REMARK  6 active torsions:
REMARK  status: ('A' for Active; 'I' for Inactive)
REMARK    1  A    between atoms: C_1  and  C_2
REMARK    2  A    between atoms: C_6  and  O_8
REMARK    3  A    between atoms: O_8  and  C_9
REMARK    4  A    between atoms: C_9  and  C_10
REMARK    5  A    between atoms: C_13  and  C_30
REMARK    6  A    between atoms: C_19  and  C_20
REMARK                            x       y       z     vdW  Elec       q    Type
REMARK                         _______ _______ _______ _____ _____    ______ ____
ROOT
ATOM      1  C   UNL     1       0.323  -4.832   3.728  0.00  0.00    +0.270 C 
ATOM      2  O   UNL     1       0.281  -4.104   4.697  0.00  0.00    -0.270 OA
ATOM      3  N   UNL     1       0.186  -6.164   3.880  0.00  0.00    -0.208 N 
ATOM      4  C   UNL     1      -0.026  -6.894   5.143  0.00  0.00    +0.155 C 
ATOM      5  C   UNL     1      -0.110  -8.341   4.739  0.00  0.00    -0.021 C 
ATOM      6  C   UNL     1       0.040  -8.397   3.403  0.00  0.00    +0.049 C 
ATOM      7  N   UNL     1       0.210  -7.134   2.865  0.00  0.00    -0.261 N 
ATOM      8  C   UNL     1       0.010  -9.694   2.686  0.00  0.00    -0.024 C 
ATOM      9  C   UNL     1      -0.074  -9.771   1.347  0.00  0.00    +0.013 C 
ATOM     10  C   UNL     1       0.080 -10.930   3.566  0.00  0.00    +0.037 C 
ATOM     11  C   UNL     1      -0.835 -10.711   4.777  0.00  0.00    +0.009 C 
ATOM     12  C   UNL     1      -0.321  -9.542   5.622  0.00  0.00    +0.035 C 
ATOM     13  H   UNL     1       0.331  -6.945   1.921  0.00  0.00    +0.170 HD
ENDROOT
BRANCH   9  14
ATOM     14  C   UNL     1       0.068 -11.073   0.673  0.00  0.00    -0.025 A 
ATOM     15  C   UNL     1      -0.627 -11.330  -0.512  0.00  0.00    +0.011 A 
ATOM     16  C   UNL     1      -0.491 -12.551  -1.137  0.00  0.00    +0.039 A 
ATOM     17  C   UNL     1       0.334 -13.523  -0.593  0.00  0.00    +0.123 A 
ATOM     18  C   UNL     1       1.026 -13.275   0.582  0.00  0.00    +0.039 A 
ATOM     19  C   UNL     1       0.902 -12.056   1.214  0.00  0.00    +0.011 A 
ATOM     20  F   UNL     1       0.463 -14.718  -1.211  0.00  0.00    -0.205 F 
ENDBRANCH   9  14
BRANCH   4  21
ATOM     21  C   UNL     1      -1.312  -6.453   5.794  0.00  0.00    -0.021 A 
ATOM     22  C   UNL     1      -2.425  -6.192   5.018  0.00  0.00    +0.008 A 
ATOM     23  C   UNL     1      -3.605  -5.788   5.614  0.00  0.00    +0.038 A 
ATOM     24  C   UNL     1      -3.671  -5.645   6.990  0.00  0.00    +0.123 A 
ATOM     25  C   UNL     1      -2.554  -5.906   7.766  0.00  0.00    +0.038 A 
ATOM     26  C   UNL     1      -1.377  -6.315   7.168  0.00  0.00    +0.008 A 
ATOM     27  F   UNL     1      -4.823  -5.250   7.574  0.00  0.00    -0.205 F 
ENDBRANCH   4  21
BRANCH   1  28
ATOM     28  C   UNL     1       0.528  -4.247   2.355  0.00  0.00    +0.326 C 
BRANCH  28  29
ATOM     29  O   UNL     1       0.645  -2.826   2.455  0.00  0.00    -0.483 OA
BRANCH  29  35
ATOM     30  C   UNL     1       1.283   1.439   0.169  0.00  0.00    +0.044 C 
ATOM     31  C   UNL     1       1.150  -0.062   0.144  0.00  0.00    -0.047 A 
ATOM     32  C   UNL     1       1.222  -0.742  -1.058  0.00  0.00    +0.003 A 
ATOM     33  C   UNL     1       1.101  -2.119  -1.085  0.00  0.00    +0.004 A 
ATOM     34  C   UNL     1       0.907  -2.819   0.091  0.00  0.00    +0.045 A 
ATOM     35  C   UNL     1       0.835  -2.140   1.298  0.00  0.00    +0.121 A 
ATOM     36  C   UNL     1       0.963  -0.758   1.322  0.00  0.00    +0.049 A 
ENDBRANCH  29  35
ENDBRANCH  28  29
ENDBRANCH   1  28
TORSDOF 5
