REMARK  Name = ZINC36024472
REMARK  8 active torsions:
REMARK  status: ('A' for Active; 'I' for Inactive)
REMARK    1  A    between atoms: C_1  and  C_2
REMARK    2  A    between atoms: C_2  and  C_3
REMARK    3  A    between atoms: C_3  and  C_5
REMARK    4  A    between atoms: C_3  and  C_6
REMARK    5  A    between atoms: N_10  and  C_31
REMARK    6  A    between atoms: N_15  and  S_18
REMARK    7  A    between atoms: S_18  and  C_21
REMARK    8  A    between atoms: C_31  and  C_32
REMARK                            x       y       z     vdW  Elec       q    Type
REMARK                         _______ _______ _______ _____ _____    ______ ____
ROOT
ATOM      1  C   UNL     1      -0.353  -3.479  -1.218  0.00  0.00    +0.022 C 
ATOM      2  C   UNL     1       0.936  -4.256  -1.377  0.00  0.00    +0.201 C 
ATOM      3  O   UNL     1       1.205  -5.001  -2.296  0.00  0.00    -0.277 OA
ATOM      4  N   UNL     1       1.735  -3.980  -0.326  0.00  0.00    -0.309 N 
ATOM      5  C   UNL     1       1.056  -3.043   0.572  0.00  0.00    +0.006 C 
ATOM      6  N   UNL     1      -0.047  -2.437  -0.208  0.00  0.00    +0.401 N 
ATOM      7  C   UNL     1       2.024  -1.953   1.030  0.00  0.00    +0.023 C 
ATOM      8  C   UNL     1       3.179  -2.594   1.806  0.00  0.00    +0.109 C 
ATOM      9  N   UNL     1       2.623  -3.415   2.890  0.00  0.00    -0.177 NA
ATOM     10  C   UNL     1       1.626  -4.442   2.559  0.00  0.00    +0.109 C 
ATOM     11  C   UNL     1       0.483  -3.786   1.778  0.00  0.00    +0.023 C 
ATOM     12  H   UNL     1       0.260  -1.587  -0.656  0.00  0.00    -0.082 HD
ATOM     13  H   UNL     1      -0.848  -2.264   0.380  0.00  0.00    -0.082 HD
ENDROOT
BRANCH   9  14
ATOM     14  S   UNL     1       3.112  -3.187   4.456  0.00  0.00    +0.063 S 
ATOM     15  O   UNL     1       2.870  -4.410   5.139  0.00  0.00    -0.153 OA
ATOM     16  O   UNL     1       4.400  -2.590   4.397  0.00  0.00    -0.153 OA
BRANCH  14  17
ATOM     17  C   UNL     1       2.033  -1.990   5.169  0.00  0.00    +0.131 A 
ATOM     18  C   UNL     1       1.212  -2.337   6.197  0.00  0.00    +0.031 A 
ATOM     19  C   UNL     1       0.351  -1.406   6.775  0.00  0.00    +0.003 A 
ATOM     20  C   UNL     1       0.309  -0.121   6.327  0.00  0.00    +0.010 A 
ATOM     21  C   UNL     1       1.143   0.272   5.268  0.00  0.00    +0.002 A 
ATOM     22  C   UNL     1       2.022  -0.672   4.682  0.00  0.00    +0.097 A 
ATOM     23  N   UNL     1       2.822  -0.301   3.676  0.00  0.00    -0.253 NA
ATOM     24  C   UNL     1       2.815   0.927   3.218  0.00  0.00    +0.111 A 
ATOM     25  C   UNL     1       1.979   1.905   3.753  0.00  0.00    +0.020 A 
ATOM     26  C   UNL     1       1.129   1.590   4.775  0.00  0.00    +0.011 A 
ENDBRANCH  14  17
ENDBRANCH   9  14
BRANCH   1  27
ATOM     27  C   UNL     1      -0.753  -2.833  -2.546  0.00  0.00    -0.020 C 
ATOM     28  C   UNL     1       0.427  -2.035  -3.101  0.00  0.00    +0.006 C 
BRANCH  27  30
ATOM     29  C   UNL     1      -1.666  -3.274  -4.829  0.00  0.00    +0.004 C 
ATOM     30  C   UNL     1      -1.147  -3.923  -3.545  0.00  0.00    -0.001 C 
ENDBRANCH  27  30
ENDBRANCH   1  27
BRANCH   4  31
ATOM     31  C   UNL     1       3.076  -4.532  -0.115  0.00  0.00    +0.141 C 
BRANCH  31  32
ATOM     32  C   UNL     1       4.091  -3.671  -0.820  0.00  0.00    -0.030 A 
ATOM     33  C   UNL     1       3.783  -3.100  -2.041  0.00  0.00    +0.008 A 
ATOM     34  C   UNL     1       4.713  -2.309  -2.689  0.00  0.00    +0.038 A 
ATOM     35  C   UNL     1       5.954  -2.089  -2.115  0.00  0.00    +0.123 A 
ATOM     36  C   UNL     1       6.261  -2.662  -0.892  0.00  0.00    +0.038 A 
ATOM     37  C   UNL     1       5.327  -3.448  -0.244  0.00  0.00    +0.008 A 
ATOM     38  F   UNL     1       6.864  -1.317  -2.748  0.00  0.00    -0.205 F 
ENDBRANCH  31  32
ENDBRANCH   4  31
TORSDOF 6
