REMARK  Name = ZINC09498971
REMARK  6 active torsions:
REMARK  status: ('A' for Active; 'I' for Inactive)
REMARK    1  A    between atoms: C_1  and  C_2
REMARK    2  A    between atoms: C_5  and  N_8
REMARK    3  A    between atoms: C_21  and  S_22
REMARK    4  A    between atoms: S_22  and  C_23
REMARK    5  A    between atoms: C_23  and  C_24
REMARK    6  A    between atoms: N_29  and  C_30
REMARK                            x       y       z     vdW  Elec       q    Type
REMARK                         _______ _______ _______ _____ _____    ______ ____
ROOT
ATOM      1  N   UNL     1      -3.997   9.144   0.071  0.00  0.00    -0.245 N 
ATOM      2  C   UNL     1      -5.245   9.031   0.569  0.00  0.00    +0.268 A 
ATOM      3  O   UNL     1      -5.820  10.004   1.020  0.00  0.00    -0.267 OA
ATOM      4  C   UNL     1      -5.902   7.712   0.559  0.00  0.00    +0.064 A 
ATOM      5  C   UNL     1      -7.191   7.541   1.061  0.00  0.00    +0.015 A 
ATOM      6  C   UNL     1      -7.773   6.291   1.036  0.00  0.00    +0.001 A 
ATOM      7  C   UNL     1      -7.083   5.209   0.513  0.00  0.00    +0.002 A 
ATOM      8  C   UNL     1      -5.806   5.365   0.012  0.00  0.00    +0.027 A 
ATOM      9  C   UNL     1      -5.205   6.614   0.030  0.00  0.00    +0.064 A 
ATOM     10  N   UNL     1      -3.924   6.804  -0.472  0.00  0.00    -0.255 N 
ATOM     11  C   UNL     1      -3.333   8.041  -0.445  0.00  0.00    +0.245 A 
ATOM     12  N   UNL     1      -2.141   7.905  -0.974  0.00  0.00    -0.109 NA
ATOM     13  N   UNL     1      -1.948   6.682  -1.320  0.00  0.00    -0.120 NA
ATOM     14  C   UNL     1      -3.004   5.960  -1.033  0.00  0.00    +0.198 A 
ENDROOT
BRANCH   1  19
ATOM     15  C   UNL     1      -1.423  14.200   0.088  0.00  0.00    +0.044 C 
ATOM     16  C   UNL     1      -2.107  12.857   0.083  0.00  0.00    -0.050 A 
ATOM     17  C   UNL     1      -2.876  12.478  -1.002  0.00  0.00    +0.005 A 
ATOM     18  C   UNL     1      -3.503  11.248  -1.009  0.00  0.00    +0.026 A 
ATOM     19  C   UNL     1      -3.361  10.391   0.075  0.00  0.00    +0.053 A 
ATOM     20  C   UNL     1      -2.593  10.777   1.165  0.00  0.00    +0.026 A 
ATOM     21  C   UNL     1      -1.964  12.007   1.164  0.00  0.00    +0.005 A 
ENDBRANCH   1  19
BRANCH  14  22
ATOM     22  S   UNL     1      -3.204   4.233  -1.322  0.00  0.00    -0.076 S 
BRANCH  22  23
ATOM     23  C   UNL     1      -1.638   3.732  -2.087  0.00  0.00    +0.173 C 
BRANCH  23  24
ATOM     24  C   UNL     1      -1.677   2.256  -2.390  0.00  0.00    +0.231 C 
ATOM     25  O   UNL     1      -2.663   1.607  -2.117  0.00  0.00    -0.274 OA
ATOM     26  N   UNL     1      -0.614   1.658  -2.964  0.00  0.00    -0.239 N 
ATOM     27  C   UNL     1      -0.649   0.338  -3.235  0.00  0.00    +0.306 C 
ATOM     28  O   UNL     1      -1.636  -0.314  -2.956  0.00  0.00    -0.252 OA
ATOM     29  N   UNL     1       0.412  -0.259  -3.814  0.00  0.00    -0.296 N 
ATOM     30  H   UNL     1       0.174   2.178  -3.186  0.00  0.00    +0.159 HD
ATOM     31  H   UNL     1       1.200   0.261  -4.036  0.00  0.00    +0.151 HD
BRANCH  29  32
ATOM     32  C   UNL     1       0.374  -1.694  -4.108  0.00  0.00    +0.074 C 
ATOM     33  C   UNL     1       0.796  -2.481  -2.865  0.00  0.00    +0.022 C 
ATOM     34  C   UNL     1       0.756  -3.979  -3.173  0.00  0.00    +0.002 C 
ATOM     35  C   UNL     1       1.717  -4.289  -4.323  0.00  0.00    +0.000 C 
ATOM     36  C   UNL     1       1.295  -3.502  -5.566  0.00  0.00    +0.002 C 
ATOM     37  C   UNL     1       1.335  -2.004  -5.258  0.00  0.00    +0.022 C 
ENDBRANCH  29  32
ENDBRANCH  23  24
ENDBRANCH  22  23
ENDBRANCH  14  22
TORSDOF 5
