REMARK  Name = ZINC24139609
REMARK  10 active torsions:
REMARK  status: ('A' for Active; 'I' for Inactive)
REMARK    1  A    between atoms: C_1  and  N_2
REMARK    2  A    between atoms: N_2  and  C_3
REMARK    3  A    between atoms: C_8  and  C_9
REMARK    4  A    between atoms: N_11  and  C_12
REMARK    5  A    between atoms: C_12  and  C_13
REMARK    6  A    between atoms: C_18  and  C_20
REMARK    7  A    between atoms: C_20  and  S_21
REMARK    8  A    between atoms: S_21  and  C_22
REMARK    9  A    between atoms: C_24  and  C_28
REMARK   10  A    between atoms: N_26  and  N_27
REMARK                            x       y       z     vdW  Elec       q    Type
REMARK                         _______ _______ _______ _____ _____    ______ ____
ROOT
ATOM      1  C   UNL     1       3.034   1.174  -1.289  0.00  0.00    +0.138 C 
ATOM      2  N   UNL     1       2.405   1.521  -0.012  0.00  0.00    -0.273 N 
ATOM      3  C   UNL     1       3.006   1.190   1.148  0.00  0.00    +0.230 C 
ATOM      4  O   UNL     1       2.484   1.477   2.204  0.00  0.00    -0.274 OA
ENDROOT
BRANCH   2   5
ATOM      5  C   UNL     1       1.185   2.193   0.003  0.00  0.00    +0.048 A 
ATOM      6  C   UNL     1       1.153   3.581   0.010  0.00  0.00    +0.024 A 
ATOM      7  C   UNL     1      -0.057   4.245   0.025  0.00  0.00    +0.002 A 
ATOM      8  C   UNL     1      -1.247   3.535   0.033  0.00  0.00    +0.001 A 
ATOM      9  C   UNL     1      -1.235   2.157   0.020  0.00  0.00    +0.015 A 
ATOM     10  C   UNL     1      -0.018   1.471   0.010  0.00  0.00    +0.058 A 
BRANCH  10  11
ATOM     11  C   UNL     1       0.002  -0.004   0.002  0.00  0.00    +0.246 C 
ATOM     12  O   UNL     1       1.063  -0.598  -0.011  0.00  0.00    -0.270 OA
ATOM     13  N   UNL     1      -1.156  -0.694   0.009  0.00  0.00    -0.304 N 
ATOM     14  H   UNL     1      -2.116  -0.157   0.021  0.00  0.00    +0.149 HD
BRANCH  13  15
ATOM     15  C   UNL     1      -1.136  -2.159   0.001  0.00  0.00    +0.179 C 
BRANCH  15  16
ATOM     16  C   UNL     1      -2.550  -2.680   0.012  0.00  0.00    +0.122 A 
ATOM     17  C   UNL     1      -3.298  -2.947  -1.073  0.00  0.00    +0.046 A 
ATOM     18  C   UNL     1      -4.548  -3.412  -0.605  0.00  0.00    +0.041 A 
ATOM     19  C   UNL     1      -4.489  -3.402   0.739  0.00  0.00    +0.195 A 
ATOM     20  O   UNL     1      -3.274  -2.963   1.107  0.00  0.00    -0.466 OA
ENDBRANCH  15  16
ENDBRANCH  13  15
ENDBRANCH  10  11
ENDBRANCH   2   5
BRANCH   3  21
ATOM     21  C   UNL     1       4.325   0.462   1.132  0.00  0.00    +0.173 C 
BRANCH  21  22
ATOM     22  S   UNL     1       4.870   0.162   2.832  0.00  0.00    -0.077 S 
BRANCH  22  23
ATOM     23  C   UNL     1       6.389  -0.675   2.523  0.00  0.00    +0.187 A 
ATOM     24  N   UNL     1       6.885  -0.948   1.340  0.00  0.00    -0.221 NA
ATOM     25  C   UNL     1       8.065  -1.598   1.492  0.00  0.00    +0.092 A 
ATOM     26  C   UNL     1       8.302  -1.729   2.821  0.00  0.00    +0.138 A 
ATOM     27  N   UNL     1       7.246  -1.141   3.474  0.00  0.00    -0.251 N 
BRANCH  25  28
ATOM     28  C   UNL     1       8.942  -2.082   0.398  0.00  0.00    +0.002 A 
ATOM     29  C   UNL     1      10.137  -2.735   0.696  0.00  0.00    +0.010 A 
ATOM     30  C   UNL     1      10.947  -3.188  -0.326  0.00  0.00    +0.001 A 
ATOM     31  C   UNL     1      10.580  -2.985  -1.644  0.00  0.00    +0.000 A 
ATOM     32  C   UNL     1       9.398  -2.332  -1.946  0.00  0.00    +0.001 A 
ATOM     33  C   UNL     1       8.578  -1.880  -0.932  0.00  0.00    +0.010 A 
ENDBRANCH  25  28
BRANCH  27  34
ATOM     34  N   UNL     1       7.083  -1.044   4.827  0.00  0.00    -0.296 N 
ATOM     35  H   UNL     1       7.845  -1.459   5.503  0.00  0.00    +0.163 HD
ATOM     36  H   UNL     1       6.191  -0.551   5.240  0.00  0.00    +0.163 HD
ENDBRANCH  27  34
ENDBRANCH  22  23
ENDBRANCH  21  22
ENDBRANCH   3  21
TORSDOF 9
