REMARK  Name = ZINC37131236
REMARK  3 active torsions:
REMARK  status: ('A' for Active; 'I' for Inactive)
REMARK    1  A    between atoms: C_7  and  N_12
REMARK    2  A    between atoms: N_12  and  C_13
REMARK    3  A    between atoms: C_16  and  N_20
REMARK                            x       y       z     vdW  Elec       q    Type
REMARK                         _______ _______ _______ _____ _____    ______ ____
ROOT
ATOM      1  N   UNL     1       0.148  -2.670  -0.926  0.00  0.00    -0.336 N 
ATOM      2  H   UNL     1       0.377  -2.905  -1.839  0.00  0.00    +0.147 HD
ENDROOT
BRANCH   1   9
ATOM      3  C   UNL     1      -0.017   1.377   0.010  0.00  0.00    +0.001 A 
ATOM      4  C   UNL     1       1.172   2.084   0.002  0.00  0.00    +0.004 A 
ATOM      5  C   UNL     1       2.375   1.409  -0.015  0.00  0.00    +0.046 A 
ATOM      6  C   UNL     1       2.398   0.018  -0.024  0.00  0.00    +0.125 A 
ATOM      7  C   UNL     1       1.207  -0.687  -0.012  0.00  0.00    +0.014 A 
ATOM      8  C   UNL     1       0.002  -0.004   0.002  0.00  0.00    +0.009 A 
ATOM      9  C   UNL     1       1.187  -2.194  -0.010  0.00  0.00    +0.107 C 
ATOM     10  C   UNL     1       2.548  -2.729  -0.463  0.00  0.00    +0.068 C 
ATOM     11  C   UNL     1       3.641  -1.990   0.320  0.00  0.00    +0.231 C 
ATOM     12  O   UNL     1       3.602  -0.610  -0.046  0.00  0.00    -0.492 OA
ENDBRANCH   1   9
BRANCH   1  13
ATOM     13  C   UNL     1      -1.173  -2.784  -0.486  0.00  0.00    +0.042 A 
ATOM     14  C   UNL     1      -1.504  -2.442   0.819  0.00  0.00    +0.026 A 
ATOM     15  C   UNL     1      -2.811  -2.556   1.251  0.00  0.00    +0.034 A 
ATOM     16  C   UNL     1      -3.790  -3.010   0.387  0.00  0.00    +0.127 A 
ATOM     17  C   UNL     1      -3.465  -3.352  -0.913  0.00  0.00    +0.049 A 
ATOM     18  C   UNL     1      -2.160  -3.235  -1.354  0.00  0.00    +0.041 A 
ATOM     19 BR   UNL     1      -1.718  -3.694  -3.134  0.00  0.00    -0.048 Br
BRANCH  16  20
ATOM     20  N   UNL     1      -5.189  -3.132   0.854  0.00  0.00    +0.056 N 
ATOM     21  O   UNL     1      -5.475  -2.834   1.991  0.00  0.00    -0.126 OA
ATOM     22  O   UNL     1      -6.046  -3.529   0.100  0.00  0.00    -0.126 OA
ENDBRANCH  16  20
ENDBRANCH   1  13
TORSDOF 3
