REMARK  Name = ZINC03268774
REMARK  7 active torsions:
REMARK  status: ('A' for Active; 'I' for Inactive)
REMARK    1  A    between atoms: C_1  and  C_2
REMARK    2  A    between atoms: C_5  and  O_25
REMARK    3  A    between atoms: C_6  and  N_8
REMARK    4  A    between atoms: C_9  and  C_11
REMARK    5  A    between atoms: C_11  and  S_12
REMARK    6  A    between atoms: S_12  and  C_13
REMARK    7  A    between atoms: O_25  and  C_26
REMARK                            x       y       z     vdW  Elec       q    Type
REMARK                         _______ _______ _______ _____ _____    ______ ____
ROOT
ATOM      1  C   UNL     1       3.334   0.601   3.791  0.00  0.00    +0.171 C 
ENDROOT
BRANCH   1   3
ATOM      2  N   UNL     1       5.669  -0.166   4.071  0.00  0.00    -0.282 N 
ATOM      3  C   UNL     1       4.624   0.046   3.246  0.00  0.00    +0.228 C 
ATOM      4  O   UNL     1       4.723  -0.211   2.064  0.00  0.00    -0.275 OA
ATOM      5  H   UNL     1       5.618   0.114   4.999  0.00  0.00    +0.155 HD
BRANCH   2  11
ATOM      6  C   UNL     1       7.828  -3.149   0.813  0.00  0.00    +0.044 C 
ATOM      7  C   UNL     1       7.904  -2.240   2.012  0.00  0.00    -0.048 A 
ATOM      8  C   UNL     1       9.118  -2.021   2.636  0.00  0.00    +0.007 A 
ATOM      9  C   UNL     1       9.194  -1.189   3.737  0.00  0.00    +0.048 A 
ATOM     10  C   UNL     1       8.051  -0.570   4.218  0.00  0.00    +0.141 A 
ATOM     11  C   UNL     1       6.828  -0.789   3.589  0.00  0.00    +0.076 A 
ATOM     12  C   UNL     1       6.758  -1.630   2.488  0.00  0.00    +0.030 A 
BRANCH  10  13
ATOM     13  O   UNL     1       8.124   0.249   5.301  0.00  0.00    -0.493 OA
ATOM     14  C   UNL     1       9.412   0.427   5.894  0.00  0.00    +0.277 C 
ENDBRANCH  10  13
ENDBRANCH   2  11
ENDBRANCH   1   3
BRANCH   1  15
ATOM     15  S   UNL     1       2.134   0.769   2.446  0.00  0.00    -0.096 S 
BRANCH  15  16
ATOM     16  C   UNL     1       0.761   1.419   3.340  0.00  0.00    +0.109 A 
ATOM     17  C   UNL     1      -0.458   1.721   2.672  0.00  0.00    +0.043 A 
ATOM     18  C   UNL     1      -0.780   1.567   1.246  0.00  0.00    -0.025 A 
ATOM     19  C   UNL     1      -2.015   1.931   0.859  0.00  0.00    -0.004 A 
ATOM     20  S   UNL     1      -2.818   2.490   2.345  0.00  0.00    -0.073 S 
ATOM     21  C   UNL     1      -1.485   2.234   3.484  0.00  0.00    +0.113 A 
ATOM     22  N   UNL     1      -1.313   2.417   4.780  0.00  0.00    -0.228 NA
ATOM     23  C   UNL     1      -0.160   2.118   5.346  0.00  0.00    +0.223 A 
ATOM     24  N   UNL     1       0.849   1.633   4.644  0.00  0.00    -0.229 NA
ATOM     25  C   UNL     1      -2.231   1.733  -0.617  0.00  0.00    +0.043 C 
ATOM     26  C   UNL     1      -0.808   1.594  -1.201  0.00  0.00    +0.010 C 
ATOM     27  C   UNL     1      -0.021   1.065   0.014  0.00  0.00    +0.037 C 
ENDBRANCH  15  16
ENDBRANCH   1  15
TORSDOF 5
