REMARK  Name = ZINC03577844
REMARK  11 active torsions:
REMARK  status: ('A' for Active; 'I' for Inactive)
REMARK    1  A    between atoms: C_1  and  C_2
REMARK    2  A    between atoms: C_2  and  N_3
REMARK    3  A    between atoms: C_4  and  C_6
REMARK    4  A    between atoms: C_6  and  S_7
REMARK    5  A    between atoms: S_7  and  C_8
REMARK    6  A    between atoms: C_11  and  C_18
REMARK    7  A    between atoms: N_12  and  C_13
REMARK    8  A    between atoms: C_21  and  C_24
REMARK    9  A    between atoms: C_24  and  C_25
REMARK   10  A    between atoms: C_24  and  C_26
REMARK   11  A    between atoms: C_24  and  C_27
REMARK                            x       y       z     vdW  Elec       q    Type
REMARK                         _______ _______ _______ _____ _____    ______ ____
ROOT
ATOM      1  C   UNL     1       1.749   2.908  -0.169  0.00  0.00    +0.193 A 
ATOM      2  N   UNL     1       3.047   2.941   0.040  0.00  0.00    -0.122 NA
ATOM      3  N   UNL     1       3.502   1.747   0.178  0.00  0.00    -0.128 NA
ATOM      4  C   UNL     1       2.523   0.879   0.070  0.00  0.00    +0.165 A 
ATOM      5  N   UNL     1       1.371   1.596  -0.160  0.00  0.00    -0.299 N 
ENDROOT
BRANCH   4   6
ATOM      6  C   UNL     1       2.636  -0.591   0.175  0.00  0.00    +0.019 A 
ATOM      7  C   UNL     1       1.502  -1.366   0.423  0.00  0.00    +0.012 A 
ATOM      8  C   UNL     1       1.615  -2.738   0.515  0.00  0.00    +0.005 A 
ATOM      9  C   UNL     1       2.849  -3.345   0.372  0.00  0.00    -0.042 A 
ATOM     10  C   UNL     1       3.978  -2.583   0.131  0.00  0.00    +0.005 A 
ATOM     11  C   UNL     1       3.879  -1.210   0.032  0.00  0.00    +0.012 A 
BRANCH   9  12
ATOM     12  C   UNL     1       2.966  -4.844   0.480  0.00  0.00    -0.013 C 
ATOM     13  C   UNL     1       3.908  -5.201   1.631  0.00  0.00    +0.015 C 
ATOM     14  C   UNL     1       1.584  -5.444   0.747  0.00  0.00    +0.015 C 
ATOM     15  C   UNL     1       3.522  -5.408  -0.829  0.00  0.00    +0.015 C 
ENDBRANCH   9  12
ENDBRANCH   4   6
BRANCH   5  16
ATOM     16  C   UNL     1       0.020   1.063  -0.350  0.00  0.00    +0.091 C 
ATOM     17  C   UNL     1      -1.015   2.205  -0.271  0.00  0.00    +0.025 C 
ATOM     18  C   UNL     1      -1.257   2.600  -1.750  0.00  0.00    +0.002 C 
ATOM     19  C   UNL     1      -1.221   1.234  -2.479  0.00  0.00    +0.002 C 
ATOM     20  C   UNL     1      -0.111   0.446  -1.754  0.00  0.00    +0.025 C 
ENDBRANCH   5  16
BRANCH   1  21
ATOM     21  S   UNL     1       0.695   4.298  -0.414  0.00  0.00    -0.077 S 
BRANCH  21  22
ATOM     22  C   UNL     1       1.906   5.637  -0.289  0.00  0.00    +0.173 C 
BRANCH  22  24
ATOM     23  N   UNL     1       1.919   8.107  -0.419  0.00  0.00    -0.315 N 
ATOM     24  C   UNL     1       1.211   6.962  -0.473  0.00  0.00    +0.223 C 
ATOM     25  O   UNL     1       0.015   6.997  -0.669  0.00  0.00    -0.275 OA
ATOM     26  H   UNL     1       2.876   8.079  -0.262  0.00  0.00    +0.149 HD
BRANCH  23  28
ATOM     27  C   UNL     1       2.267  10.527  -0.492  0.00  0.00    +0.024 C 
ATOM     28  C   UNL     1       1.243   9.395  -0.598  0.00  0.00    +0.101 C 
ENDBRANCH  23  28
ENDBRANCH  22  24
ENDBRANCH  21  22
ENDBRANCH   1  21
TORSDOF 7
