REMARK  Name = ZINC13138017
REMARK  9 active torsions:
REMARK  status: ('A' for Active; 'I' for Inactive)
REMARK    1  A    between atoms: C_1  and  C_2
REMARK    2  A    between atoms: N_10  and  C_11
REMARK    3  A    between atoms: C_11  and  C_12
REMARK    4  A    between atoms: C_12  and  C_14
REMARK    5  A    between atoms: C_12  and  O_28
REMARK    6  A    between atoms: C_14  and  N_62
REMARK    7  A    between atoms: C_15  and  C_16
REMARK    8  A    between atoms: C_15  and  C_22
REMARK    9  A    between atoms: C_15  and  N_62
REMARK                            x       y       z     vdW  Elec       q    Type
REMARK                         _______ _______ _______ _____ _____    ______ ____
ROOT
ATOM      1  C   UNL     1       5.412  -0.406   1.384  0.00  0.00    +0.117 C 
ENDROOT
BRANCH   1   2
ATOM      2  O   UNL     1       4.771   0.693   2.034  0.00  0.00    -0.392 OA
ATOM      3  H   UNL     1       4.926   1.547   1.608  0.00  0.00    +0.210 HD
ENDBRANCH   1   2
BRANCH   1   4
ATOM      4  C   UNL     1       4.898  -0.519  -0.053  0.00  0.00    +0.151 C 
BRANCH   4  14
ATOM      5  C   UNL     1      -1.336   2.088   0.020  0.00  0.00    +0.044 C 
ATOM      6  C   UNL     1      -0.016   1.359   0.009  0.00  0.00    -0.050 A 
ATOM      7  C   UNL     1       1.169   2.084   0.002  0.00  0.00    +0.005 A 
ATOM      8  C   UNL     1       2.385   1.439  -0.013  0.00  0.00    +0.027 A 
ATOM      9  C   UNL     1       2.432   0.048  -0.021  0.00  0.00    +0.050 A 
ATOM     10  C   UNL     1       1.227  -0.688  -0.013  0.00  0.00    +0.004 A 
ATOM     11  C   UNL     1       0.002  -0.004   0.002  0.00  0.00    +0.013 A 
ATOM     12  C   UNL     1       1.579  -2.050  -0.021  0.00  0.00    -0.011 A 
ATOM     13  C   UNL     1       2.949  -2.124  -0.034  0.00  0.00    +0.089 A 
ATOM     14  N   UNL     1       3.472  -0.856  -0.036  0.00  0.00    -0.335 N 
ATOM     15  C   UNL     1       3.645  -3.418  -0.040  0.00  0.00    +0.180 C 
ATOM     16  O   UNL     1       4.835  -3.513  -0.258  0.00  0.00    -0.290 OA
ATOM     17  C   UNL     1       2.772  -4.629   0.246  0.00  0.00    +0.081 C 
ATOM     18  C   UNL     1       1.460  -4.473  -0.530  0.00  0.00    +0.013 C 
ATOM     19  C   UNL     1       0.679  -3.258  -0.018  0.00  0.00    +0.038 C 
ENDBRANCH   4  14
ENDBRANCH   1   4
BRANCH   1  20
ATOM     20  C   UNL     1       6.924  -0.178   1.368  0.00  0.00    -0.048 C 
BRANCH  20  21
ATOM     21  N   UNL     1       7.430  -0.191   2.754  0.00  0.00    +0.388 N 
ATOM     22  H   UNL     1       7.219  -1.099   3.183  0.00  0.00    -0.084 HD
ATOM     23  H   UNL     1       6.970   0.556   3.289  0.00  0.00    -0.084 HD
BRANCH  21  24
ATOM     24  C   UNL     1       8.889   0.028   2.769  0.00  0.00    -0.010 C 
BRANCH  24  25
ATOM     25  C   UNL     1       9.176   1.507   2.743  0.00  0.00    -0.057 A 
ATOM     26  C   UNL     1       8.390   2.377   3.474  0.00  0.00    +0.002 A 
ATOM     27  C   UNL     1       8.657   3.733   3.455  0.00  0.00    +0.000 A 
ATOM     28  C   UNL     1       9.704   4.220   2.695  0.00  0.00    +0.000 A 
ATOM     29  C   UNL     1      10.487   3.351   1.959  0.00  0.00    +0.000 A 
ATOM     30  C   UNL     1      10.223   1.994   1.983  0.00  0.00    +0.002 A 
ENDBRANCH  24  25
BRANCH  24  31
ATOM     31  C   UNL     1       9.466  -0.574   4.024  0.00  0.00    -0.057 A 
ATOM     32  C   UNL     1       8.790  -0.451   5.223  0.00  0.00    +0.002 A 
ATOM     33  C   UNL     1       9.317  -1.008   6.374  0.00  0.00    +0.000 A 
ATOM     34  C   UNL     1      10.525  -1.679   6.327  0.00  0.00    +0.000 A 
ATOM     35  C   UNL     1      11.204  -1.796   5.128  0.00  0.00    +0.000 A 
ATOM     36  C   UNL     1      10.674  -1.244   3.977  0.00  0.00    +0.002 A 
ENDBRANCH  24  31
ENDBRANCH  21  24
ENDBRANCH  20  21
ENDBRANCH   1  20
TORSDOF 8
