REMARK  Name = ZINC40548985
REMARK  9 active torsions:
REMARK  status: ('A' for Active; 'I' for Inactive)
REMARK    1  A    between atoms: C_1  and  C_2
REMARK    2  A    between atoms: C_2  and  O_3
REMARK    3  A    between atoms: O_3  and  C_4
REMARK    4  A    between atoms: C_8  and  C_10
REMARK    5  A    between atoms: C_13  and  C_29
REMARK    6  A    between atoms: N_20  and  C_21
REMARK    7  A    between atoms: C_31  and  C_37
REMARK    8  A    between atoms: C_32  and  C_36
REMARK    9  A    between atoms: C_34  and  O_35
REMARK                            x       y       z     vdW  Elec       q    Type
REMARK                         _______ _______ _______ _____ _____    ______ ____
ROOT
ATOM      1  C   UNL     1      -4.484  -4.337  -0.010  0.00  0.00    +0.142 C 
ATOM      2  C   UNL     1      -4.691  -4.952   1.347  0.00  0.00    +0.035 A 
ATOM      3  C   UNL     1      -4.772  -4.756   2.730  0.00  0.00    +0.102 A 
ATOM      4  N   UNL     1      -5.001  -5.931   3.282  0.00  0.00    -0.173 NA
ATOM      5  N   UNL     1      -5.073  -6.849   2.385  0.00  0.00    -0.272 N 
ATOM      6  H   UNL     1      -5.236  -7.789   2.561  0.00  0.00    +0.189 HD
ATOM      7  C   UNL     1      -4.887  -6.304   1.146  0.00  0.00    +0.126 A 
ATOM      8  C   UNL     1      -4.814  -6.577  -0.294  0.00  0.00    +0.266 C 
ATOM      9  O   UNL     1      -4.946  -7.675  -0.800  0.00  0.00    -0.268 OA
ATOM     10  N   UNL     1      -4.581  -5.440  -0.976  0.00  0.00    -0.280 N 
ENDROOT
BRANCH   3  11
ATOM     11  C   UNL     1      -4.625  -3.464   3.445  0.00  0.00    +0.044 A 
ATOM     12  C   UNL     1      -5.298  -2.333   2.989  0.00  0.00    +0.017 A 
ATOM     13  C   UNL     1      -5.159  -1.133   3.657  0.00  0.00    -0.047 A 
ATOM     14  C   UNL     1      -4.353  -1.049   4.779  0.00  0.00    -0.044 A 
ATOM     15  C   UNL     1      -3.681  -2.166   5.239  0.00  0.00    +0.049 A 
ATOM     16  C   UNL     1      -3.817  -3.378   4.582  0.00  0.00    +0.126 A 
ATOM     17  C   UNL     1      -4.207   0.265   5.502  0.00  0.00    +0.044 C 
ATOM     18  C   UNL     1      -5.886   0.091   3.163  0.00  0.00    +0.044 C 
BRANCH  16  19
ATOM     19  O   UNL     1      -3.162  -4.478   5.037  0.00  0.00    -0.506 OA
ATOM     20  H   UNL     1      -2.252  -4.553   4.720  0.00  0.00    +0.292 HD
ENDBRANCH  16  19
ENDBRANCH   3  11
BRANCH  10  21
ATOM     21  C   UNL     1      -4.446  -5.321  -2.430  0.00  0.00    +0.100 C 
ATOM     22  C   UNL     1      -3.276  -6.199  -2.907  0.00  0.00    +0.047 C 
ATOM     23  C   UNL     1      -3.351  -6.304  -4.457  0.00  0.00    +0.168 C 
ATOM     24  S   UNL     1      -5.168  -6.494  -4.695  0.00  0.00    -0.029 S 
ATOM     25  O   UNL     1      -5.488  -7.878  -4.727  0.00  0.00    -0.174 OA
ATOM     26  O   UNL     1      -5.585  -5.655  -5.764  0.00  0.00    -0.174 OA
ATOM     27  C   UNL     1      -5.759  -5.781  -3.107  0.00  0.00    +0.188 C 
ENDBRANCH  10  21
BRANCH   1  32
ATOM     28  C   UNL     1      -1.754  -1.732  -0.189  0.00  0.00    +0.121 A 
ATOM     29  C   UNL     1      -0.618  -2.527  -0.232  0.00  0.00    +0.045 A 
ATOM     30  C   UNL     1      -0.738  -3.903  -0.203  0.00  0.00    +0.004 A 
ATOM     31  C   UNL     1      -1.989  -4.487  -0.131  0.00  0.00    +0.006 A 
ATOM     32  C   UNL     1      -3.122  -3.697  -0.088  0.00  0.00    -0.019 A 
ATOM     33  C   UNL     1      -3.007  -2.320  -0.112  0.00  0.00    +0.051 A 
BRANCH  28  34
ATOM     34  O   UNL     1      -1.638  -0.378  -0.217  0.00  0.00    -0.492 OA
BRANCH  34  36
ATOM     35  C   UNL     1      -0.386   1.687  -0.319  0.00  0.00    +0.048 C 
ATOM     36  C   UNL     1      -0.316   0.159  -0.298  0.00  0.00    +0.225 C 
ENDBRANCH  34  36
ENDBRANCH  28  34
ENDBRANCH   1  32
TORSDOF 6
