REMARK  Name = ZINC09371557
REMARK  4 active torsions:
REMARK  status: ('A' for Active; 'I' for Inactive)
REMARK    1  A    between atoms: C_3  and  N_17
REMARK    2  A    between atoms: C_5  and  O_7
REMARK    3  A    between atoms: O_7  and  C_8
REMARK    4  A    between atoms: C_8  and  C_10
REMARK                            x       y       z     vdW  Elec       q    Type
REMARK                         _______ _______ _______ _____ _____    ______ ____
ROOT
ATOM      1  C   UNL     1       2.470   0.137  -0.011  0.00  0.00    +0.005 A 
ATOM      2  C   UNL     1       1.376  -0.700  -0.116  0.00  0.00    +0.024 A 
ATOM      3  C   UNL     1       0.097  -0.165  -0.196  0.00  0.00    +0.047 A 
ATOM      4  C   UNL     1      -0.082   1.210  -0.169  0.00  0.00    +0.070 A 
ATOM      5  C   UNL     1       1.018   2.047  -0.063  0.00  0.00    +0.134 A 
ATOM      6  C   UNL     1       2.295   1.508   0.016  0.00  0.00    +0.046 A 
ENDROOT
BRANCH   3   7
ATOM      7  N   UNL     1      -1.013  -1.015  -0.303  0.00  0.00    -0.210 N 
ATOM      8  C   UNL     1      -1.933  -1.129   0.662  0.00  0.00    +0.231 C 
ATOM      9  O   UNL     1      -1.919  -0.530   1.716  0.00  0.00    -0.274 OA
ATOM     10  C   UNL     1      -2.993  -2.118   0.234  0.00  0.00    +0.095 C 
ATOM     11  C   UNL     1      -2.837  -3.403   1.106  0.00  0.00    +0.025 C 
ATOM     12  C   UNL     1      -3.236  -4.508   0.061  0.00  0.00    +0.016 C 
ATOM     13  C   UNL     1      -2.125  -4.071  -0.963  0.00  0.00    +0.025 C 
ATOM     14  C   UNL     1      -2.509  -2.572  -1.175  0.00  0.00    +0.095 C 
ATOM     15  C   UNL     1      -1.237  -1.781  -1.376  0.00  0.00    +0.231 C 
ATOM     16  O   UNL     1      -0.528  -1.834  -2.359  0.00  0.00    -0.274 OA
ATOM     17  C   UNL     1      -0.912  -4.018  -0.026  0.00  0.00    -0.027 C 
ATOM     18  C   UNL     1      -1.323  -3.634   1.166  0.00  0.00    -0.027 C 
ENDBRANCH   3   7
BRANCH   5  19
ATOM     19  O   UNL     1       0.847   3.395  -0.037  0.00  0.00    -0.422 OA
BRANCH  19  20
ATOM     20  C   UNL     1       0.393   3.932   1.112  0.00  0.00    +0.344 C 
ATOM     21  O   UNL     1       0.251   3.232   2.095  0.00  0.00    -0.245 OA
BRANCH  20  22
ATOM     22  C   UNL     1       0.068   5.371   1.177  0.00  0.00    +0.059 A 
ATOM     23  C   UNL     1       0.236   6.179   0.051  0.00  0.00    +0.016 A 
ATOM     24  C   UNL     1      -0.075   7.521   0.116  0.00  0.00    +0.016 A 
ATOM     25  C   UNL     1      -0.541   8.070   1.299  0.00  0.00    +0.018 A 
ATOM     26  C   UNL     1      -0.704   7.275   2.421  0.00  0.00    +0.016 A 
ATOM     27  C   UNL     1      -0.403   5.931   2.367  0.00  0.00    +0.016 A 
ATOM     28 BR   UNL     1      -0.957   9.913   1.382  0.00  0.00    -0.050 Br
ENDBRANCH  20  22
ENDBRANCH  19  20
ENDBRANCH   5  19
TORSDOF 4
