REMARK  Name = ZINC32666039
REMARK  4 active torsions:
REMARK  status: ('A' for Active; 'I' for Inactive)
REMARK    1  A    between atoms: C_7  and  O_11
REMARK    2  A    between atoms: O_11  and  C_12
REMARK    3  A    between atoms: C_12  and  C_14
REMARK    4  A    between atoms: C_20  and  C_22
REMARK                            x       y       z     vdW  Elec       q    Type
REMARK                         _______ _______ _______ _____ _____    ______ ____
ROOT
ATOM      1  C   UNL     1       3.585  -4.856   0.191  0.00  0.00    +0.185 C 
ATOM      2  C   UNL     1       4.235  -4.414   1.519  0.00  0.00    +0.035 C 
ATOM      3  C   UNL     1       4.770  -5.747   2.104  0.00  0.00    +0.021 C 
ATOM      4  C   UNL     1       3.675  -6.746   1.655  0.00  0.00    +0.109 C 
ATOM      5  N   UNL     1       3.274  -6.288   0.312  0.00  0.00    -0.288 N 
ATOM      6  C   UNL     1       2.715  -7.054  -0.645  0.00  0.00    +0.222 C 
ATOM      7  O   UNL     1       2.498  -6.590  -1.744  0.00  0.00    -0.275 OA
ENDROOT
BRANCH   6   8
ATOM      8  C   UNL     1       2.360  -8.489  -0.350  0.00  0.00    +0.048 C 
ATOM      9  C   UNL     1       3.642  -9.310  -0.197  0.00  0.00    +0.019 C 
ATOM     10  C   UNL     1       3.282 -10.767   0.102  0.00  0.00    -0.009 C 
ATOM     11  C   UNL     1       2.448 -11.333  -1.048  0.00  0.00    +0.007 C 
ATOM     12  C   UNL     1       1.166 -10.512  -1.201  0.00  0.00    -0.009 C 
ATOM     13  C   UNL     1       1.526  -9.055  -1.501  0.00  0.00    +0.019 C 
ATOM     14  C   UNL     1       0.358 -10.581   0.097  0.00  0.00    +0.007 C 
ATOM     15  C   UNL     1       1.193 -10.015   1.247  0.00  0.00    -0.009 C 
ATOM     16  C   UNL     1       2.475 -10.836   1.400  0.00  0.00    +0.007 C 
ATOM     17  C   UNL     1       1.553  -8.558   0.948  0.00  0.00    +0.019 C 
ENDBRANCH   6   8
BRANCH   1  18
ATOM     18  C   UNL     1       2.317  -4.075  -0.045  0.00  0.00    +0.333 C 
ATOM     19  O   UNL     1       1.258  -4.651  -0.120  0.00  0.00    -0.248 OA
BRANCH  18  20
ATOM     20  O   UNL     1       2.366  -2.739  -0.172  0.00  0.00    -0.422 OA
BRANCH  20  27
ATOM     21  C   UNL     1      -1.083  -1.263   3.103  0.00  0.00    +0.020 A 
ATOM     22  C   UNL     1      -1.575  -0.854   1.896  0.00  0.00    +0.013 A 
ATOM     23  C   UNL     1      -0.817  -1.128   0.743  0.00  0.00    +0.022 A 
ATOM     24  C   UNL     1      -1.258  -0.739  -0.533  0.00  0.00    +0.050 A 
ATOM     25  C   UNL     1      -0.496  -1.022  -1.627  0.00  0.00    +0.024 A 
ATOM     26  C   UNL     1       0.717  -1.692  -1.499  0.00  0.00    +0.050 A 
ATOM     27  C   UNL     1       1.179  -2.086  -0.276  0.00  0.00    +0.158 A 
ATOM     28  C   UNL     1       0.417  -1.811   0.879  0.00  0.00    +0.115 A 
ATOM     29  N   UNL     1       0.842  -2.183   2.090  0.00  0.00    -0.251 NA
ATOM     30  C   UNL     1       0.138  -1.929   3.167  0.00  0.00    +0.111 A 
ATOM     31 CL   UNL     1      -2.768   0.098  -0.716  0.00  0.00    -0.083 Cl
ENDBRANCH  20  27
ENDBRANCH  18  20
ENDBRANCH   1  18
TORSDOF 4
