REMARK  Name = ZINC60350174
REMARK  6 active torsions:
REMARK  status: ('A' for Active; 'I' for Inactive)
REMARK    1  A    between atoms: C_1  and  C_2
REMARK    2  A    between atoms: C_2  and  C_24
REMARK    3  A    between atoms: N_5  and  C_9
REMARK    4  A    between atoms: C_9  and  C_10
REMARK    5  A    between atoms: N_13  and  C_15
REMARK    6  A    between atoms: C_28  and  C_30
REMARK                            x       y       z     vdW  Elec       q    Type
REMARK                         _______ _______ _______ _____ _____    ______ ____
ROOT
ATOM      1  C   UNL     1      -0.019   1.526   0.010  0.00  0.00    +0.047 C 
ATOM      2  C   UNL     1       0.002  -0.004   0.002  0.00  0.00    +0.135 C 
ATOM      3  C   UNL     1      -1.403  -0.557   0.139  0.00  0.00    +0.251 C 
ATOM      4  O   UNL     1      -2.332  -0.392  -0.621  0.00  0.00    -0.272 OA
ATOM      5  N   UNL     1      -1.403  -1.272   1.282  0.00  0.00    -0.218 N 
ATOM      6  C   UNL     1      -0.206  -1.247   1.879  0.00  0.00    +0.310 C 
ATOM      7  O   UNL     1       0.040  -1.819   2.924  0.00  0.00    -0.252 OA
ATOM      8  N   UNL     1       0.695  -0.520   1.195  0.00  0.00    -0.281 N 
ATOM      9  H   UNL     1       1.621  -0.365   1.440  0.00  0.00    +0.152 HD
ENDROOT
BRANCH   2  10
ATOM     10  C   UNL     1       0.657  -0.517  -1.255  0.00  0.00    -0.014 A 
ATOM     11  C   UNL     1      -0.110  -0.772  -2.378  0.00  0.00    +0.006 A 
ATOM     12  C   UNL     1       0.483  -1.243  -3.536  0.00  0.00    +0.002 A 
ATOM     13  C   UNL     1       1.845  -1.461  -3.578  0.00  0.00    +0.019 A 
ATOM     14  C   UNL     1       2.624  -1.206  -2.448  0.00  0.00    +0.052 A 
ATOM     15  C   UNL     1       2.020  -0.726  -1.284  0.00  0.00    +0.025 A 
BRANCH  14  16
ATOM     16  C   UNL     1       4.038  -1.430  -2.484  0.00  0.00    +0.099 C 
ATOM     17  N   UNL     1       5.160  -1.609  -2.513  0.00  0.00    -0.191 NA
ENDBRANCH  14  16
ENDBRANCH   2  10
BRANCH   5  18
ATOM     18  C   UNL     1      -2.569  -1.986   1.805  0.00  0.00    +0.175 C 
BRANCH  18  19
ATOM     19  C   UNL     1      -2.585  -3.391   1.260  0.00  0.00    +0.085 A 
ATOM     20  C   UNL     1      -3.203  -3.804   0.071  0.00  0.00    -0.002 A 
ATOM     21  C   UNL     1      -2.991  -5.131  -0.068  0.00  0.00    +0.048 A 
ATOM     22  N   UNL     1      -2.264  -5.546   0.998  0.00  0.00    -0.236 N 
ATOM     23  N   UNL     1      -2.019  -4.433   1.811  0.00  0.00    -0.169 NA
ATOM     24  C   UNL     1      -3.638  -5.637  -1.339  0.00  0.00    +0.056 C 
ATOM     25  C   UNL     1      -4.639  -4.533  -1.744  0.00  0.00    +0.011 C 
ATOM     26  C   UNL     1      -4.014  -3.279  -1.094  0.00  0.00    +0.039 C 
BRANCH  22  27
ATOM     27  C   UNL     1      -1.829  -6.857   1.240  0.00  0.00    +0.066 A 
ATOM     28  C   UNL     1      -2.623  -7.933   0.868  0.00  0.00    +0.028 A 
ATOM     29  C   UNL     1      -2.192  -9.223   1.108  0.00  0.00    +0.002 A 
ATOM     30  C   UNL     1      -0.970  -9.443   1.718  0.00  0.00    +0.000 A 
ATOM     31  C   UNL     1      -0.177  -8.373   2.089  0.00  0.00    +0.002 A 
ATOM     32  C   UNL     1      -0.600  -7.081   1.846  0.00  0.00    +0.028 A 
ENDBRANCH  22  27
ENDBRANCH  18  19
ENDBRANCH   5  18
TORSDOF 5
