REMARK  Name = ZINC60378553
REMARK  7 active torsions:
REMARK  status: ('A' for Active; 'I' for Inactive)
REMARK    1  A    between atoms: C_1  and  C_2
REMARK    2  A    between atoms: C_2  and  C_3
REMARK    3  A    between atoms: C_5  and  C_8
REMARK    4  A    between atoms: C_8  and  C_9
REMARK    5  A    between atoms: N_11  and  C_12
REMARK    6  A    between atoms: C_13  and  C_28
REMARK    7  A    between atoms: N_16  and  C_17
REMARK                            x       y       z     vdW  Elec       q    Type
REMARK                         _______ _______ _______ _____ _____    ______ ____
ROOT
ATOM      1  C   UNL     1      -1.541   0.702   7.043  0.00  0.00    +0.127 A 
ATOM      2  C   UNL     1      -2.228   0.709   8.218  0.00  0.00    +0.009 A 
ATOM      3  C   UNL     1      -3.091   1.807   8.203  0.00  0.00    +0.139 A 
ATOM      4  N   UNL     1      -2.935   2.438   7.067  0.00  0.00    -0.177 NA
ATOM      5  N   UNL     1      -1.960   1.766   6.319  0.00  0.00    -0.243 N 
ATOM      6  C   UNL     1      -2.082  -0.291   9.336  0.00  0.00    +0.049 C 
ENDROOT
BRANCH   5   7
ATOM      7  C   UNL     1      -1.481   2.145   4.988  0.00  0.00    +0.139 C 
ATOM      8  C   UNL     1      -2.671   2.260   4.038  0.00  0.00    +0.032 C 
ATOM      9  C   UNL     1      -2.180   2.865   2.718  0.00  0.00    +0.007 C 
ATOM     10  C   UNL     1      -1.824   4.330   2.963  0.00  0.00    +0.035 C 
ATOM     11  C   UNL     1      -0.902   4.460   4.148  0.00  0.00    -0.042 A 
ATOM     12  C   UNL     1      -0.749   3.458   5.079  0.00  0.00    -0.020 A 
ATOM     13  C   UNL     1       0.113   3.645   6.153  0.00  0.00    +0.006 A 
ATOM     14  C   UNL     1       0.816   4.824   6.290  0.00  0.00    +0.000 A 
ATOM     15  C   UNL     1       0.664   5.828   5.352  0.00  0.00    +0.000 A 
ATOM     16  C   UNL     1      -0.191   5.644   4.287  0.00  0.00    +0.004 A 
ENDBRANCH   5   7
BRANCH   1  19
ATOM     17  C   UNL     1       0.211  -0.806   7.585  0.00  0.00    +0.224 C 
ATOM     18  O   UNL     1       0.150  -0.447   8.741  0.00  0.00    -0.275 OA
ATOM     19  N   UNL     1      -0.577  -0.229   6.657  0.00  0.00    -0.270 N 
ATOM     20  H   UNL     1      -0.474  -0.460   5.720  0.00  0.00    +0.156 HD
BRANCH  17  21
ATOM     21  C   UNL     1       1.169  -1.899   7.185  0.00  0.00    +0.152 C 
BRANCH  21  24
ATOM     22  C   UNL     1       3.261  -1.948  10.212  0.00  0.00    +0.078 A 
ATOM     23  N   UNL     1       2.604  -1.534   9.158  0.00  0.00    -0.248 NA
ATOM     24  C   UNL     1       1.927  -2.372   8.399  0.00  0.00    +0.057 A 
ATOM     25  C   UNL     1       1.942  -3.680   8.761  0.00  0.00    +0.070 A 
ATOM     26  S   UNL     1       2.974  -3.607  10.216  0.00  0.00    -0.080 S 
BRANCH  22  28
ATOM     27  C   UNL     1       3.188  -0.658  12.329  0.00  0.00    +0.011 C 
ATOM     28  C   UNL     1       4.081  -1.138  11.183  0.00  0.00    +0.059 C 
ENDBRANCH  22  28
ENDBRANCH  21  24
ENDBRANCH  17  21
ENDBRANCH   1  19
TORSDOF 5
