REMARK  Name = ZINC67160997
REMARK  11 active torsions:
REMARK  status: ('A' for Active; 'I' for Inactive)
REMARK    1  A    between atoms: C_1  and  N_2
REMARK    2  A    between atoms: N_2  and  C_3
REMARK    3  A    between atoms: N_2  and  C_4
REMARK    4  A    between atoms: C_4  and  C_6
REMARK    5  A    between atoms: C_4  and  C_26
REMARK    6  A    between atoms: C_6  and  N_7
REMARK    7  A    between atoms: C_8  and  C_10
REMARK    8  A    between atoms: C_10  and  C_11
REMARK    9  A    between atoms: C_11  and  C_12
REMARK   10  A    between atoms: C_12  and  C_13
REMARK   11  A    between atoms: C_13  and  C_14
REMARK                            x       y       z     vdW  Elec       q    Type
REMARK                         _______ _______ _______ _____ _____    ______ ____
ROOT
ATOM      1  N   UNL     1       0.073  -2.014   0.994  0.00  0.00    -0.317 N 
ATOM      2  C   UNL     1       0.492  -3.276   1.209  0.00  0.00    +0.213 C 
ATOM      3  O   UNL     1       0.137  -4.168   0.467  0.00  0.00    -0.276 OA
ATOM      4  H   UNL     1       0.356  -1.301   1.588  0.00  0.00    +0.149 HD
ENDROOT
BRANCH   1   5
ATOM      5  C   UNL     1      -0.810  -1.717  -0.136  0.00  0.00    +0.093 C 
BRANCH   5   6
ATOM      6  C   UNL     1      -1.238  -0.249  -0.078  0.00  0.00    -0.021 C 
BRANCH   6   7
ATOM      7  C   UNL     1      -2.079  -0.019   1.150  0.00  0.00    -0.052 A 
ATOM      8  C   UNL     1      -1.526   0.550   2.283  0.00  0.00    +0.009 A 
ATOM      9  C   UNL     1      -2.311   0.743   3.371  0.00  0.00    +0.045 A 
ATOM     10  S   UNL     1      -3.884   0.113   2.809  0.00  0.00    -0.105 S 
ATOM     11  C   UNL     1      -3.391  -0.361   1.160  0.00  0.00    +0.047 A 
ENDBRANCH   6   7
BRANCH   6  13
ATOM     12  C   UNL     1      -2.470   1.477  -1.200  0.00  0.00    -0.096 C 
ATOM     13  N   UNL     1      -2.021   0.081  -1.277  0.00  0.00    +0.382 N 
ATOM     14  C   UNL     1      -1.186  -0.100  -2.472  0.00  0.00    -0.096 C 
ATOM     15  H   UNL     1      -2.824  -0.528  -1.332  0.00  0.00    -0.082 HD
ENDBRANCH   6  13
ENDBRANCH   5   6
ENDBRANCH   1   5
BRANCH   2  16
ATOM     16  C   UNL     1       1.400  -3.581   2.372  0.00  0.00    +0.096 C 
BRANCH  16  17
ATOM     17  C   UNL     1       1.723  -5.077   2.389  0.00  0.00    +0.009 C 
BRANCH  17  18
ATOM     18  C   UNL     1       2.646  -5.386   3.570  0.00  0.00    +0.002 C 
BRANCH  18  19
ATOM     19  C   UNL     1       2.968  -6.882   3.586  0.00  0.00    +0.016 C 
BRANCH  19  20
ATOM     20  C   UNL     1       3.891  -7.191   4.767  0.00  0.00    +0.069 C 
ATOM     21  C   UNL     1       4.208  -8.663   4.839  0.00  0.00    +0.108 C 
ATOM     22  C   UNL     1       5.366  -8.972   3.841  0.00  0.00    +0.105 C 
ATOM     23  C   UNL     1       6.531  -8.091   4.287  0.00  0.00    +0.093 C 
ATOM     24  S   UNL     1       5.584  -6.488   4.496  0.00  0.00    -0.154 S 
ATOM     25  N   UNL     1       5.413 -10.410   3.974  0.00  0.00    -0.294 N 
ATOM     26  C   UNL     1       4.124 -10.795   4.216  0.00  0.00    +0.300 C 
ATOM     27  O   UNL     1       3.739 -11.946   4.137  0.00  0.00    -0.253 OA
ATOM     28  N   UNL     1       3.319  -9.746   4.537  0.00  0.00    -0.294 N 
ATOM     29  H   UNL     1       6.194 -10.981   3.907  0.00  0.00    +0.151 HD
ATOM     30  H   UNL     1       2.350  -9.738   4.562  0.00  0.00    +0.151 HD
ENDBRANCH  19  20
ENDBRANCH  18  19
ENDBRANCH  17  18
ENDBRANCH  16  17
ENDBRANCH   2  16
TORSDOF 9
