REMARK  Name = ZINC00422602
REMARK  7 active torsions:
REMARK  status: ('A' for Active; 'I' for Inactive)
REMARK    1  A    between atoms: C_1  and  C_2
REMARK    2  A    between atoms: C_3  and  C_25
REMARK    3  A    between atoms: C_7  and  S_11
REMARK    4  A    between atoms: S_11  and  C_12
REMARK    5  A    between atoms: C_12  and  C_13
REMARK    6  A    between atoms: N_15  and  C_16
REMARK    7  A    between atoms: C_22  and  C_24
REMARK                            x       y       z     vdW  Elec       q    Type
REMARK                         _______ _______ _______ _____ _____    ______ ____
ROOT
ATOM      1  S   UNL     1      -3.545  -0.092  -3.634  0.00  0.00    -0.096 S 
ENDROOT
BRANCH   1   8
ATOM      2  C   UNL     1      -6.037  -1.574  -3.930  0.00  0.00    +0.045 C 
ATOM      3  C   UNL     1      -6.400  -0.702  -5.104  0.00  0.00    -0.029 A 
ATOM      4  C   UNL     1      -7.555  -0.891  -5.759  0.00  0.00    -0.008 A 
ATOM      5  S   UNL     1      -7.522   0.357  -7.032  0.00  0.00    -0.074 S 
ATOM      6  C   UNL     1      -5.958   1.099  -6.650  0.00  0.00    +0.113 A 
ATOM      7  C   UNL     1      -5.500   0.350  -5.544  0.00  0.00    +0.043 A 
ATOM      8  C   UNL     1      -4.239   0.748  -5.019  0.00  0.00    +0.109 A 
ATOM      9  N   UNL     1      -3.592   1.754  -5.586  0.00  0.00    -0.229 NA
ATOM     10  C   UNL     1      -4.080   2.408  -6.625  0.00  0.00    +0.223 A 
ATOM     11  N   UNL     1      -5.246   2.088  -7.153  0.00  0.00    -0.228 NA
ATOM     12  C   UNL     1      -8.626  -1.915  -5.484  0.00  0.00    +0.052 C 
ENDBRANCH   1   8
BRANCH   1  13
ATOM     13  C   UNL     1      -1.998   0.830  -3.451  0.00  0.00    +0.171 C 
BRANCH  13  14
ATOM     14  C   UNL     1      -1.214   0.270  -2.292  0.00  0.00    +0.223 C 
ATOM     15  O   UNL     1      -1.657  -0.660  -1.653  0.00  0.00    -0.275 OA
ATOM     16  N   UNL     1      -0.020   0.803  -1.966  0.00  0.00    -0.312 N 
ATOM     17  H   UNL     1       0.335   1.548  -2.477  0.00  0.00    +0.149 HD
BRANCH  16  18
ATOM     18  C   UNL     1       0.743   0.259  -0.839  0.00  0.00    +0.076 C 
ATOM     19  C   UNL     1       0.263   0.907   0.461  0.00  0.00    +0.022 C 
ATOM     20  C   UNL     1       1.059   0.339   1.638  0.00  0.00    +0.002 C 
ATOM     21  C   UNL     1       2.546   0.636   1.438  0.00  0.00    +0.000 C 
ATOM     22  C   UNL     1       3.026  -0.011   0.138  0.00  0.00    +0.005 C 
ATOM     23  C   UNL     1       2.230   0.557  -1.039  0.00  0.00    +0.006 C 
ATOM     24  C   UNL     1       2.710  -0.091  -2.339  0.00  0.00    +0.009 C 
ENDBRANCH  16  18
ENDBRANCH  13  14
ENDBRANCH   1  13
TORSDOF 4
