REMARK  Name = ZINC32916789
REMARK  7 active torsions:
REMARK  status: ('A' for Active; 'I' for Inactive)
REMARK    1  A    between atoms: C_1  and  C_2
REMARK    2  A    between atoms: C_2  and  C_29
REMARK    3  A    between atoms: C_3  and  C_4
REMARK    4  A    between atoms: C_3  and  N_20
REMARK    5  A    between atoms: N_6  and  N_7
REMARK    6  A    between atoms: C_8  and  C_9
REMARK    7  A    between atoms: C_21  and  C_23
REMARK                            x       y       z     vdW  Elec       q    Type
REMARK                         _______ _______ _______ _____ _____    ______ ____
ROOT
ATOM      1  C   UNL     1       3.015   6.357   0.008  0.00  0.00    +0.277 C 
ATOM      2  O   UNL     1       2.436   6.511   1.066  0.00  0.00    -0.267 OA
ATOM      3  N   UNL     1       2.481   6.844  -1.130  0.00  0.00    -0.202 N 
ATOM      4  H   UNL     1       3.042   6.778  -2.074  0.00  0.00    +0.178 HD
ENDROOT
BRANCH   1   7
ATOM      5  C   UNL     1       5.627   3.568  -0.191  0.00  0.00    +0.041 C 
ATOM      6  C   UNL     1       4.328   4.327  -0.280  0.00  0.00    -0.049 C 
ATOM      7  C   UNL     1       4.303   5.639  -0.031  0.00  0.00    +0.097 C 
ATOM      8  C   UNL     1       3.057   3.605  -0.648  0.00  0.00    +0.041 C 
BRANCH   7   9
ATOM      9  N   UNL     1       5.498   6.332   0.193  0.00  0.00    -0.277 N 
ATOM     10  C   UNL     1       5.467   7.630   0.555  0.00  0.00    +0.248 C 
ATOM     11  O   UNL     1       4.402   8.175   0.772  0.00  0.00    -0.270 OA
ATOM     12  H   UNL     1       6.463   5.818   0.073  0.00  0.00    +0.155 HD
BRANCH  10  13
ATOM     13  C   UNL     1       6.727   8.391   0.688  0.00  0.00    +0.037 A 
ATOM     14  C   UNL     1       7.952   7.766   0.445  0.00  0.00    +0.013 A 
ATOM     15  C   UNL     1       9.124   8.484   0.566  0.00  0.00    +0.001 A 
ATOM     16  C   UNL     1       9.089   9.816   0.938  0.00  0.00    +0.000 A 
ATOM     17  C   UNL     1       7.878  10.439   1.185  0.00  0.00    +0.001 A 
ATOM     18  C   UNL     1       6.699   9.735   1.063  0.00  0.00    +0.013 A 
ENDBRANCH  10  13
ENDBRANCH   7   9
ENDBRANCH   1   7
BRANCH   3  19
ATOM     19  N   UNL     1       1.210   7.434  -1.110  0.00  0.00    -0.187 NA
ATOM     20  C   UNL     1       0.636   7.777  -2.223  0.00  0.00    +0.145 C 
BRANCH  20  21
ATOM     21  C   UNL     1       1.017   7.114  -3.483  0.00  0.00    +0.077 A 
ATOM     22  C   UNL     1       1.660   5.912  -3.470  0.00  0.00    +0.209 A 
ATOM     23  O   UNL     1       2.015   5.278  -4.589  0.00  0.00    -0.462 OA
ATOM     24  C   UNL     1       1.785   5.766  -5.824  0.00  0.00    +0.138 A 
ATOM     25  C   UNL     1       2.188   5.056  -6.950  0.00  0.00    +0.047 A 
ATOM     26  C   UNL     1       1.942   5.562  -8.208  0.00  0.00    +0.004 A 
ATOM     27  C   UNL     1       1.294   6.778  -8.369  0.00  0.00    +0.001 A 
ATOM     28  C   UNL     1       0.887   7.498  -7.268  0.00  0.00    +0.015 A 
ATOM     29  C   UNL     1       1.130   6.997  -5.989  0.00  0.00    +0.065 A 
ATOM     30  C   UNL     1       0.710   7.737  -4.784  0.00  0.00    +0.201 A 
ATOM     31  O   UNL     1       0.137   8.810  -4.860  0.00  0.00    -0.286 OA
ENDBRANCH  20  21
ENDBRANCH   3  19
TORSDOF 5
