REMARK  Name = ZINC63401991
REMARK  10 active torsions:
REMARK  status: ('A' for Active; 'I' for Inactive)
REMARK    1  A    between atoms: C_1  and  C_2
REMARK    2  A    between atoms: C_4  and  C_28
REMARK    3  A    between atoms: N_5  and  C_7
REMARK    4  A    between atoms: C_10  and  C_13
REMARK    5  A    between atoms: C_13  and  C_14
REMARK    6  A    between atoms: C_14  and  N_15
REMARK    7  A    between atoms: N_18  and  C_19
REMARK    8  A    between atoms: N_18  and  C_22
REMARK    9  A    between atoms: C_19  and  C_20
REMARK   10  A    between atoms: C_22  and  C_23
REMARK                            x       y       z     vdW  Elec       q    Type
REMARK                         _______ _______ _______ _____ _____    ______ ____
ROOT
ATOM      1  C   UNL     1       1.625  -8.020   2.500  0.00  0.00    +0.110 C 
ENDROOT
BRANCH   1   2
ATOM      2  N   UNL     1       1.705  -9.328   3.155  0.00  0.00    -0.299 N 
ATOM      3  C   UNL     1       2.720 -10.166   2.866  0.00  0.00    +0.303 C 
ATOM      4  O   UNL     1       3.570  -9.836   2.062  0.00  0.00    -0.253 OA
ATOM      5  N   UNL     1       2.793 -11.370   3.469  0.00  0.00    -0.267 N 
ATOM      6  H   UNL     1       1.027  -9.591   3.797  0.00  0.00    +0.150 HD
BRANCH   5   7
ATOM      7  C   UNL     1       1.769 -11.767   4.438  0.00  0.00    +0.198 C 
BRANCH   7   8
ATOM      8  C   UNL     1       0.673 -12.458   3.739  0.00  0.00    -0.086 C 
ATOM      9  C   UNL     1      -0.201 -13.009   3.181  0.00  0.00    +0.005 C 
ENDBRANCH   7   8
ENDBRANCH   5   7
BRANCH   5  10
ATOM     10  C   UNL     1       3.896 -12.280   3.154  0.00  0.00    +0.184 C 
BRANCH  10  11
ATOM     11  C   UNL     1       5.045 -12.021   4.095  0.00  0.00    +0.122 A 
ATOM     12  C   UNL     1       5.241 -12.623   5.281  0.00  0.00    +0.046 A 
ATOM     13  C   UNL     1       6.431 -12.083   5.823  0.00  0.00    +0.041 A 
ATOM     14  C   UNL     1       6.890 -11.183   4.934  0.00  0.00    +0.195 A 
ATOM     15  O   UNL     1       6.050 -11.154   3.887  0.00  0.00    -0.466 OA
ENDBRANCH  10  11
ENDBRANCH   5  10
ENDBRANCH   1   2
BRANCH   1  16
ATOM     16  C   UNL     1       0.388  -7.273   3.002  0.00  0.00    +0.054 C 
BRANCH  16  20
ATOM     17  C   UNL     1       0.157  -3.457   1.092  0.00  0.00    +0.066 A 
ATOM     18  C   UNL     1      -0.457  -4.561   0.516  0.00  0.00    +0.028 A 
ATOM     19  C   UNL     1      -0.380  -5.793   1.136  0.00  0.00    +0.006 A 
ATOM     20  C   UNL     1       0.307  -5.927   2.329  0.00  0.00    -0.046 A 
ATOM     21  C   UNL     1       0.919  -4.829   2.904  0.00  0.00    +0.006 A 
ATOM     22  C   UNL     1       0.851  -3.596   2.286  0.00  0.00    +0.028 A 
BRANCH  17  27
ATOM     23  C   UNL     1       1.470   0.990  -0.670  0.00  0.00    +0.067 C 
ATOM     24  C   UNL     1       0.675  -0.238  -0.310  0.00  0.00    +0.061 A 
ATOM     25  C   UNL     1      -0.676  -0.455  -0.601  0.00  0.00    +0.047 A 
ATOM     26  C   UNL     1      -1.018  -1.671  -0.114  0.00  0.00    +0.042 A 
ATOM     27  N   UNL     1       0.081  -2.205   0.465  0.00  0.00    -0.237 N 
ATOM     28  N   UNL     1       1.131  -1.288   0.324  0.00  0.00    -0.171 NA
ATOM     29  C   UNL     1      -2.378  -2.313  -0.202  0.00  0.00    +0.066 C 
ENDBRANCH  17  27
ENDBRANCH  16  20
ENDBRANCH   1  16
TORSDOF 8
