REMARK  Name = ZINC42489131
REMARK  6 active torsions:
REMARK  status: ('A' for Active; 'I' for Inactive)
REMARK    1  A    between atoms: C_1  and  N_2
REMARK    2  A    between atoms: N_2  and  C_3
REMARK    3  A    between atoms: N_2  and  C_10
REMARK    4  A    between atoms: C_3  and  C_4
REMARK    5  A    between atoms: C_15  and  C_16
REMARK    6  A    between atoms: C_16  and  N_17
REMARK                            x       y       z     vdW  Elec       q    Type
REMARK                         _______ _______ _______ _____ _____    ______ ____
ROOT
ATOM      1  C   UNL     1      -0.244  -0.725  -1.280  0.00  0.00    +0.032 A 
ATOM      2  C   UNL     1       0.907  -1.042  -1.990  0.00  0.00    +0.038 A 
ATOM      3  C   UNL     1       0.826  -1.847  -3.110  0.00  0.00    +0.020 A 
ATOM      4  C   UNL     1      -0.401  -2.337  -3.524  0.00  0.00    +0.015 A 
ATOM      5  C   UNL     1      -1.548  -2.023  -2.819  0.00  0.00    +0.004 A 
ATOM      6  C   UNL     1      -1.473  -1.223  -1.695  0.00  0.00    -0.044 A 
ATOM      7 BR   UNL     1       2.392  -2.279  -4.078  0.00  0.00    -0.050 Br
ENDROOT
BRANCH   1   9
ATOM      8  C   UNL     1      -0.073  -0.517   1.184  0.00  0.00    +0.129 C 
ATOM      9  N   UNL     1      -0.166   0.088  -0.147  0.00  0.00    -0.328 N 
BRANCH   9  10
ATOM     10  C   UNL     1      -0.177   1.546  -0.289  0.00  0.00    +0.147 C 
BRANCH  10  11
ATOM     11  C   UNL     1       1.239   2.061  -0.299  0.00  0.00    +0.008 A 
ATOM     12  C   UNL     1       2.080   2.224  -1.348  0.00  0.00    +0.014 A 
ATOM     13  C   UNL     1       3.351   2.719  -1.118  0.00  0.00    +0.028 A 
ATOM     14  C   UNL     1       3.717   3.025   0.152  0.00  0.00    +0.078 A 
ATOM     15  S   UNL     1       2.240   2.620   1.069  0.00  0.00    -0.080 S 
ATOM     16 CL   UNL     1       5.227   3.654   0.733  0.00  0.00    -0.076 Cl
ENDBRANCH  10  11
ENDBRANCH   9  10
ENDBRANCH   1   9
BRANCH   6  17
ATOM     17  C   UNL     1      -2.723  -0.887  -0.924  0.00  0.00    -0.049 C 
BRANCH  17  18
ATOM     18  N   UNL     1      -3.182   0.457  -1.297  0.00  0.00    +0.381 N 
ATOM     19  H   UNL     1      -3.981   0.708  -0.735  0.00  0.00    -0.090 HD
ATOM     20  H   UNL     1      -2.439   1.122  -1.141  0.00  0.00    -0.090 HD
ATOM     21  H   UNL     1      -3.441   0.466  -2.272  0.00  0.00    -0.090 HD
ENDBRANCH  17  18
ENDBRANCH   6  17
TORSDOF 5
