REMARK  Name = ZINC64838815
REMARK  11 active torsions:
REMARK  status: ('A' for Active; 'I' for Inactive)
REMARK    1  A    between atoms: C_1  and  C_2
REMARK    2  A    between atoms: C_4  and  C_36
REMARK    3  A    between atoms: N_5  and  C_22
REMARK    4  A    between atoms: C_8  and  S_9
REMARK    5  A    between atoms: S_9  and  C_12
REMARK    6  A    between atoms: C_15  and  C_18
REMARK    7  A    between atoms: C_18  and  C_19
REMARK    8  A    between atoms: C_19  and  C_20
REMARK    9  A    between atoms: C_19  and  C_21
REMARK   10  A    between atoms: C_22  and  C_23
REMARK   11  A    between atoms: N_25  and  C_26
REMARK                            x       y       z     vdW  Elec       q    Type
REMARK                         _______ _______ _______ _____ _____    ______ ____
ROOT
ATOM      1  C   UNL     1       0.602   1.441  -0.913  0.00  0.00    +0.046 C 
ATOM      2  C   UNL     1       0.449  -0.050  -0.757  0.00  0.00    -0.018 A 
ATOM      3  C   UNL     1       0.017  -0.835  -1.836  0.00  0.00    +0.026 A 
ATOM      4  C   UNL     1      -0.117  -2.173  -1.686  0.00  0.00    +0.020 A 
ATOM      5  N   UNL     1       0.163  -2.770  -0.499  0.00  0.00    -0.302 N 
ATOM      6  C   UNL     1       0.580  -2.043   0.555  0.00  0.00    +0.278 A 
ATOM      7  O   UNL     1       0.828  -2.594   1.616  0.00  0.00    -0.266 OA
ATOM      8  C   UNL     1       0.735  -0.652   0.433  0.00  0.00    +0.161 A 
ATOM      9  C   UNL     1      -0.583  -3.010  -2.849  0.00  0.00    +0.063 C 
ENDROOT
BRANCH   8  10
ATOM     10  S   UNL     1       1.287   0.306   1.805  0.00  0.00    +0.030 S 
ATOM     11  O   UNL     1       2.172  -0.520   2.548  0.00  0.00    -0.164 OA
ATOM     12  O   UNL     1       1.679   1.570   1.286  0.00  0.00    -0.164 OA
BRANCH  10  13
ATOM     13  C   UNL     1      -0.113   0.597   2.834  0.00  0.00    +0.094 A 
ATOM     14  C   UNL     1      -0.903   1.713   2.628  0.00  0.00    +0.027 A 
ATOM     15  C   UNL     1      -2.001   1.941   3.435  0.00  0.00    +0.005 A 
ATOM     16  C   UNL     1      -2.311   1.053   4.449  0.00  0.00    -0.047 A 
ATOM     17  C   UNL     1      -1.522  -0.063   4.654  0.00  0.00    +0.005 A 
ATOM     18  C   UNL     1      -0.426  -0.293   3.844  0.00  0.00    +0.027 A 
BRANCH  16  19
ATOM     19  C   UNL     1      -3.508   1.303   5.329  0.00  0.00    +0.038 C 
BRANCH  19  20
ATOM     20  C   UNL     1      -4.740   0.635   4.716  0.00  0.00    -0.013 C 
ATOM     21  C   UNL     1      -5.927   0.781   5.670  0.00  0.00    +0.007 C 
ATOM     22  C   UNL     1      -5.073   1.306   3.382  0.00  0.00    +0.007 C 
ENDBRANCH  19  20
ENDBRANCH  16  19
ENDBRANCH  10  13
ENDBRANCH   8  10
BRANCH   5  23
ATOM     23  C   UNL     1       0.010  -4.221  -0.364  0.00  0.00    +0.221 C 
BRANCH  23  24
ATOM     24  C   UNL     1       1.306  -4.899  -0.726  0.00  0.00    +0.237 C 
ATOM     25  O   UNL     1       2.263  -4.235  -1.065  0.00  0.00    -0.274 OA
ATOM     26  N   UNL     1       1.401  -6.242  -0.675  0.00  0.00    -0.284 N 
ATOM     27  H   UNL     1       0.616  -6.777  -0.478  0.00  0.00    +0.155 HD
BRANCH  26  28
ATOM     28  C   UNL     1       2.634  -6.866  -0.906  0.00  0.00    +0.037 A 
ATOM     29  C   UNL     1       2.679  -8.106  -1.530  0.00  0.00    +0.027 A 
ATOM     30  C   UNL     1       3.894  -8.722  -1.757  0.00  0.00    +0.051 A 
ATOM     31  C   UNL     1       5.072  -8.105  -1.364  0.00  0.00    +0.162 A 
ATOM     32  C   UNL     1       5.031  -6.863  -0.741  0.00  0.00    +0.164 A 
ATOM     33  C   UNL     1       3.811  -6.244  -0.516  0.00  0.00    +0.072 A 
ATOM     34  O   UNL     1       6.177  -6.239  -0.355  0.00  0.00    -0.485 OA
ATOM     35  C   UNL     1       7.353  -7.051  -0.263  0.00  0.00    +0.270 C 
ATOM     36  C   UNL     1       7.438  -7.918  -1.527  0.00  0.00    +0.270 C 
ATOM     37  O   UNL     1       6.261  -8.730  -1.593  0.00  0.00    -0.485 OA
ENDBRANCH  26  28
ENDBRANCH  23  24
ENDBRANCH   5  23
TORSDOF 7
