REMARK  Name = ZINC15082142
REMARK  5 active torsions:
REMARK  status: ('A' for Active; 'I' for Inactive)
REMARK    1  A    between atoms: C_1  and  O_2
REMARK    2  A    between atoms: O_2  and  C_3
REMARK    3  A    between atoms: C_8  and  C_9
REMARK    4  A    between atoms: C_18  and  C_26
REMARK    5  A    between atoms: C_19  and  C_20
REMARK                            x       y       z     vdW  Elec       q    Type
REMARK                         _______ _______ _______ _____ _____    ______ ____
ROOT
ATOM      1  C   UNL     1       2.450   3.947  -0.001  0.00  0.00    +0.070 C 
ATOM      2  C   UNL     1       2.529   4.837   1.247  0.00  0.00    +0.109 C 
ATOM      3  C   UNL     1       1.658   6.050   1.087  0.00  0.00    +0.218 C 
ATOM      4  O   UNL     1       1.046   6.455   2.053  0.00  0.00    -0.275 OA
ATOM      5  N   UNL     1       1.526   6.708  -0.077  0.00  0.00    -0.284 N 
ATOM      6  C   UNL     1       2.069   6.129  -1.260  0.00  0.00    +0.053 A 
ATOM      7  C   UNL     1       2.503   4.829  -1.209  0.00  0.00    +0.020 A 
ATOM      8  S   UNL     1       3.086   4.487  -2.788  0.00  0.00    -0.084 S 
ATOM      9  C   UNL     1       2.741   6.066  -3.547  0.00  0.00    +0.110 A 
ATOM     10  C   UNL     1       2.181   6.782  -2.485  0.00  0.00    +0.025 A 
ATOM     11  H   UNL     1       1.070   7.564  -0.112  0.00  0.00    +0.155 HD
ENDROOT
BRANCH   1  17
ATOM     12  C   UNL     1       1.179   1.786   0.000  0.00  0.00    +0.124 A 
ATOM     13  C   UNL     1      -0.013   1.076   0.008  0.00  0.00    +0.047 A 
ATOM     14  C   UNL     1      -1.218   1.751   0.017  0.00  0.00    +0.019 A 
ATOM     15  C   UNL     1      -1.237   3.134   0.031  0.00  0.00    +0.018 A 
ATOM     16  C   UNL     1      -0.050   3.844   0.023  0.00  0.00    +0.023 A 
ATOM     17  C   UNL     1       1.158   3.173   0.008  0.00  0.00    +0.004 A 
ATOM     18 BR   UNL     1      -2.888   4.055   0.052  0.00  0.00    -0.050 Br
BRANCH  12  20
ATOM     19  C   UNL     1       2.312  -0.304  -0.023  0.00  0.00    +0.277 C 
ATOM     20  O   UNL     1       2.366   1.124  -0.015  0.00  0.00    -0.495 OA
ENDBRANCH  12  20
ENDBRANCH   1  17
BRANCH  10  21
ATOM     21  C   UNL     1       1.724   8.180  -2.656  0.00  0.00    -0.015 A 
ATOM     22  C   UNL     1       0.370   8.495  -2.535  0.00  0.00    +0.008 A 
ATOM     23  C   UNL     1      -0.048   9.800  -2.691  0.00  0.00    +0.001 A 
ATOM     24  C   UNL     1       0.870  10.795  -2.977  0.00  0.00    +0.000 A 
ATOM     25  C   UNL     1       2.214  10.489  -3.103  0.00  0.00    +0.001 A 
ATOM     26  C   UNL     1       2.645   9.188  -2.945  0.00  0.00    +0.008 A 
ENDBRANCH  10  21
BRANCH   9  27
ATOM     27  C   UNL     1       2.975   6.484  -4.881  0.00  0.00    +0.394 C 
ATOM     28  O   UNL     1       2.673   7.611  -5.227  0.00  0.00    -0.240 OA
ATOM     29  O   UNL     1       3.533   5.633  -5.768  0.00  0.00    -0.240 OA
ENDBRANCH   9  27
TORSDOF 4
