REMARK  Name = ZINC21924109
REMARK  8 active torsions:
REMARK  status: ('A' for Active; 'I' for Inactive)
REMARK    1  A    between atoms: C_1  and  C_2
REMARK    2  A    between atoms: C_4  and  C_30
REMARK    3  A    between atoms: C_8  and  N_29
REMARK    4  A    between atoms: C_9  and  C_11
REMARK    5  A    between atoms: C_11  and  O_13
REMARK    6  A    between atoms: O_13  and  C_14
REMARK    7  A    between atoms: C_14  and  C_16
REMARK    8  A    between atoms: C_14  and  C_17
REMARK                            x       y       z     vdW  Elec       q    Type
REMARK                         _______ _______ _______ _____ _____    ______ ____
ROOT
ATOM      1  C   UNL     1       1.439   7.001   1.312  0.00  0.00    +0.348 C 
ATOM      2  O   UNL     1       0.591   7.866   1.429  0.00  0.00    -0.244 OA
ENDROOT
BRANCH   1  11
ATOM      3  C   UNL     1      -2.904   3.581   1.057  0.00  0.00    +0.044 C 
ATOM      4  C   UNL     1      -1.558   2.913   0.947  0.00  0.00    -0.037 A 
ATOM      5  C   UNL     1      -1.466   1.549   0.790  0.00  0.00    +0.027 A 
ATOM      6  C   UNL     1      -0.226   0.936   0.695  0.00  0.00    +0.040 A 
ATOM      7  N   UNL     1       0.880   1.653   0.744  0.00  0.00    -0.245 NA
ATOM      8  C   UNL     1       0.845   2.960   0.887  0.00  0.00    +0.111 A 
ATOM      9  C   UNL     1      -0.367   3.679   0.998  0.00  0.00    +0.032 A 
ATOM     10  C   UNL     1      -0.220   5.119   1.151  0.00  0.00    +0.056 A 
ATOM     11  C   UNL     1       1.053   5.646   1.175  0.00  0.00    +0.119 A 
ATOM     12  S   UNL     1       2.097   4.214   0.991  0.00  0.00    -0.060 S 
ATOM     13  C   UNL     1      -0.142  -0.560   0.529  0.00  0.00    +0.065 C 
BRANCH  10  14
ATOM     14  N   UNL     1      -1.332   5.939   1.270  0.00  0.00    -0.356 N 
ATOM     15  H   UNL     1      -1.204   7.025   1.385  0.00  0.00    +0.142 HD
ATOM     16  H   UNL     1      -2.342   5.503   1.249  0.00  0.00    +0.142 HD
ENDBRANCH  10  14
ENDBRANCH   1  11
BRANCH   1  17
ATOM     17  O   UNL     1       2.747   7.333   1.313  0.00  0.00    -0.448 OA
BRANCH  17  18
ATOM     18  C   UNL     1       3.064   8.720   1.456  0.00  0.00    +0.259 C 
ATOM     19  C   UNL     1       3.215   9.058   2.940  0.00  0.00    +0.062 C 
BRANCH  18  20
ATOM     20  C   UNL     1       4.356   9.016   0.738  0.00  0.00    +0.256 C 
ATOM     21  O   UNL     1       4.947   8.127   0.162  0.00  0.00    -0.272 OA
ATOM     22  N   UNL     1       4.854  10.268   0.737  0.00  0.00    -0.294 N 
ATOM     23  C   UNL     1       6.117  10.589   0.052  0.00  0.00    +0.113 C 
ATOM     24  C   UNL     1       5.792  11.560  -1.089  0.00  0.00    +0.054 C 
ATOM     25  C   UNL     1       4.907  12.677  -0.604  0.00  0.00    -0.041 A 
ATOM     26  C   UNL     1       4.860  13.839  -1.366  0.00  0.00    +0.004 A 
ATOM     27  C   UNL     1       4.060  14.896  -0.986  0.00  0.00    +0.000 A 
ATOM     28  C   UNL     1       3.297  14.802   0.163  0.00  0.00    +0.000 A 
ATOM     29  C   UNL     1       3.344  13.652   0.923  0.00  0.00    +0.005 A 
ATOM     30  C   UNL     1       4.152  12.588   0.543  0.00  0.00    -0.027 A 
ATOM     31  C   UNL     1       4.164  11.364   1.425  0.00  0.00    +0.143 C 
ENDBRANCH  18  20
ENDBRANCH  17  18
ENDBRANCH   1  17
TORSDOF 5
