REMARK  Name = ZINC01971071
REMARK  5 active torsions:
REMARK  status: ('A' for Active; 'I' for Inactive)
REMARK    1  A    between atoms: C_1  and  C_2
REMARK    2  A    between atoms: C_2  and  C_3
REMARK    3  A    between atoms: C_6  and  C_9
REMARK    4  A    between atoms: N_16  and  C_19
REMARK    5  A    between atoms: C_19  and  C_20
REMARK                            x       y       z     vdW  Elec       q    Type
REMARK                         _______ _______ _______ _____ _____    ______ ____
ROOT
ATOM      1  C   UNL     1      -2.369  -4.594  -3.961  0.00  0.00    +0.004 A 
ATOM      2  C   UNL     1      -2.577  -5.930  -4.048  0.00  0.00    +0.056 A 
ATOM      3  S   UNL     1      -2.289  -6.502  -2.385  0.00  0.00    -0.076 S 
ATOM      4  C   UNL     1      -1.899  -4.950  -1.618  0.00  0.00    +0.116 A 
ATOM      5  C   UNL     1      -2.002  -4.024  -2.670  0.00  0.00    +0.080 A 
ATOM      6  C   UNL     1      -1.733  -2.661  -2.324  0.00  0.00    +0.263 A 
ATOM      7  O   UNL     1      -1.796  -1.785  -3.169  0.00  0.00    -0.267 OA
ATOM      8  N   UNL     1      -1.409  -2.362  -1.053  0.00  0.00    -0.290 N 
ATOM      9  C   UNL     1      -1.328  -3.327  -0.100  0.00  0.00    +0.203 A 
ATOM     10  N   UNL     1      -1.573  -4.578  -0.383  0.00  0.00    -0.230 NA
ENDROOT
BRANCH   1  14
ATOM     11  C   UNL     1      -2.777  -2.110  -7.386  0.00  0.00    -0.048 A 
ATOM     12  C   UNL     1      -2.004  -3.255  -7.454  0.00  0.00    +0.004 A 
ATOM     13  C   UNL     1      -1.868  -4.065  -6.345  0.00  0.00    +0.009 A 
ATOM     14  C   UNL     1      -2.511  -3.728  -5.155  0.00  0.00    -0.017 A 
ATOM     15  C   UNL     1      -3.294  -2.575  -5.095  0.00  0.00    +0.009 A 
ATOM     16  C   UNL     1      -3.418  -1.770  -6.208  0.00  0.00    +0.004 A 
BRANCH  11  18
ATOM     17  C   UNL     1      -4.127  -1.687  -9.423  0.00  0.00    +0.009 C 
ATOM     18  C   UNL     1      -2.921  -1.229  -8.600  0.00  0.00    +0.032 C 
ENDBRANCH  11  18
ENDBRANCH   1  14
BRANCH   8  19
ATOM     19  C   UNL     1      -1.132  -0.970  -0.690  0.00  0.00    +0.222 C 
BRANCH  19  20
ATOM     20  C   UNL     1      -2.412  -0.299  -0.261  0.00  0.00    +0.240 C 
ATOM     21  O   UNL     1      -3.433  -0.946  -0.166  0.00  0.00    -0.273 OA
ATOM     22  N   UNL     1      -2.420   1.020   0.016  0.00  0.00    -0.270 N 
ATOM     23  C   UNL     1      -1.168   1.788   0.034  0.00  0.00    +0.114 C 
ATOM     24  C   UNL     1      -1.185   2.684   1.280  0.00  0.00    +0.024 C 
ATOM     25  C   UNL     1      -2.342   3.675   1.159  0.00  0.00    +0.038 C 
ATOM     26  C   UNL     1      -3.626   2.953   0.846  0.00  0.00    -0.026 A 
ATOM     27  C   UNL     1      -3.625   1.679   0.298  0.00  0.00    +0.039 A 
ATOM     28  C   UNL     1      -4.827   1.046   0.008  0.00  0.00    +0.024 A 
ATOM     29  C   UNL     1      -6.025   1.678   0.280  0.00  0.00    +0.002 A 
ATOM     30  C   UNL     1      -6.025   2.944   0.836  0.00  0.00    +0.000 A 
ATOM     31  C   UNL     1      -4.830   3.579   1.117  0.00  0.00    +0.005 A 
ENDBRANCH  19  20
ENDBRANCH   8  19
TORSDOF 4
