REMARK  Name = ZINC67577031
REMARK  7 active torsions:
REMARK  status: ('A' for Active; 'I' for Inactive)
REMARK    1  A    between atoms: C_1  and  C_2
REMARK    2  A    between atoms: C_11  and  C_12
REMARK    3  A    between atoms: C_12  and  C_13
REMARK    4  A    between atoms: C_13  and  N_14
REMARK    5  A    between atoms: N_17  and  C_18
REMARK    6  A    between atoms: C_21  and  N_25
REMARK    7  A    between atoms: C_26  and  C_28
REMARK                            x       y       z     vdW  Elec       q    Type
REMARK                         _______ _______ _______ _____ _____    ______ ____
ROOT
ATOM      1  N   UNL     1       1.517  -6.756  -2.063  0.00  0.00    -0.299 N 
ATOM      2  C   UNL     1       2.684  -7.192  -2.577  0.00  0.00    +0.304 C 
ATOM      3  O   UNL     1       3.728  -6.656  -2.256  0.00  0.00    -0.253 OA
ATOM      4  N   UNL     1       2.695  -8.221  -3.447  0.00  0.00    -0.268 N 
ATOM      5  H   UNL     1       0.685  -7.183  -2.319  0.00  0.00    +0.150 HD
ATOM      6  H   UNL     1       1.875  -8.701  -3.640  0.00  0.00    +0.156 HD
ENDROOT
BRANCH   4   7
ATOM      7  C   UNL     1       3.892  -8.598  -4.072  0.00  0.00    +0.053 A 
ATOM      8  C   UNL     1       4.915  -7.673  -4.228  0.00  0.00    +0.026 A 
ATOM      9  C   UNL     1       6.093  -8.043  -4.844  0.00  0.00    +0.025 A 
ATOM     10  C   UNL     1       6.256  -9.342  -5.308  0.00  0.00    +0.035 A 
ATOM     11  C   UNL     1       5.233 -10.269  -5.152  0.00  0.00    +0.045 A 
ATOM     12  C   UNL     1       4.056  -9.899  -4.531  0.00  0.00    +0.064 A 
ATOM     13 CL   UNL     1       2.780 -11.059  -4.329  0.00  0.00    -0.082 Cl
BRANCH  10  14
ATOM     14  N   UNL     1       7.452  -9.718  -5.933  0.00  0.00    -0.286 N 
ATOM     15  C   UNL     1       7.432 -10.602  -6.950  0.00  0.00    +0.214 C 
ATOM     16  O   UNL     1       6.391 -11.138  -7.268  0.00  0.00    -0.276 OA
ATOM     17  C   UNL     1       8.703 -10.926  -7.692  0.00  0.00    +0.109 C 
ATOM     18  H   UNL     1       8.295  -9.342  -5.634  0.00  0.00    +0.155 HD
ENDBRANCH  10  14
ENDBRANCH   4   7
BRANCH   1  19
ATOM     19  C   UNL     1       1.506  -5.637  -1.118  0.00  0.00    +0.110 C 
BRANCH  19  20
ATOM     20  C   UNL     1       0.066  -5.345  -0.691  0.00  0.00    +0.056 C 
BRANCH  20  31
ATOM     21  C   UNL     1      -0.015   1.503  -0.024  0.00  0.00    +0.044 C 
ATOM     22  C   UNL     1       0.003  -0.004  -0.026  0.00  0.00    -0.048 A 
ATOM     23  C   UNL     1       0.011  -0.689  -1.233  0.00  0.00    +0.004 A 
ATOM     24  C   UNL     1       0.027  -2.055  -1.256  0.00  0.00    +0.010 A 
ATOM     25  C   UNL     1       0.037  -2.768  -0.056  0.00  0.00    +0.003 A 
ATOM     26  C   UNL     1       0.029  -2.079   1.171  0.00  0.00    +0.047 A 
ATOM     27  C   UNL     1       0.018  -0.688   1.170  0.00  0.00    +0.029 A 
ATOM     28  N   UNL     1       0.041  -3.026   2.170  0.00  0.00    -0.360 N 
ATOM     29  H   UNL     1       0.040  -2.834   3.120  0.00  0.00    +0.165 HD
ATOM     30  C   UNL     1       0.056  -4.280   1.621  0.00  0.00    +0.087 A 
ATOM     31  C   UNL     1       0.053  -4.194   0.282  0.00  0.00    -0.021 A 
ENDBRANCH  20  31
ENDBRANCH  19  20
ENDBRANCH   1  19
TORSDOF 5
