REMARK  Name = ZINC18325568
REMARK  10 active torsions:
REMARK  status: ('A' for Active; 'I' for Inactive)
REMARK    1  A    between atoms: C_1  and  O_2
REMARK    2  A    between atoms: O_2  and  C_3
REMARK    3  A    between atoms: C_6  and  C_11
REMARK    4  A    between atoms: C_8  and  O_9
REMARK    5  A    between atoms: O_9  and  C_10
REMARK    6  A    between atoms: C_11  and  N_12
REMARK    7  A    between atoms: C_22  and  S_23
REMARK    8  A    between atoms: S_23  and  C_24
REMARK    9  A    between atoms: C_24  and  C_25
REMARK   10  A    between atoms: C_33  and  N_35
REMARK                            x       y       z     vdW  Elec       q    Type
REMARK                         _______ _______ _______ _____ _____    ______ ____
ROOT
ATOM      1  N   UNL     1      -4.111  -2.284  -2.463  0.00  0.00    -0.283 N 
ATOM      2  C   UNL     1      -5.280  -2.942  -2.279  0.00  0.00    +0.263 A 
ATOM      3  O   UNL     1      -5.953  -3.310  -3.224  0.00  0.00    -0.267 OA
ATOM      4  C   UNL     1      -5.704  -3.196  -0.895  0.00  0.00    +0.065 A 
ATOM      5  C   UNL     1      -6.891  -3.866  -0.600  0.00  0.00    +0.015 A 
ATOM      6  C   UNL     1      -7.238  -4.076   0.706  0.00  0.00    +0.001 A 
ATOM      7  C   UNL     1      -6.423  -3.630   1.738  0.00  0.00    +0.002 A 
ATOM      8  C   UNL     1      -5.255  -2.971   1.477  0.00  0.00    +0.028 A 
ATOM      9  C   UNL     1      -4.872  -2.741   0.153  0.00  0.00    +0.079 A 
ATOM     10  N   UNL     1      -3.725  -2.099  -0.150  0.00  0.00    -0.223 NA
ATOM     11  C   UNL     1      -3.368  -1.879  -1.391  0.00  0.00    +0.173 A 
ENDROOT
BRANCH   1  12
ATOM     12  C   UNL     1      -3.641  -2.004  -3.822  0.00  0.00    +0.162 C 
BRANCH  12  16
ATOM     13  C   UNL     1      -1.213  -5.250  -5.187  0.00  0.00    +0.162 A 
ATOM     14  C   UNL     1      -2.580  -5.261  -5.412  0.00  0.00    +0.050 A 
ATOM     15  C   UNL     1      -3.362  -4.210  -4.970  0.00  0.00    +0.009 A 
ATOM     16  C   UNL     1      -2.784  -3.147  -4.302  0.00  0.00    -0.024 A 
ATOM     17  C   UNL     1      -1.419  -3.127  -4.079  0.00  0.00    +0.054 A 
ATOM     18  C   UNL     1      -0.630  -4.179  -4.516  0.00  0.00    +0.162 A 
BRANCH  13  20
ATOM     19  C   UNL     1      -1.109  -7.346  -6.304  0.00  0.00    +0.277 C 
ATOM     20  O   UNL     1      -0.442  -6.282  -5.622  0.00  0.00    -0.491 OA
ENDBRANCH  13  20
BRANCH  18  21
ATOM     21  O   UNL     1       0.711  -4.163  -4.293  0.00  0.00    -0.491 OA
ATOM     22  C   UNL     1       1.240  -3.032  -3.598  0.00  0.00    +0.277 C 
ENDBRANCH  18  21
ENDBRANCH  12  16
ENDBRANCH   1  12
BRANCH  11  23
ATOM     23  S   UNL     1      -1.855  -1.027  -1.692  0.00  0.00    -0.080 S 
BRANCH  23  24
ATOM     24  C   UNL     1      -1.312  -0.741   0.011  0.00  0.00    +0.153 C 
BRANCH  24  25
ATOM     25  C   UNL     1       0.002  -0.004   0.002  0.00  0.00    +0.142 A 
ATOM     26  N   UNL     1       1.112  -0.703  -0.012  0.00  0.00    -0.231 NA
ATOM     27  C   UNL     1       2.304  -0.087  -0.021  0.00  0.00    +0.076 A 
ATOM     28  C   UNL     1       3.509  -0.802  -0.037  0.00  0.00    +0.028 A 
ATOM     29  C   UNL     1       4.692  -0.125  -0.045  0.00  0.00    +0.002 A 
ATOM     30  C   UNL     1       4.723   1.266  -0.039  0.00  0.00    +0.001 A 
ATOM     31  C   UNL     1       3.569   1.993  -0.023  0.00  0.00    +0.013 A 
ATOM     32  C   UNL     1       2.337   1.329  -0.013  0.00  0.00    +0.040 A 
ATOM     33  C   UNL     1       1.106   2.027   0.002  0.00  0.00    +0.127 A 
ATOM     34  N   UNL     1      -0.016   1.319   0.009  0.00  0.00    -0.216 NA
BRANCH  33  35
ATOM     35  N   UNL     1       1.073   3.405   0.010  0.00  0.00    -0.343 N 
ATOM     36  H   UNL     1       0.222   3.870   0.020  0.00  0.00    +0.144 HD
ATOM     37  H   UNL     1       1.901   3.910   0.004  0.00  0.00    +0.144 HD
ENDBRANCH  33  35
ENDBRANCH  24  25
ENDBRANCH  23  24
ENDBRANCH  11  23
TORSDOF 8
