REMARK  Name = ZINC50539846
REMARK  5 active torsions:
REMARK  status: ('A' for Active; 'I' for Inactive)
REMARK    1  A    between atoms: C_1  and  C_2
REMARK    2  A    between atoms: C_2  and  N_3
REMARK    3  A    between atoms: C_5  and  C_8
REMARK    4  A    between atoms: C_8  and  N_9
REMARK    5  A    between atoms: C_12  and  N_19
REMARK                            x       y       z     vdW  Elec       q    Type
REMARK                         _______ _______ _______ _____ _____    ______ ____
ROOT
ATOM      1  N   UNL     1       2.697  -3.731  -3.282  0.00  0.00    -0.270 N 
ATOM      2  C   UNL     1       2.672  -4.774  -2.356  0.00  0.00    +0.092 A 
ATOM      3  C   UNL     1       3.072  -4.879  -1.034  0.00  0.00    +0.052 A 
ATOM      4  C   UNL     1       2.916  -6.082  -0.361  0.00  0.00    +0.027 A 
ATOM      5  C   UNL     1       2.361  -7.177  -1.013  0.00  0.00    +0.026 A 
ATOM      6  C   UNL     1       1.962  -7.073  -2.331  0.00  0.00    +0.050 A 
ATOM      7  C   UNL     1       2.115  -5.873  -3.009  0.00  0.00    +0.157 A 
ATOM      8  O   UNL     1       1.824  -5.484  -4.275  0.00  0.00    -0.407 OA
ATOM      9  C   UNL     1       2.170  -4.197  -4.431  0.00  0.00    +0.422 A 
ATOM     10  O   UNL     1       2.032  -3.552  -5.453  0.00  0.00    -0.223 OA
ENDROOT
BRANCH   4  11
ATOM     11  N   UNL     1       3.317  -6.194   0.974  0.00  0.00    -0.358 N 
ATOM     12  H   UNL     1       3.705  -5.431   1.430  0.00  0.00    +0.142 HD
ATOM     13  H   UNL     1       3.208  -7.035   1.445  0.00  0.00    +0.142 HD
ENDBRANCH   4  11
BRANCH   1  14
ATOM     14  C   UNL     1       3.198  -2.374  -3.046  0.00  0.00    +0.166 C 
BRANCH  14  17
ATOM     15  N   UNL     1       0.688  -0.476  -1.203  0.00  0.00    -0.271 N 
ATOM     16  C   UNL     1       1.740  -1.321  -1.239  0.00  0.00    +0.113 A 
ATOM     17  C   UNL     1       2.076  -1.506  -2.536  0.00  0.00    +0.010 A 
ATOM     18  C   UNL     1       1.200  -0.749  -3.321  0.00  0.00    +0.139 A 
ATOM     19  N   UNL     1       0.363  -0.136  -2.523  0.00  0.00    -0.179 NA
BRANCH  15  21
ATOM     20  C   UNL     1      -0.019   1.526   0.010  0.00  0.00    +0.029 C 
ATOM     21  C   UNL     1       0.002  -0.004   0.002  0.00  0.00    +0.140 C 
ENDBRANCH  15  21
ENDBRANCH  14  17
ENDBRANCH   1  14
TORSDOF 4
