REMARK  Name = ZINC33312905
REMARK  9 active torsions:
REMARK  status: ('A' for Active; 'I' for Inactive)
REMARK    1  A    between atoms: C_1  and  C_2
REMARK    2  A    between atoms: C_8  and  C_10
REMARK    3  A    between atoms: N_20  and  C_21
REMARK    4  A    between atoms: C_21  and  C_22
REMARK    5  A    between atoms: N_24  and  C_25
REMARK    6  A    between atoms: C_25  and  C_26
REMARK    7  A    between atoms: C_29  and  N_32
REMARK    8  A    between atoms: N_32  and  C_33
REMARK    9  A    between atoms: N_32  and  C_34
REMARK                            x       y       z     vdW  Elec       q    Type
REMARK                         _______ _______ _______ _____ _____    ______ ____
ROOT
ATOM      1  C   UNL     1       2.983  -3.845   1.232  0.00  0.00    +0.175 C 
ATOM      2  C   UNL     1       1.999  -4.600   2.086  0.00  0.00    -0.018 A 
ATOM      3  C   UNL     1       0.705  -4.111   2.191  0.00  0.00    +0.006 A 
ATOM      4  C   UNL     1      -0.230  -4.768   2.965  0.00  0.00    +0.000 A 
ATOM      5  C   UNL     1       0.125  -5.921   3.642  0.00  0.00    +0.000 A 
ATOM      6  C   UNL     1       1.412  -6.409   3.538  0.00  0.00    +0.004 A 
ATOM      7  C   UNL     1       2.351  -5.750   2.758  0.00  0.00    -0.041 A 
ATOM      8  C   UNL     1       3.740  -6.327   2.666  0.00  0.00    +0.051 C 
ATOM      9  C   UNL     1       4.707  -5.273   2.125  0.00  0.00    +0.090 C 
ATOM     10  N   UNL     1       4.129  -4.698   0.901  0.00  0.00    -0.279 NA
ENDROOT
BRANCH   1  18
ATOM     11  C   UNL     1       2.091   1.987  -0.814  0.00  0.00    +0.007 C 
ATOM     12  C   UNL     1       1.525   0.603  -0.492  0.00  0.00    -0.011 C 
ATOM     13  C   UNL     1       1.750  -0.331  -1.684  0.00  0.00    +0.022 C 
ATOM     14  C   UNL     1       1.151  -1.706  -1.371  0.00  0.00    +0.108 C 
ATOM     15  N   UNL     1       1.720  -2.193  -0.107  0.00  0.00    -0.300 N 
ATOM     16  C   UNL     1       1.639  -1.334   1.082  0.00  0.00    +0.108 C 
ATOM     17  C   UNL     1       2.233   0.037   0.742  0.00  0.00    +0.022 C 
ATOM     18  C   UNL     1       2.305  -3.405  -0.040  0.00  0.00    +0.237 C 
ATOM     19  O   UNL     1       2.287  -4.142  -1.003  0.00  0.00    -0.274 OA
ENDBRANCH   1  18
BRANCH  10  20
ATOM     20  C   UNL     1       5.143  -3.949   0.146  0.00  0.00    +0.181 C 
BRANCH  20  21
ATOM     21  C   UNL     1       6.180  -4.904  -0.386  0.00  0.00    +0.227 C 
ATOM     22  O   UNL     1       6.084  -6.091  -0.159  0.00  0.00    -0.274 OA
ATOM     23  N   UNL     1       7.214  -4.438  -1.114  0.00  0.00    -0.310 N 
ATOM     24  H   UNL     1       7.290  -3.488  -1.295  0.00  0.00    +0.149 HD
BRANCH  23  25
ATOM     25  C   UNL     1       8.223  -5.366  -1.631  0.00  0.00    +0.139 C 
BRANCH  25  26
ATOM     26  C   UNL     1       9.262  -4.598  -2.405  0.00  0.00    -0.030 A 
ATOM     27  C   UNL     1       9.093  -4.381  -3.761  0.00  0.00    +0.007 A 
ATOM     28  C   UNL     1      10.044  -3.677  -4.473  0.00  0.00    +0.023 A 
ATOM     29  C   UNL     1      11.172  -3.187  -3.827  0.00  0.00    +0.029 A 
ATOM     30  C   UNL     1      11.339  -3.407  -2.465  0.00  0.00    +0.023 A 
ATOM     31  C   UNL     1      10.381  -4.106  -1.758  0.00  0.00    +0.007 A 
BRANCH  29  32
ATOM     32  N   UNL     1      12.136  -2.475  -4.544  0.00  0.00    -0.336 N 
ATOM     33  C   UNL     1      11.958  -2.244  -5.980  0.00  0.00    +0.129 C 
ATOM     34  C   UNL     1      13.324  -1.959  -3.861  0.00  0.00    +0.129 C 
ENDBRANCH  29  32
ENDBRANCH  25  26
ENDBRANCH  23  25
ENDBRANCH  20  21
ENDBRANCH  10  20
TORSDOF 6
