REMARK  Name = ZINC11783129
REMARK  7 active torsions:
REMARK  status: ('A' for Active; 'I' for Inactive)
REMARK    1  A    between atoms: C_1  and  C_2
REMARK    2  A    between atoms: C_6  and  C_9
REMARK    3  A    between atoms: C_7  and  C_8
REMARK    4  A    between atoms: C_14  and  C_17
REMARK    5  A    between atoms: C_17  and  C_30
REMARK    6  A    between atoms: N_20  and  C_24
REMARK    7  A    between atoms: C_30  and  C_31
REMARK                            x       y       z     vdW  Elec       q    Type
REMARK                         _______ _______ _______ _____ _____    ______ ____
ROOT
ATOM      1  C   UNL     1       0.710  -1.628  -1.918  0.00  0.00    +0.119 C 
ATOM      2  C   UNL     1       1.160  -2.394  -0.690  0.00  0.00    +0.247 C 
ATOM      3  O   UNL     1       2.240  -2.330  -0.143  0.00  0.00    -0.273 OA
ATOM      4  N   UNL     1       0.111  -3.162  -0.335  0.00  0.00    -0.219 N 
ATOM      5  C   UNL     1      -0.928  -2.990  -1.159  0.00  0.00    +0.310 C 
ATOM      6  O   UNL     1      -1.988  -3.574  -1.041  0.00  0.00    -0.252 OA
ATOM      7  N   UNL     1      -0.670  -2.097  -2.136  0.00  0.00    -0.284 N 
ATOM      8  H   UNL     1      -1.273  -1.817  -2.842  0.00  0.00    +0.151 HD
ENDROOT
BRANCH   1  14
ATOM      9  C   UNL     1       1.792   2.890   0.932  0.00  0.00    +0.247 C 
ATOM     10  O   UNL     1       1.043   3.206   1.836  0.00  0.00    -0.270 OA
ATOM     11  N   UNL     1       1.327   2.174  -0.110  0.00  0.00    -0.297 N 
ATOM     12  C   UNL     1      -0.061   1.692  -0.127  0.00  0.00    +0.108 C 
ATOM     13  C   UNL     1      -0.055   0.180  -0.373  0.00  0.00    +0.025 C 
ATOM     14  C   UNL     1       0.731  -0.122  -1.651  0.00  0.00    +0.025 C 
ATOM     15  C   UNL     1       2.178   0.346  -1.484  0.00  0.00    +0.025 C 
ATOM     16  C   UNL     1       2.198   1.860  -1.251  0.00  0.00    +0.108 C 
BRANCH   9  22
ATOM     17  C   UNL     1       6.184   2.971   3.300  0.00  0.00    +0.044 C 
ATOM     18  C   UNL     1       5.330   3.334   2.113  0.00  0.00    -0.047 A 
ATOM     19  C   UNL     1       5.878   4.046   1.060  0.00  0.00    +0.003 A 
ATOM     20  C   UNL     1       5.100   4.383  -0.033  0.00  0.00    +0.001 A 
ATOM     21  C   UNL     1       3.773   4.011  -0.081  0.00  0.00    +0.013 A 
ATOM     22  C   UNL     1       3.214   3.292   0.977  0.00  0.00    +0.040 A 
ATOM     23  C   UNL     1       4.003   2.960   2.080  0.00  0.00    -0.035 A 
ATOM     24  C   UNL     1       3.406   2.190   3.230  0.00  0.00    +0.045 C 
ENDBRANCH   9  22
ENDBRANCH   1  14
BRANCH   4  25
ATOM     25  C   UNL     1       0.110  -4.074   0.812  0.00  0.00    +0.113 C 
ATOM     26  C   UNL     1      -0.238  -5.513   0.360  0.00  0.00    +0.053 C 
ATOM     27  C   UNL     1      -1.169  -5.995   1.501  0.00  0.00    +0.162 C 
ATOM     28  O   UNL     1      -1.928  -4.815   1.838  0.00  0.00    -0.378 OA
ATOM     29  C   UNL     1      -1.018  -3.704   1.794  0.00  0.00    +0.182 C 
ENDBRANCH   4  25
BRANCH   1  30
ATOM     30  C   UNL     1       1.591  -1.972  -3.121  0.00  0.00    +0.070 C 
BRANCH  30  31
ATOM     31  C   UNL     1       1.457  -3.439  -3.438  0.00  0.00    -0.045 A 
ATOM     32  C   UNL     1       2.311  -4.354  -2.851  0.00  0.00    +0.006 A 
ATOM     33  C   UNL     1       2.186  -5.700  -3.138  0.00  0.00    +0.038 A 
ATOM     34  C   UNL     1       1.212  -6.131  -4.022  0.00  0.00    +0.123 A 
ATOM     35  C   UNL     1       0.360  -5.214  -4.614  0.00  0.00    +0.038 A 
ATOM     36  C   UNL     1       0.484  -3.869  -4.322  0.00  0.00    +0.006 A 
ATOM     37  F   UNL     1       1.092  -7.447  -4.307  0.00  0.00    -0.205 F 
ENDBRANCH  30  31
ENDBRANCH   1  30
TORSDOF 5
