REMARK  Name = ZINC59186758
REMARK  4 active torsions:
REMARK  status: ('A' for Active; 'I' for Inactive)
REMARK    1  A    between atoms: C_1  and  C_2
REMARK    2  A    between atoms: C_4  and  C_23
REMARK    3  A    between atoms: C_4  and  C_27
REMARK    4  A    between atoms: N_12  and  C_15
REMARK                            x       y       z     vdW  Elec       q    Type
REMARK                         _______ _______ _______ _____ _____    ______ ____
ROOT
ATOM      1  C   UNL     1       2.204   0.824   0.068  0.00  0.00    +0.083 C 
ATOM      2  C   UNL     1       1.502  -0.507   0.161  0.00  0.00    +0.094 C 
ATOM      3  N   UNL     1       1.491  -1.280  -0.864  0.00  0.00    -0.244 NA
ATOM      4  C   UNL     1       0.848  -2.587  -0.870  0.00  0.00    +0.285 C 
ATOM      5  C   UNL     1      -0.097  -2.733   0.288  0.00  0.00    +0.100 A 
ATOM      6  C   UNL     1      -1.058  -3.759   0.298  0.00  0.00    +0.262 A 
ATOM      7  O   UNL     1      -1.136  -4.538  -0.636  0.00  0.00    -0.267 OA
ATOM      8  N   UNL     1      -1.893  -3.873   1.350  0.00  0.00    -0.274 N 
ATOM      9  H   UNL     1      -2.558  -4.580   1.361  0.00  0.00    +0.173 HD
ATOM     10  C   UNL     1      -1.814  -3.019   2.386  0.00  0.00    +0.335 A 
ATOM     11  O   UNL     1      -2.576  -3.144   3.326  0.00  0.00    -0.246 OA
ATOM     12  N   UNL     1      -0.903  -2.027   2.399  0.00  0.00    -0.249 N 
ATOM     13  C   UNL     1      -0.035  -1.874   1.345  0.00  0.00    +0.124 A 
ATOM     14  N   UNL     1       0.898  -0.862   1.341  0.00  0.00    -0.289 N 
ATOM     15  H   UNL     1       1.124  -0.400   2.164  0.00  0.00    +0.155 HD
ENDROOT
BRANCH  12  16
ATOM     16  C   UNL     1      -0.839  -1.150   3.490  0.00  0.00    +0.054 A 
ATOM     17  C   UNL     1      -1.582   0.023   3.483  0.00  0.00    +0.029 A 
ATOM     18  C   UNL     1      -1.519   0.887   4.559  0.00  0.00    +0.042 A 
ATOM     19  C   UNL     1      -0.714   0.585   5.645  0.00  0.00    +0.142 A 
ATOM     20  C   UNL     1       0.029  -0.585   5.654  0.00  0.00    +0.078 A 
ATOM     21  C   UNL     1      -0.037  -1.455   4.581  0.00  0.00    +0.049 A 
ATOM     22 CL   UNL     1       1.037  -0.962   7.016  0.00  0.00    -0.081 Cl
ATOM     23  F   UNL     1      -0.653   1.431   6.696  0.00  0.00    -0.204 F 
ENDBRANCH  12  16
BRANCH   4  24
ATOM     24  C   UNL     1       1.921  -3.675  -0.782  0.00  0.00    +0.428 C 
ATOM     25  F   UNL     1       2.650  -3.515   0.401  0.00  0.00    -0.167 F 
ATOM     26  F   UNL     1       1.311  -4.933  -0.788  0.00  0.00    -0.167 F 
ATOM     27  F   UNL     1       2.783  -3.569  -1.879  0.00  0.00    -0.167 F 
ENDBRANCH   4  24
BRANCH   4  28
ATOM     28  C   UNL     1       0.070  -2.757  -2.177  0.00  0.00    +0.428 C 
ATOM     29  F   UNL     1       0.846  -2.293  -3.245  0.00  0.00    -0.167 F 
ATOM     30  F   UNL     1      -0.227  -4.110  -2.370  0.00  0.00    -0.167 F 
ATOM     31  F   UNL     1      -1.119  -2.023  -2.110  0.00  0.00    -0.167 F 
ENDBRANCH   4  28
TORSDOF 3
