REMARK  Name = ZINC38702159
REMARK  9 active torsions:
REMARK  status: ('A' for Active; 'I' for Inactive)
REMARK    1  A    between atoms: C_1  and  C_2
REMARK    2  A    between atoms: C_2  and  O_3
REMARK    3  A    between atoms: O_3  and  C_4
REMARK    4  A    between atoms: C_8  and  C_10
REMARK    5  A    between atoms: C_13  and  C_29
REMARK    6  A    between atoms: N_20  and  C_21
REMARK    7  A    between atoms: C_31  and  C_37
REMARK    8  A    between atoms: C_33  and  C_36
REMARK    9  A    between atoms: C_34  and  O_35
REMARK                            x       y       z     vdW  Elec       q    Type
REMARK                         _______ _______ _______ _____ _____    ______ ____
ROOT
ATOM      1  C   UNL     1      -4.268  -4.376   0.015  0.00  0.00    +0.142 C 
ATOM      2  C   UNL     1      -4.598  -4.968   1.358  0.00  0.00    +0.035 A 
ATOM      3  C   UNL     1      -4.771  -4.756   2.730  0.00  0.00    +0.102 A 
ATOM      4  N   UNL     1      -5.088  -5.916   3.271  0.00  0.00    -0.173 NA
ATOM      5  N   UNL     1      -5.132  -6.839   2.377  0.00  0.00    -0.272 N 
ATOM      6  H   UNL     1      -5.345  -7.769   2.548  0.00  0.00    +0.189 HD
ATOM      7  C   UNL     1      -4.834  -6.314   1.152  0.00  0.00    +0.126 A 
ATOM      8  C   UNL     1      -4.667  -6.603  -0.277  0.00  0.00    +0.266 C 
ATOM      9  O   UNL     1      -4.806  -7.700  -0.783  0.00  0.00    -0.268 OA
ATOM     10  N   UNL     1      -4.338  -5.483  -0.947  0.00  0.00    -0.280 N 
ENDROOT
BRANCH   3  11
ATOM     11  C   UNL     1      -4.625  -3.464   3.445  0.00  0.00    +0.044 A 
ATOM     12  C   UNL     1      -4.415  -2.288   2.729  0.00  0.00    +0.017 A 
ATOM     13  C   UNL     1      -4.279  -1.089   3.398  0.00  0.00    -0.049 A 
ATOM     14  C   UNL     1      -4.352  -1.049   4.779  0.00  0.00    +0.010 A 
ATOM     15  C   UNL     1      -4.561  -2.210   5.499  0.00  0.00    -0.008 A 
ATOM     16  C   UNL     1      -4.704  -3.420   4.840  0.00  0.00    +0.129 A 
ATOM     17  C   UNL     1      -4.638  -2.159   7.004  0.00  0.00    +0.047 C 
ATOM     18  C   UNL     1      -4.051   0.183   2.622  0.00  0.00    +0.044 C 
BRANCH  16  19
ATOM     19  O   UNL     1      -4.916  -4.561   5.546  0.00  0.00    -0.506 OA
ATOM     20  H   UNL     1      -4.105  -5.020   5.804  0.00  0.00    +0.292 HD
ENDBRANCH  16  19
ENDBRANCH   3  11
BRANCH  10  21
ATOM     21  C   UNL     1      -4.092  -5.384  -2.388  0.00  0.00    +0.100 C 
ATOM     22  C   UNL     1      -5.339  -5.847  -3.160  0.00  0.00    +0.047 C 
ATOM     23  C   UNL     1      -4.988  -6.052  -4.654  0.00  0.00    +0.168 C 
ATOM     24  S   UNL     1      -3.201  -6.480  -4.594  0.00  0.00    -0.029 S 
ATOM     25  O   UNL     1      -3.039  -7.843  -4.963  0.00  0.00    -0.174 OA
ATOM     26  O   UNL     1      -2.462  -5.478  -5.280  0.00  0.00    -0.174 OA
ATOM     27  C   UNL     1      -2.907  -6.310  -2.784  0.00  0.00    +0.188 C 
ENDBRANCH  10  21
BRANCH   1  32
ATOM     28  C   UNL     1      -0.502  -4.086   0.141  0.00  0.00    +0.121 A 
ATOM     29  C   UNL     1      -0.330  -2.711   0.066  0.00  0.00    +0.045 A 
ATOM     30  C   UNL     1      -1.431  -1.883  -0.025  0.00  0.00    +0.004 A 
ATOM     31  C   UNL     1      -2.704  -2.422  -0.042  0.00  0.00    +0.006 A 
ATOM     32  C   UNL     1      -2.879  -3.791   0.033  0.00  0.00    -0.019 A 
ATOM     33  C   UNL     1      -1.780  -4.625   0.119  0.00  0.00    +0.051 A 
BRANCH  28  34
ATOM     34  O   UNL     1       0.580  -4.904   0.230  0.00  0.00    -0.492 OA
BRANCH  34  36
ATOM     35  C   UNL     1       2.951  -5.352   0.351  0.00  0.00    +0.048 C 
ATOM     36  C   UNL     1       1.865  -4.279   0.248  0.00  0.00    +0.225 C 
ENDBRANCH  34  36
ENDBRANCH  28  34
ENDBRANCH   1  32
TORSDOF 6
