REMARK  Name = ZINC25007749
REMARK  6 active torsions:
REMARK  status: ('A' for Active; 'I' for Inactive)
REMARK    1  A    between atoms: C_1  and  C_2
REMARK    2  A    between atoms: C_4  and  C_27
REMARK    3  A    between atoms: N_5  and  C_7
REMARK    4  A    between atoms: C_7  and  C_8
REMARK    5  A    between atoms: C_8  and  C_9
REMARK    6  A    between atoms: C_14  and  C_17
REMARK                            x       y       z     vdW  Elec       q    Type
REMARK                         _______ _______ _______ _____ _____    ______ ____
ROOT
ATOM      1  C   UNL     1      -0.840  -2.220  -0.002  0.00  0.00    +0.220 C 
ATOM      2  O   UNL     1       0.297  -2.641  -0.015  0.00  0.00    -0.275 OA
ATOM      3  N   UNL     1      -1.067  -0.892   0.007  0.00  0.00    -0.265 N 
ATOM      4  C   UNL     1       0.002  -0.004   0.002  0.00  0.00    +0.165 A 
ATOM      5  N   UNL     1      -0.016   1.315   0.009  0.00  0.00    -0.229 NA
ATOM      6  C   UNL     1       1.103   2.013   0.002  0.00  0.00    +0.057 A 
ATOM      7  C   UNL     1       2.282   1.345  -0.013  0.00  0.00    +0.072 A 
ATOM      8  S   UNL     1       1.704  -0.346  -0.016  0.00  0.00    -0.060 S 
ATOM      9  H   UNL     1      -2.099  -0.510   0.019  0.00  0.00    +0.157 HD
ENDROOT
BRANCH   6  10
ATOM     10  C   UNL     1       1.071   3.520   0.010  0.00  0.00    +0.014 C 
ATOM     11  C   UNL     1       2.070   4.056  -1.017  0.00  0.00    +0.016 C 
ATOM     12  C   UNL     1       2.037   5.586  -1.009  0.00  0.00    -0.010 C 
ATOM     13  C   UNL     1       0.630   6.068  -1.366  0.00  0.00    +0.007 C 
ATOM     14  C   UNL     1      -0.369   5.532  -0.339  0.00  0.00    -0.010 C 
ATOM     15  C   UNL     1      -0.337   4.002  -0.347  0.00  0.00    +0.016 C 
ATOM     16  C   UNL     1       0.007   6.042   1.053  0.00  0.00    +0.007 C 
ATOM     17  C   UNL     1       1.414   5.560   1.411  0.00  0.00    -0.010 C 
ATOM     18  C   UNL     1       2.413   6.097   0.384  0.00  0.00    +0.007 C 
ATOM     19  C   UNL     1       1.447   4.030   1.403  0.00  0.00    +0.016 C 
ENDBRANCH   6  10
BRANCH   1  20
ATOM     20  C   UNL     1      -2.000  -3.183   0.004  0.00  0.00    +0.119 C 
BRANCH  20  21
ATOM     21  C   UNL     1      -1.471  -4.619  -0.009  0.00  0.00    +0.153 C 
BRANCH  21  26
ATOM     22  C   UNL     1      -5.139  -7.645  -1.614  0.00  0.00    +0.067 C 
ATOM     23  C   UNL     1      -4.197  -6.873  -0.727  0.00  0.00    +0.060 A 
ATOM     24  C   UNL     1      -4.191  -6.886   0.672  0.00  0.00    +0.047 A 
ATOM     25  C   UNL     1      -3.195  -6.072   1.091  0.00  0.00    +0.036 A 
ATOM     26  N   UNL     1      -2.598  -5.555  -0.003  0.00  0.00    -0.268 N 
ATOM     27  N   UNL     1      -3.242  -6.075  -1.132  0.00  0.00    -0.176 NA
ATOM     28  C   UNL     1      -2.821  -5.790   2.524  0.00  0.00    +0.065 C 
ENDBRANCH  21  26
ENDBRANCH  20  21
ENDBRANCH   1  20
TORSDOF 4
