REMARK  Name = ZINC01126961
REMARK  10 active torsions:
REMARK  status: ('A' for Active; 'I' for Inactive)
REMARK    1  A    between atoms: C_1  and  C_2
REMARK    2  A    between atoms: C_9  and  N_35
REMARK    3  A    between atoms: C_10  and  C_33
REMARK    4  A    between atoms: C_11  and  C_13
REMARK    5  A    between atoms: C_15  and  O_31
REMARK    6  A    between atoms: C_16  and  O_20
REMARK    7  A    between atoms: O_20  and  C_21
REMARK    8  A    between atoms: C_21  and  C_22
REMARK    9  A    between atoms: C_26  and  N_28
REMARK   10  A    between atoms: O_31  and  C_32
REMARK                            x       y       z     vdW  Elec       q    Type
REMARK                         _______ _______ _______ _____ _____    ______ ____
ROOT
ATOM      1  C   UNL     1       1.341   0.142  -2.966  0.00  0.00    -0.030 A 
ATOM      2  C   UNL     1       1.437   1.438  -3.438  0.00  0.00    +0.054 A 
ATOM      3  C   UNL     1       2.671   1.958  -3.792  0.00  0.00    +0.163 A 
ATOM      4  C   UNL     1       3.814   1.173  -3.671  0.00  0.00    +0.176 A 
ATOM      5  C   UNL     1       3.712  -0.125  -3.197  0.00  0.00    +0.063 A 
ATOM      6  C   UNL     1       2.477  -0.636  -2.840  0.00  0.00    +0.023 A 
ATOM      7 BR   UNL     1       5.262  -1.196  -3.030  0.00  0.00    -0.046 Br
ENDROOT
BRANCH   1  18
ATOM      8  C   UNL     1      -0.018   1.503   0.010  0.00  0.00    +0.068 C 
ATOM      9  C   UNL     1       0.002  -0.004   0.002  0.00  0.00    +0.068 A 
ATOM     10  C   UNL     1       0.008  -0.813  -1.126  0.00  0.00    +0.049 A 
ATOM     11  C   UNL     1       0.027  -2.116  -0.713  0.00  0.00    +0.222 A 
ATOM     12  N   UNL     1       0.034  -2.116   0.629  0.00  0.00    -0.246 N 
ATOM     13  H   UNL     1       0.048  -2.900   1.201  0.00  0.00    +0.192 HD
ATOM     14  N   UNL     1       0.023  -0.780   1.060  0.00  0.00    -0.176 NA
ATOM     15  O   UNL     1       0.034  -3.159  -1.580  0.00  0.00    -0.423 OA
ATOM     16  C   UNL     1      -0.255  -2.900  -2.872  0.00  0.00    +0.200 C 
ATOM     17  C   UNL     1      -0.291  -1.656  -3.399  0.00  0.00    +0.098 C 
ATOM     18  C   UNL     1      -0.002  -0.421  -2.581  0.00  0.00    +0.101 C 
BRANCH  16  19
ATOM     19  N   UNL     1      -0.527  -3.961  -3.699  0.00  0.00    -0.328 N 
ATOM     20  H   UNL     1      -0.509  -4.865  -3.349  0.00  0.00    +0.145 HD
ATOM     21  H   UNL     1      -0.738  -3.806  -4.633  0.00  0.00    +0.145 HD
ENDBRANCH  16  19
BRANCH  17  22
ATOM     22  C   UNL     1      -0.615  -1.504  -4.786  0.00  0.00    +0.101 C 
ATOM     23  N   UNL     1      -0.872  -1.384  -5.886  0.00  0.00    -0.191 NA
ENDBRANCH  17  22
ENDBRANCH   1  18
BRANCH   3  24
ATOM     24  O   UNL     1       2.766   3.232  -4.257  0.00  0.00    -0.491 OA
ATOM     25  C   UNL     1       1.551   3.979  -4.356  0.00  0.00    +0.277 C 
ENDBRANCH   3  24
BRANCH   4  26
ATOM     26  O   UNL     1       5.028   1.679  -4.018  0.00  0.00    -0.483 OA
BRANCH  26  27
ATOM     27  C   UNL     1       5.771   2.343  -2.993  0.00  0.00    +0.264 C 
BRANCH  27  28
ATOM     28  C   UNL     1       7.079   2.833  -3.558  0.00  0.00    -0.008 A 
ATOM     29  C   UNL     1       8.195   2.017  -3.526  0.00  0.00    +0.007 A 
ATOM     30  C   UNL     1       9.395   2.467  -4.044  0.00  0.00    +0.003 A 
ATOM     31  C   UNL     1       9.479   3.732  -4.596  0.00  0.00    +0.033 A 
ATOM     32  C   UNL     1       8.363   4.546  -4.630  0.00  0.00    +0.127 A 
ATOM     33  C   UNL     1       7.162   4.095  -4.115  0.00  0.00    +0.039 A 
BRANCH  32  34
ATOM     34  N   UNL     1       8.453   5.901  -5.220  0.00  0.00    +0.056 N 
ATOM     35  O   UNL     1       9.503   6.294  -5.673  0.00  0.00    -0.126 OA
ATOM     36  O   UNL     1       7.477   6.614  -5.249  0.00  0.00    -0.126 OA
ENDBRANCH  32  34
ENDBRANCH  27  28
ENDBRANCH  26  27
ENDBRANCH   4  26
TORSDOF 8
