REMARK  Name = ZINC40548564
REMARK  10 active torsions:
REMARK  status: ('A' for Active; 'I' for Inactive)
REMARK    1  A    between atoms: C_1  and  C_2
REMARK    2  A    between atoms: C_2  and  C_3
REMARK    3  A    between atoms: C_3  and  O_4
REMARK    4  A    between atoms: O_4  and  C_5
REMARK    5  A    between atoms: C_9  and  C_11
REMARK    6  A    between atoms: C_14  and  C_30
REMARK    7  A    between atoms: N_21  and  C_22
REMARK    8  A    between atoms: C_32  and  C_38
REMARK    9  A    between atoms: C_34  and  C_37
REMARK   10  A    between atoms: C_35  and  O_36
REMARK                            x       y       z     vdW  Elec       q    Type
REMARK                         _______ _______ _______ _____ _____    ______ ____
ROOT
ATOM      1  C   UNL     1      -3.982  -6.088   0.011  0.00  0.00    +0.142 C 
ATOM      2  C   UNL     1      -4.418  -6.610  -1.330  0.00  0.00    +0.035 A 
ATOM      3  C   UNL     1      -4.159  -6.699  -2.702  0.00  0.00    +0.102 A 
ATOM      4  N   UNL     1      -5.128  -7.412  -3.241  0.00  0.00    -0.173 NA
ATOM      5  N   UNL     1      -5.973  -7.782  -2.346  0.00  0.00    -0.272 N 
ATOM      6  H   UNL     1      -6.766  -8.315  -2.514  0.00  0.00    +0.189 HD
ATOM      7  C   UNL     1      -5.588  -7.314  -1.122  0.00  0.00    +0.126 A 
ATOM      8  C   UNL     1      -5.917  -7.259   0.307  0.00  0.00    +0.266 C 
ATOM      9  O   UNL     1      -6.890  -7.782   0.816  0.00  0.00    -0.268 OA
ATOM     10  N   UNL     1      -4.989  -6.549   0.976  0.00  0.00    -0.280 N 
ENDROOT
BRANCH   3  11
ATOM     11  C   UNL     1      -3.006  -6.100  -3.419  0.00  0.00    +0.044 A 
ATOM     12  C   UNL     1      -1.983  -5.480  -2.705  0.00  0.00    +0.017 A 
ATOM     13  C   UNL     1      -0.913  -4.925  -3.376  0.00  0.00    -0.049 A 
ATOM     14  C   UNL     1      -0.852  -4.981  -4.758  0.00  0.00    +0.010 A 
ATOM     15  C   UNL     1      -1.861  -5.593  -5.476  0.00  0.00    -0.008 A 
ATOM     16  C   UNL     1      -2.938  -6.160  -4.814  0.00  0.00    +0.129 A 
ATOM     17  C   UNL     1      -1.787  -5.650  -6.980  0.00  0.00    +0.047 C 
ATOM     18  C   UNL     1       0.193  -4.254  -2.602  0.00  0.00    +0.044 C 
BRANCH  16  19
ATOM     19  O   UNL     1      -3.928  -6.768  -5.519  0.00  0.00    -0.506 OA
ATOM     20  H   UNL     1      -4.648  -6.176  -5.777  0.00  0.00    +0.292 HD
ENDBRANCH  16  19
ENDBRANCH   3  11
BRANCH  10  21
ATOM     21  C   UNL     1      -4.983  -6.282   2.416  0.00  0.00    +0.100 C 
ATOM     22  C   UNL     1      -6.267  -5.528   2.801  0.00  0.00    +0.047 C 
ATOM     23  C   UNL     1      -6.387  -5.535   4.351  0.00  0.00    +0.168 C 
ATOM     24  S   UNL     1      -5.851  -7.258   4.723  0.00  0.00    -0.029 S 
ATOM     25  O   UNL     1      -6.997  -8.098   4.772  0.00  0.00    -0.174 OA
ATOM     26  O   UNL     1      -4.953  -7.236   5.824  0.00  0.00    -0.174 OA
ATOM     27  C   UNL     1      -4.909  -7.622   3.187  0.00  0.00    +0.188 C 
ENDBRANCH  10  21
BRANCH   1  32
ATOM     28  C   UNL     1      -5.063  -2.469  -0.120  0.00  0.00    +0.121 A 
ATOM     29  C   UNL     1      -3.841  -1.815  -0.046  0.00  0.00    +0.045 A 
ATOM     30  C   UNL     1      -2.672  -2.546   0.045  0.00  0.00    +0.004 A 
ATOM     31  C   UNL     1      -2.719  -3.928   0.064  0.00  0.00    +0.006 A 
ATOM     32  C   UNL     1      -3.935  -4.582  -0.009  0.00  0.00    -0.019 A 
ATOM     33  C   UNL     1      -5.107  -3.856  -0.095  0.00  0.00    +0.051 A 
BRANCH  28  34
ATOM     34  O   UNL     1      -6.214  -1.753  -0.209  0.00  0.00    -0.492 OA
BRANCH  34  35
ATOM     35  C   UNL     1      -6.093  -0.329  -0.230  0.00  0.00    +0.229 C 
BRANCH  35  37
ATOM     36  C   UNL     1      -7.353   1.824  -0.355  0.00  0.00    +0.007 C 
ATOM     37  C   UNL     1      -7.483   0.300  -0.333  0.00  0.00    +0.038 C 
ENDBRANCH  35  37
ENDBRANCH  34  35
ENDBRANCH  28  34
ENDBRANCH   1  32
TORSDOF 7
