REMARK  Name = ZINC05286220
REMARK  2 active torsions:
REMARK  status: ('A' for Active; 'I' for Inactive)
REMARK    1  A    between atoms: C_3  and  C_6
REMARK    2  A    between atoms: C_7  and  C_18
REMARK                            x       y       z     vdW  Elec       q    Type
REMARK                         _______ _______ _______ _____ _____    ______ ____
ROOT
ATOM      1  C   UNL     1       3.566   0.617  -0.029  0.00  0.00    +0.100 C 
ATOM      2  C   UNL     1       4.359  -0.512  -0.048  0.00  0.00    +0.100 C 
ATOM      3  N   UNL     1       5.675  -0.085  -0.057  0.00  0.00    -0.298 N 
ATOM      4  C   UNL     1       5.684   1.261  -0.043  0.00  0.00    +0.100 C 
ATOM      5  C   UNL     1       6.882   2.102  -0.047  0.00  0.00    +0.011 C 
ATOM      6  C   UNL     1       8.155   1.511  -0.072  0.00  0.00    +0.015 C 
ATOM      7  C   UNL     1       9.270   2.293  -0.075  0.00  0.00    +0.051 C 
ATOM      8  C   UNL     1       9.146   3.691  -0.054  0.00  0.00    +0.179 C 
ATOM      9  O   UNL     1      10.238   4.457  -0.057  0.00  0.00    -0.288 OA
ATOM     10  C   UNL     1       7.874   4.282  -0.029  0.00  0.00    +0.051 C 
ATOM     11  C   UNL     1       6.759   3.500  -0.032  0.00  0.00    +0.015 C 
ATOM     12  N   UNL     1       4.415   1.711  -0.032  0.00  0.00    -0.298 N 
ATOM     13  H   UNL     1       6.458  -0.658  -0.070  0.00  0.00    +0.153 HD
ATOM     14  H   UNL     1       4.142   2.641  -0.025  0.00  0.00    +0.153 HD
ENDROOT
BRANCH   1  17
ATOM     15  C   UNL     1      -0.016   1.344   0.009  0.00  0.00    +0.042 A 
ATOM     16  C   UNL     1       1.324   1.776  -0.001  0.00  0.00    +0.051 A 
ATOM     17  C   UNL     1       2.098   0.653  -0.015  0.00  0.00    +0.151 A 
ATOM     18  O   UNL     1       1.280  -0.419  -0.012  0.00  0.00    -0.462 OA
ATOM     19  C   UNL     1       0.002  -0.004   0.002  0.00  0.00    +0.196 A 
ENDBRANCH   1  17
BRANCH   2  20
ATOM     20  C   UNL     1       3.893  -1.905  -0.058  0.00  0.00    +0.151 A 
ATOM     21  C   UNL     1       4.686  -3.015  -0.071  0.00  0.00    +0.051 A 
ATOM     22  C   UNL     1       3.824  -4.128  -0.076  0.00  0.00    +0.042 A 
ATOM     23  C   UNL     1       2.563  -3.653  -0.066  0.00  0.00    +0.196 A 
ATOM     24  O   UNL     1       2.607  -2.310  -0.049  0.00  0.00    -0.462 OA
ENDBRANCH   2  20
TORSDOF 2
