REMARK  Name = ZINC08438234
REMARK  11 active torsions:
REMARK  status: ('A' for Active; 'I' for Inactive)
REMARK    1  A    between atoms: C_1  and  C_2
REMARK    2  A    between atoms: C_2  and  O_3
REMARK    3  A    between atoms: O_3  and  C_4
REMARK    4  A    between atoms: C_6  and  C_22
REMARK    5  A    between atoms: C_9  and  O_10
REMARK    6  A    between atoms: O_10  and  C_11
REMARK    7  A    between atoms: C_11  and  C_12
REMARK    8  A    between atoms: C_24  and  C_37
REMARK    9  A    between atoms: C_25  and  N_36
REMARK   10  A    between atoms: C_32  and  C_34
REMARK   11  A    between atoms: C_32  and  C_35
REMARK                            x       y       z     vdW  Elec       q    Type
REMARK                         _______ _______ _______ _____ _____    ______ ____
ROOT
ATOM      1  C   UNL     1      -6.019   2.431   0.073  0.00  0.00    +0.162 A 
ATOM      2  C   UNL     1      -7.316   2.919   0.088  0.00  0.00    +0.054 A 
ATOM      3  C   UNL     1      -7.542   4.282   0.097  0.00  0.00    -0.031 A 
ATOM      4  C   UNL     1      -6.476   5.163   0.090  0.00  0.00    +0.008 A 
ATOM      5  C   UNL     1      -5.179   4.683   0.082  0.00  0.00    +0.050 A 
ATOM      6  C   UNL     1      -4.946   3.317   0.067  0.00  0.00    +0.162 A 
ENDROOT
BRANCH   3   7
ATOM      7  C   UNL     1      -8.953   4.811   0.112  0.00  0.00    +0.101 C 
ATOM      8  C   UNL     1      -9.164   5.631   1.354  0.00  0.00    +0.098 C 
ATOM      9  C   UNL     1      -9.143   6.985   1.294  0.00  0.00    +0.198 C 
ATOM     10  O   UNL     1      -8.931   7.629   0.136  0.00  0.00    -0.445 OA
ATOM     11  C   UNL     1      -9.167   7.002  -1.032  0.00  0.00    +0.115 C 
ATOM     12  C   UNL     1      -9.184   5.659  -1.115  0.00  0.00    +0.046 C 
ATOM     13  C   UNL     1      -9.413   5.004  -2.340  0.00  0.00    +0.164 C 
ATOM     14  O   UNL     1      -9.436   3.790  -2.373  0.00  0.00    -0.292 OA
ATOM     15  C   UNL     1      -9.629   5.781  -3.611  0.00  0.00    +0.086 C 
ATOM     16  C   UNL     1      -8.900   7.124  -3.500  0.00  0.00    -0.021 C 
ATOM     17  C   UNL     1      -9.412   7.853  -2.256  0.00  0.00    +0.081 C 
ATOM     18  C   UNL     1      -7.395   6.884  -3.372  0.00  0.00    +0.012 C 
ATOM     19  C   UNL     1      -9.182   7.966  -4.746  0.00  0.00    +0.012 C 
BRANCH   9  20
ATOM     20  N   UNL     1      -9.343   7.712   2.441  0.00  0.00    -0.328 N 
ATOM     21  H   UNL     1      -9.330   8.681   2.409  0.00  0.00    +0.145 HD
ATOM     22  H   UNL     1      -9.497   7.257   3.283  0.00  0.00    +0.145 HD
ENDBRANCH   9  20
BRANCH   8  23
ATOM     23  C   UNL     1      -9.389   4.978   2.609  0.00  0.00    +0.101 C 
ATOM     24  N   UNL     1      -9.568   4.460   3.604  0.00  0.00    -0.191 NA
ENDBRANCH   8  23
ENDBRANCH   3   7
BRANCH   1  25
ATOM     25  O   UNL     1      -5.795   1.090   0.065  0.00  0.00    -0.489 OA
BRANCH  25  27
ATOM     26  C   UNL     1      -6.497  -1.223   0.062  0.00  0.00    +0.048 C 
ATOM     27  C   UNL     1      -6.944   0.240   0.072  0.00  0.00    +0.226 C 
ENDBRANCH  25  27
ENDBRANCH   1  25
BRANCH   6  28
ATOM     28  O   UNL     1      -3.671   2.843   0.053  0.00  0.00    -0.484 OA
BRANCH  28  29
ATOM     29  C   UNL     1      -2.620   3.811   0.048  0.00  0.00    +0.265 C 
BRANCH  29  30
ATOM     30  C   UNL     1      -1.288   3.106   0.032  0.00  0.00    -0.003 A 
ATOM     31  C   UNL     1      -1.234   1.746   0.017  0.00  0.00    +0.007 A 
ATOM     32  C   UNL     1      -0.013   1.076   0.008  0.00  0.00    +0.001 A 
ATOM     33  C   UNL     1       1.163   1.762   0.000  0.00  0.00    +0.008 A 
ATOM     34  C   UNL     1       1.147   3.167   0.008  0.00  0.00    -0.018 A 
ATOM     35  C   UNL     1      -0.095   3.848   0.024  0.00  0.00    -0.011 A 
ATOM     36  C   UNL     1      -0.111   5.254   0.031  0.00  0.00    +0.009 A 
ATOM     37  C   UNL     1       1.064   5.940   0.023  0.00  0.00    +0.001 A 
ATOM     38  C   UNL     1       2.287   5.270   0.008  0.00  0.00    +0.001 A 
ATOM     39  C   UNL     1       2.340   3.910   0.000  0.00  0.00    +0.008 A 
ENDBRANCH  29  30
ENDBRANCH  28  29
ENDBRANCH   6  28
TORSDOF 8
