REMARK  Name = ZINC39446599
REMARK  13 active torsions:
REMARK  status: ('A' for Active; 'I' for Inactive)
REMARK    1  A    between atoms: C_1  and  C_2
REMARK    2  A    between atoms: C_2  and  C_3
REMARK    3  A    between atoms: C_3  and  C_5
REMARK    4  A    between atoms: C_3  and  N_33
REMARK    5  A    between atoms: C_9  and  S_18
REMARK    6  A    between atoms: N_10  and  C_11
REMARK    7  A    between atoms: C_11  and  C_12
REMARK    8  A    between atoms: S_18  and  C_19
REMARK    9  A    between atoms: C_19  and  C_20
REMARK   10  A    between atoms: C_20  and  C_21
REMARK   11  A    between atoms: C_21  and  N_22
REMARK   12  A    between atoms: N_33  and  C_34
REMARK   13  A    between atoms: N_33  and  C_35
REMARK                            x       y       z     vdW  Elec       q    Type
REMARK                         _______ _______ _______ _____ _____    ______ ____
ROOT
ATOM      1  C   UNL     1      -1.635  -2.013  -0.642  0.00  0.00    +0.164 C 
ATOM      2  N   UNL     1      -2.702  -3.019  -0.505  0.00  0.00    -0.248 N 
ATOM      3  N   UNL     1      -2.194  -4.013   0.340  0.00  0.00    -0.163 NA
ATOM      4  C   UNL     1      -0.991  -3.742   0.718  0.00  0.00    +0.175 C 
ATOM      5  N   UNL     1      -0.536  -2.543   0.181  0.00  0.00    -0.286 N 
ATOM      6  H   UNL     1      -3.580  -2.997  -0.916  0.00  0.00    +0.170 HD
ENDROOT
BRANCH   1   7
ATOM      7  C   UNL     1      -2.102  -0.658  -0.107  0.00  0.00    -0.029 C 
BRANCH   7   8
ATOM      8  N   UNL     1      -2.939  -0.864   1.083  0.00  0.00    +0.380 N 
ATOM      9  C   UNL     1      -4.021  -1.805   0.763  0.00  0.00    -0.096 C 
ATOM     10  C   UNL     1      -2.118  -1.413   2.170  0.00  0.00    -0.096 C 
ATOM     11  H   UNL     1      -3.335   0.018   1.372  0.00  0.00    -0.082 HD
ENDBRANCH   7   8
BRANCH   7  13
ATOM     12  C   UNL     1      -3.435   1.390  -0.626  0.00  0.00    +0.002 C 
ATOM     13  C   UNL     1      -2.915   0.064  -1.184  0.00  0.00    -0.015 C 
ENDBRANCH   7  13
ENDBRANCH   1   7
BRANCH   5  14
ATOM     14  C   UNL     1       0.776  -1.927   0.393  0.00  0.00    +0.144 C 
BRANCH  14  15
ATOM     15  C   UNL     1       0.767  -1.157   1.688  0.00  0.00    -0.030 A 
ATOM     16  C   UNL     1       0.533   0.206   1.679  0.00  0.00    +0.005 A 
ATOM     17  C   UNL     1       0.524   0.913   2.867  0.00  0.00    +0.000 A 
ATOM     18  C   UNL     1       0.748   0.258   4.063  0.00  0.00    +0.000 A 
ATOM     19  C   UNL     1       0.981  -1.105   4.072  0.00  0.00    +0.000 A 
ATOM     20  C   UNL     1       0.986  -1.813   2.885  0.00  0.00    +0.005 A 
ENDBRANCH  14  15
ENDBRANCH   5  14
BRANCH   4  21
ATOM     21  S   UNL     1      -0.037  -4.770   1.786  0.00  0.00    -0.089 S 
BRANCH  21  22
ATOM     22  C   UNL     1      -1.136  -6.166   2.149  0.00  0.00    +0.079 C 
BRANCH  22  23
ATOM     23  C   UNL     1      -0.422  -7.149   3.079  0.00  0.00    +0.033 C 
BRANCH  23  24
ATOM     24  C   UNL     1      -1.350  -8.326   3.386  0.00  0.00    +0.128 C 
BRANCH  24  25
ATOM     25  N   UNL     1      -0.666  -9.267   4.277  0.00  0.00    -0.292 N 
ATOM     26  C   UNL     1       0.125 -10.341   3.876  0.00  0.00    +0.070 A 
ATOM     27  C   UNL     1       0.499 -10.837   2.636  0.00  0.00    +0.028 A 
ATOM     28  C   UNL     1       1.316 -11.948   2.558  0.00  0.00    +0.002 A 
ATOM     29  C   UNL     1       1.762 -12.569   3.713  0.00  0.00    +0.002 A 
ATOM     30  C   UNL     1       1.394 -12.083   4.952  0.00  0.00    +0.028 A 
ATOM     31  C   UNL     1       0.575 -10.967   5.040  0.00  0.00    +0.067 A 
ATOM     32  N   UNL     1       0.043 -10.254   6.112  0.00  0.00    -0.306 N 
ATOM     33  H   UNL     1       0.182 -10.454   7.051  0.00  0.00    +0.170 HD
ATOM     34  C   UNL     1      -0.692  -9.238   5.623  0.00  0.00    +0.328 A 
ATOM     35  O   UNL     1      -1.291  -8.419   6.295  0.00  0.00    -0.247 OA
ENDBRANCH  24  25
ENDBRANCH  23  24
ENDBRANCH  22  23
ENDBRANCH  21  22
ENDBRANCH   4  21
TORSDOF 10
