REMARK  Name = ZINC12802380
REMARK  10 active torsions:
REMARK  status: ('A' for Active; 'I' for Inactive)
REMARK    1  A    between atoms: C_1  and  C_2
REMARK    2  A    between atoms: C_6  and  C_8
REMARK    3  A    between atoms: C_11  and  S_22
REMARK    4  A    between atoms: N_12  and  C_13
REMARK    5  A    between atoms: C_19  and  C_21
REMARK    6  A    between atoms: S_22  and  C_23
REMARK    7  A    between atoms: C_23  and  C_24
REMARK    8  A    between atoms: C_24  and  C_26
REMARK    9  A    between atoms: C_27  and  N_38
REMARK   10  A    between atoms: N_28  and  C_35
REMARK                            x       y       z     vdW  Elec       q    Type
REMARK                         _______ _______ _______ _____ _____    ______ ____
ROOT
ATOM      1  C   UNL     1       0.505   0.921   3.030  0.00  0.00    +0.165 A 
ATOM      2  N   UNL     1      -0.271   0.685   4.063  0.00  0.00    -0.128 NA
ATOM      3  N   UNL     1      -1.423   0.281   3.663  0.00  0.00    -0.122 NA
ATOM      4  C   UNL     1      -1.456   0.240   2.349  0.00  0.00    +0.193 A 
ATOM      5  N   UNL     1      -0.233   0.649   1.901  0.00  0.00    -0.299 N 
ENDROOT
BRANCH   1  11
ATOM      6  C   UNL     1       4.100   3.572   5.253  0.00  0.00    +0.044 C 
ATOM      7  C   UNL     1       3.639   2.669   4.139  0.00  0.00    -0.050 A 
ATOM      8  C   UNL     1       4.527   2.280   3.152  0.00  0.00    +0.003 A 
ATOM      9  C   UNL     1       4.111   1.451   2.126  0.00  0.00    +0.001 A 
ATOM     10  C   UNL     1       2.808   1.001   2.084  0.00  0.00    +0.011 A 
ATOM     11  C   UNL     1       1.905   1.394   3.073  0.00  0.00    +0.020 A 
ATOM     12  C   UNL     1       2.331   2.231   4.106  0.00  0.00    +0.015 A 
ENDBRANCH   1  11
BRANCH   5  13
ATOM     13  C   UNL     1       0.205   0.768   0.508  0.00  0.00    +0.094 C 
ATOM     14  C   UNL     1       0.112  -0.599  -0.174  0.00  0.00    +0.025 C 
ATOM     15  C   UNL     1      -1.336  -1.090  -0.135  0.00  0.00    +0.002 C 
ATOM     16  C   UNL     1      -2.234  -0.092  -0.869  0.00  0.00    +0.000 C 
ATOM     17  C   UNL     1      -2.140   1.274  -0.186  0.00  0.00    +0.005 C 
ATOM     18  C   UNL     1      -0.692   1.766  -0.226  0.00  0.00    +0.009 C 
ATOM     19  C   UNL     1      -0.599   3.133   0.457  0.00  0.00    +0.009 C 
ENDBRANCH   5  13
BRANCH   4  20
ATOM     20  S   UNL     1      -2.823  -0.252   1.353  0.00  0.00    -0.078 S 
BRANCH  20  21
ATOM     21  C   UNL     1      -4.031  -0.637   2.644  0.00  0.00    +0.157 C 
BRANCH  21  22
ATOM     22  C   UNL     1      -5.319  -1.094   2.008  0.00  0.00    +0.182 C 
ATOM     23  O   UNL     1      -5.411  -1.153   0.798  0.00  0.00    -0.291 OA
BRANCH  22  24
ATOM     24  C   UNL     1      -6.418  -1.452   2.818  0.00  0.00    +0.120 A 
ATOM     25  C   UNL     1      -7.583  -2.003   2.257  0.00  0.00    +0.116 A 
ATOM     26  N   UNL     1      -8.620  -2.334   3.081  0.00  0.00    -0.278 N 
ATOM     27  C   UNL     1      -8.545  -2.145   4.408  0.00  0.00    +0.331 A 
ATOM     28  O   UNL     1      -9.495  -2.456   5.099  0.00  0.00    -0.246 OA
ATOM     29  N   UNL     1      -7.458  -1.623   5.000  0.00  0.00    -0.274 N 
ATOM     30  H   UNL     1      -7.449  -1.497   5.992  0.00  0.00    +0.173 HD
ATOM     31  C   UNL     1      -6.378  -1.268   4.274  0.00  0.00    +0.266 A 
ATOM     32  O   UNL     1      -5.393  -0.800   4.815  0.00  0.00    -0.267 OA
BRANCH  26  33
ATOM     33  C   UNL     1      -9.839  -2.909   2.506  0.00  0.00    +0.094 C 
ATOM     34  C   UNL     1     -10.419  -4.154   3.180  0.00  0.00    +0.027 C 
ATOM     35  C   UNL     1      -9.723  -4.272   1.822  0.00  0.00    +0.027 C 
ENDBRANCH  26  33
BRANCH  25  36
ATOM     36  N   UNL     1      -7.677  -2.202   0.914  0.00  0.00    -0.344 N 
ATOM     37  H   UNL     1      -6.906  -2.047   0.346  0.00  0.00    +0.144 HD
ATOM     38  H   UNL     1      -8.514  -2.498   0.525  0.00  0.00    +0.144 HD
ENDBRANCH  25  36
ENDBRANCH  22  24
ENDBRANCH  21  22
ENDBRANCH  20  21
ENDBRANCH   4  20
TORSDOF 8
