REMARK  Name = ZINC33072097
REMARK  11 active torsions:
REMARK  status: ('A' for Active; 'I' for Inactive)
REMARK    1  A    between atoms: C_1  and  C_2
REMARK    2  A    between atoms: C_2  and  O_3
REMARK    3  A    between atoms: O_3  and  C_4
REMARK    4  A    between atoms: C_7  and  C_13
REMARK    5  A    between atoms: C_9  and  O_10
REMARK    6  A    between atoms: O_10  and  C_11
REMARK    7  A    between atoms: C_11  and  C_12
REMARK    8  A    between atoms: C_13  and  C_14
REMARK    9  A    between atoms: C_14  and  N_15
REMARK   10  A    between atoms: C_16  and  C_18
REMARK   11  A    between atoms: C_30  and  C_35
REMARK                            x       y       z     vdW  Elec       q    Type
REMARK                         _______ _______ _______ _____ _____    ______ ____
ROOT
ATOM      1  N   UNL     1      -6.819   5.107   8.929  0.00  0.00    -0.315 N 
ATOM      2  C   UNL     1      -5.858   4.594   8.136  0.00  0.00    +0.218 C 
ATOM      3  O   UNL     1      -4.740   4.419   8.572  0.00  0.00    -0.275 OA
ATOM      4  H   UNL     1      -7.833   5.265   8.533  0.00  0.00    +0.149 HD
ENDROOT
BRANCH   2   5
ATOM      5  C   UNL     1      -6.173   4.237   6.705  0.00  0.00    +0.092 C 
ATOM      6  C   UNL     1      -7.277   3.177   6.674  0.00  0.00    +0.016 C 
ATOM      7  C   UNL     1      -7.548   2.777   5.221  0.00  0.00    +0.020 C 
ATOM      8  C   UNL     1      -6.254   2.262   4.589  0.00  0.00    +0.108 C 
ATOM      9  N   UNL     1      -5.229   3.312   4.643  0.00  0.00    -0.302 N 
ATOM     10  C   UNL     1      -4.918   3.679   6.030  0.00  0.00    +0.120 C 
ATOM     11  C   UNL     1      -4.091   2.928   3.966  0.00  0.00    +0.174 A 
ATOM     12  N   UNL     1      -4.051   2.529   2.661  0.00  0.00    -0.327 N 
ATOM     13  H   UNL     1      -4.976   2.497   2.067  0.00  0.00    +0.169 HD
ATOM     14  C   UNL     1      -2.732   2.229   2.363  0.00  0.00    +0.066 A 
ATOM     15  C   UNL     1      -2.080   1.787   1.221  0.00  0.00    +0.031 A 
ATOM     16  C   UNL     1      -0.718   1.572   1.248  0.00  0.00    -0.048 A 
ATOM     17  C   UNL     1       0.008   1.805   2.407  0.00  0.00    +0.005 A 
ATOM     18  C   UNL     1      -0.622   2.249   3.548  0.00  0.00    +0.028 A 
ATOM     19  C   UNL     1      -2.002   2.467   3.539  0.00  0.00    +0.065 A 
ATOM     20  N   UNL     1      -2.886   2.890   4.480  0.00  0.00    -0.327 N 
ATOM     21  C   UNL     1      -0.013   1.086   0.008  0.00  0.00    +0.044 C 
ATOM     22  H   UNL     1      -2.727   3.181   5.529  0.00  0.00    +0.169 HD
ENDBRANCH   2   5
BRANCH   1  23
ATOM     23  C   UNL     1      -6.514   5.454  10.319  0.00  0.00    +0.109 C 
BRANCH  23  24
ATOM     24  C   UNL     1      -7.769   6.011  10.994  0.00  0.00    +0.054 C 
BRANCH  24  28
ATOM     25  C   UNL     1      -6.878   7.017  15.054  0.00  0.00    +0.162 A 
ATOM     26  C   UNL     1      -7.330   5.747  14.735  0.00  0.00    +0.050 A 
ATOM     27  C   UNL     1      -7.623   5.426  13.422  0.00  0.00    +0.007 A 
ATOM     28  C   UNL     1      -7.455   6.368  12.424  0.00  0.00    -0.042 A 
ATOM     29  C   UNL     1      -7.004   7.637  12.735  0.00  0.00    +0.053 A 
ATOM     30  C   UNL     1      -6.714   7.966  14.049  0.00  0.00    +0.162 A 
BRANCH  25  31
ATOM     31  O   UNL     1      -6.596   7.336  16.345  0.00  0.00    -0.489 OA
BRANCH  31  33
ATOM     32  C   UNL     1      -6.421   6.852  18.706  0.00  0.00    +0.048 C 
ATOM     33  C   UNL     1      -6.788   6.312  17.323  0.00  0.00    +0.226 C 
ENDBRANCH  31  33
ENDBRANCH  25  31
BRANCH  30  34
ATOM     34  O   UNL     1      -6.270   9.214  14.357  0.00  0.00    -0.489 OA
BRANCH  34  35
ATOM     35  C   UNL     1      -6.125  10.137  13.275  0.00  0.00    +0.226 C 
ATOM     36  C   UNL     1      -5.619  11.477  13.812  0.00  0.00    +0.048 C 
ENDBRANCH  34  35
ENDBRANCH  30  34
ENDBRANCH  24  28
ENDBRANCH  23  24
ENDBRANCH   1  23
TORSDOF 8
