REMARK  Name = ZINC35842651
REMARK  23 active torsions:
REMARK  status: ('A' for Active; 'I' for Inactive)
REMARK    1  A    between atoms: C_1  and  C_2
REMARK    2  A    between atoms: C_2  and  C_3
REMARK    3  A    between atoms: C_2  and  C_4
REMARK    4  A    between atoms: C_4  and  O_5
REMARK    5  A    between atoms: O_5  and  C_6
REMARK    6  A    between atoms: C_6  and  C_7
REMARK    7  A    between atoms: C_7  and  C_9
REMARK    8  A    between atoms: C_7  and  O_41
REMARK    9  A    between atoms: C_9  and  N_10
REMARK   10  A    between atoms: N_10  and  C_11
REMARK   11  A    between atoms: N_10  and  C_38
REMARK   12  A    between atoms: C_11  and  C_12
REMARK   13  A    between atoms: N_14  and  C_15
REMARK   14  A    between atoms: N_14  and  C_27
REMARK   15  A    between atoms: C_15  and  C_16
REMARK   16  A    between atoms: C_16  and  C_17
REMARK   17  A    between atoms: C_27  and  C_28
REMARK   18  A    between atoms: C_31  and  C_34
REMARK   19  A    between atoms: C_34  and  C_35
REMARK   20  A    between atoms: C_34  and  C_36
REMARK   21  A    between atoms: C_34  and  C_37
REMARK   22  A    between atoms: C_38  and  C_39
REMARK   23  A    between atoms: C_38  and  C_40
REMARK                            x       y       z     vdW  Elec       q    Type
REMARK                         _______ _______ _______ _____ _____    ______ ____
ROOT
ATOM      1  C   UNL     1      -5.015  -8.112  -0.609  0.00  0.00    +0.199 C 
ATOM      2  O   UNL     1      -3.940  -8.663  -0.492  0.00  0.00    -0.278 OA
ATOM      3  N   UNL     1      -6.138  -8.846  -0.735  0.00  0.00    -0.298 N 
ENDROOT
BRANCH   1   4
ATOM      4  C   UNL     1      -5.094  -6.607  -0.613  0.00  0.00    +0.019 C 
BRANCH   4   5
ATOM      5  N   UNL     1      -3.737  -6.046  -0.671  0.00  0.00    +0.389 N 
ATOM      6  H   UNL     1      -3.123  -6.589  -0.083  0.00  0.00    -0.081 HD
BRANCH   5   7
ATOM      7  C   UNL     1      -3.250  -6.085  -2.056  0.00  0.00    -0.074 C 
ATOM      8  C   UNL     1      -3.159  -7.538  -2.525  0.00  0.00    -0.014 C 
ATOM      9  C   UNL     1      -4.219  -5.318  -2.959  0.00  0.00    -0.014 C 
ENDBRANCH   5   7
BRANCH   5  10
ATOM     10  C   UNL     1      -3.762  -4.655  -0.200  0.00  0.00    -0.044 C 
BRANCH  10  11
ATOM     11  C   UNL     1      -2.331  -4.122  -0.106  0.00  0.00    +0.124 C 
BRANCH  11  12
ATOM     12  O   UNL     1      -1.608  -4.868   0.875  0.00  0.00    -0.391 OA
ATOM     13  H   UNL     1      -1.988  -4.822   1.763  0.00  0.00    +0.210 HD
ENDBRANCH  11  12
BRANCH  11  14
ATOM     14  C   UNL     1      -2.362  -2.646   0.296  0.00  0.00    +0.189 C 
BRANCH  14  15
ATOM     15  O   UNL     1      -1.034  -2.118   0.270  0.00  0.00    -0.377 OA
BRANCH  15  16
ATOM     16  C   UNL     1      -0.951  -0.738   0.632  0.00  0.00    +0.163 C 
BRANCH  16  18
ATOM     17  C   UNL     1       0.584   1.223   0.836  0.00  0.00    +0.009 C 
ATOM     18  C   UNL     1       0.509  -0.282   0.570  0.00  0.00    +0.009 C 
ATOM     19  C   UNL     1       1.322  -1.028   1.630  0.00  0.00    +0.009 C 
ENDBRANCH  16  18
ENDBRANCH  15  16
ENDBRANCH  14  15
ENDBRANCH  11  14
ENDBRANCH  10  11
ENDBRANCH   5  10
ENDBRANCH   4   5
ENDBRANCH   1   4
BRANCH   3  20
ATOM     20  C   UNL     1      -7.436  -8.181  -0.875  0.00  0.00    +0.113 C 
BRANCH  20  21
ATOM     21  C   UNL     1      -7.730  -7.945  -2.358  0.00  0.00    +0.056 C 
BRANCH  21  22
ATOM     22  C   UNL     1      -9.065  -7.261  -2.503  0.00  0.00    -0.021 A 
ATOM     23  C   UNL     1     -10.247  -7.856  -2.723  0.00  0.00    +0.087 A 
ATOM     24  N   UNL     1     -11.237  -6.915  -2.797  0.00  0.00    -0.360 N 
ATOM     25  H   UNL     1     -12.176  -7.104  -2.951  0.00  0.00    +0.165 HD
ATOM     26  C   UNL     1     -10.702  -5.658  -2.622  0.00  0.00    +0.047 A 
ATOM     27  C   UNL     1      -9.319  -5.821  -2.423  0.00  0.00    +0.003 A 
ATOM     28  C   UNL     1      -8.510  -4.703  -2.211  0.00  0.00    +0.010 A 
ATOM     29  C   UNL     1      -9.068  -3.455  -2.193  0.00  0.00    +0.001 A 
ATOM     30  C   UNL     1     -10.432  -3.290  -2.384  0.00  0.00    +0.002 A 
ATOM     31  C   UNL     1     -11.248  -4.379  -2.605  0.00  0.00    +0.026 A 
ENDBRANCH  21  22
ENDBRANCH  20  21
ENDBRANCH   3  20
BRANCH   3  32
ATOM     32  C   UNL     1      -6.061 -10.309  -0.731  0.00  0.00    +0.142 C 
BRANCH  32  33
ATOM     33  C   UNL     1      -6.190 -10.815   0.683  0.00  0.00    -0.030 A 
ATOM     34  C   UNL     1      -5.062 -10.979   1.464  0.00  0.00    +0.005 A 
ATOM     35  C   UNL     1      -5.180 -11.443   2.761  0.00  0.00    +0.004 A 
ATOM     36  C   UNL     1      -6.427 -11.743   3.277  0.00  0.00    -0.042 A 
ATOM     37  C   UNL     1      -7.556 -11.578   2.496  0.00  0.00    +0.004 A 
ATOM     38  C   UNL     1      -7.438 -11.110   1.201  0.00  0.00    +0.005 A 
BRANCH  36  39
ATOM     39  C   UNL     1      -6.556 -12.249   4.690  0.00  0.00    -0.013 C 
ATOM     40  C   UNL     1      -5.996 -11.206   5.659  0.00  0.00    +0.015 C 
ATOM     41  C   UNL     1      -8.031 -12.502   5.009  0.00  0.00    +0.015 C 
ATOM     42  C   UNL     1      -5.771 -13.555   4.837  0.00  0.00    +0.015 C 
ENDBRANCH  36  39
ENDBRANCH  32  33
ENDBRANCH   3  32
TORSDOF 16
