REMARK  Name = ZINC00914706
REMARK  10 active torsions:
REMARK  status: ('A' for Active; 'I' for Inactive)
REMARK    1  A    between atoms: C_1  and  C_2
REMARK    2  A    between atoms: C_5  and  C_37
REMARK    3  A    between atoms: C_9  and  C_14
REMARK    4  A    between atoms: C_14  and  N_15
REMARK    5  A    between atoms: N_15  and  C_16
REMARK    6  A    between atoms: N_15  and  S_26
REMARK    7  A    between atoms: C_16  and  C_17
REMARK    8  A    between atoms: S_26  and  C_29
REMARK    9  A    between atoms: C_32  and  O_35
REMARK   10  A    between atoms: O_35  and  C_36
REMARK                            x       y       z     vdW  Elec       q    Type
REMARK                         _______ _______ _______ _____ _____    ______ ____
ROOT
ATOM      1  N   UNL     1       6.095  -0.970   0.849  0.00  0.00    -0.168 NA
ENDROOT
BRANCH   1   2
ATOM      2  S   UNL     1       6.875   0.386   0.306  0.00  0.00    +0.061 S 
ATOM      3  O   UNL     1       6.965   0.265  -1.107  0.00  0.00    -0.153 OA
ATOM      4  O   UNL     1       6.250   1.494   0.938  0.00  0.00    -0.153 OA
BRANCH   2   5
ATOM      5  C   UNL     1       8.525   0.319   0.923  0.00  0.00    +0.106 A 
ATOM      6  C   UNL     1       8.849   0.972   2.098  0.00  0.00    +0.032 A 
ATOM      7  C   UNL     1      10.140   0.917   2.586  0.00  0.00    +0.047 A 
ATOM      8  C   UNL     1      11.114   0.215   1.891  0.00  0.00    +0.120 A 
ATOM      9  C   UNL     1      10.787  -0.434   0.709  0.00  0.00    +0.047 A 
ATOM     10  C   UNL     1       9.494  -0.381   0.228  0.00  0.00    +0.032 A 
BRANCH   8  11
ATOM     11  O   UNL     1      12.386   0.164   2.366  0.00  0.00    -0.495 OA
ATOM     12  C   UNL     1      12.650   0.856   3.588  0.00  0.00    +0.277 C 
ENDBRANCH   8  11
ENDBRANCH   2   5
ENDBRANCH   1   2
BRANCH   1  13
ATOM     13  C   UNL     1       6.211  -2.228   0.108  0.00  0.00    +0.150 C 
BRANCH  13  22
ATOM     14  C   UNL     1       5.365  -1.127  -4.911  0.00  0.00    +0.044 C 
ATOM     15  C   UNL     1       4.091  -1.714  -4.361  0.00  0.00    -0.041 A 
ATOM     16  C   UNL     1       2.999  -1.862  -5.168  0.00  0.00    +0.004 A 
ATOM     17  C   UNL     1       1.821  -2.401  -4.671  0.00  0.00    +0.005 A 
ATOM     18  C   UNL     1       1.729  -2.797  -3.354  0.00  0.00    -0.026 A 
ATOM     19  C   UNL     1       2.828  -2.656  -2.513  0.00  0.00    +0.052 A 
ATOM     20  C   UNL     1       4.021  -2.108  -3.021  0.00  0.00    +0.002 A 
ATOM     21  C   UNL     1       5.172  -1.963  -2.127  0.00  0.00    +0.020 A 
ATOM     22  C   UNL     1       5.045  -2.363  -0.838  0.00  0.00    +0.033 A 
ATOM     23  C   UNL     1       3.828  -2.911  -0.380  0.00  0.00    +0.254 A 
ATOM     24  O   UNL     1       3.737  -3.268   0.782  0.00  0.00    -0.268 OA
ATOM     25  N   UNL     1       2.764  -3.043  -1.191  0.00  0.00    -0.322 N 
ATOM     26  H   UNL     1       1.915  -3.429  -0.831  0.00  0.00    +0.169 HD
ATOM     27  C   UNL     1       0.443  -3.381  -2.827  0.00  0.00    +0.046 C 
ENDBRANCH  13  22
ENDBRANCH   1  13
BRANCH   1  28
ATOM     28  C   UNL     1       5.289  -0.912   2.071  0.00  0.00    +0.145 C 
BRANCH  28  29
ATOM     29  C   UNL     1       6.122  -1.356   3.245  0.00  0.00    -0.028 A 
ATOM     30  C   UNL     1       6.776  -0.418   4.021  0.00  0.00    +0.009 A 
ATOM     31  C   UNL     1       7.543  -0.820   5.099  0.00  0.00    +0.050 A 
ATOM     32  C   UNL     1       7.657  -2.167   5.404  0.00  0.00    +0.166 A 
ATOM     33  C   UNL     1       6.998  -3.113   4.622  0.00  0.00    +0.167 A 
ATOM     34  C   UNL     1       6.232  -2.702   3.543  0.00  0.00    +0.054 A 
ATOM     35  O   UNL     1       7.265  -4.354   5.121  0.00  0.00    -0.453 OA
ATOM     36  C   UNL     1       7.760  -4.134   6.455  0.00  0.00    +0.466 C 
ATOM     37  O   UNL     1       8.337  -2.817   6.393  0.00  0.00    -0.453 OA
ENDBRANCH  28  29
ENDBRANCH   1  28
TORSDOF 7
