REMARK  Name = ZINC63406063
REMARK  5 active torsions:
REMARK  status: ('A' for Active; 'I' for Inactive)
REMARK    1  A    between atoms: C_4  and  C_7
REMARK    2  A    between atoms: C_10  and  N_29
REMARK    3  A    between atoms: C_15  and  C_17
REMARK    4  A    between atoms: N_19  and  N_20
REMARK    5  A    between atoms: C_21  and  C_22
REMARK                            x       y       z     vdW  Elec       q    Type
REMARK                         _______ _______ _______ _____ _____    ______ ____
ROOT
ATOM      1  C   UNL     1       4.568  -1.888  -0.579  0.00  0.00    -0.000 C 
ATOM      2  C   UNL     1       5.942  -1.897  -0.752  0.00  0.00    +0.006 A 
ATOM      3  C   UNL     1       6.864  -0.895  -1.140  0.00  0.00    +0.043 A 
ATOM      4  C   UNL     1       8.182  -1.194  -1.229  0.00  0.00    +0.127 A 
ATOM      5  C   UNL     1       8.666  -2.477  -0.946  0.00  0.00    +0.035 A 
ATOM      6  C   UNL     1       7.844  -3.484  -0.570  0.00  0.00    +0.028 A 
ATOM      7  C   UNL     1       6.447  -3.251  -0.453  0.00  0.00    +0.044 A 
ATOM      8  N   UNL     1       5.457  -4.046  -0.112  0.00  0.00    -0.370 N 
ATOM      9  C   UNL     1       4.200  -3.291  -0.148  0.00  0.00    +0.199 C 
ATOM     10  H   UNL     1       5.544  -4.981   0.128  0.00  0.00    +0.161 HD
ENDROOT
BRANCH   1  14
ATOM     11  C   UNL     1       1.943   1.391  -1.122  0.00  0.00    +0.000 A 
ATOM     12  C   UNL     1       1.521   0.111  -1.442  0.00  0.00    +0.001 A 
ATOM     13  C   UNL     1       2.367  -0.962  -1.268  0.00  0.00    +0.008 A 
ATOM     14  C   UNL     1       3.661  -0.755  -0.767  0.00  0.00    -0.019 A 
ATOM     15  C   UNL     1       4.079   0.545  -0.446  0.00  0.00    +0.008 A 
ATOM     16  C   UNL     1       3.218   1.605  -0.626  0.00  0.00    +0.001 A 
ENDBRANCH   1  14
BRANCH   9  17
ATOM     17  C   UNL     1       3.568  -3.265   1.220  0.00  0.00    +0.259 C 
ATOM     18  O   UNL     1       2.367  -3.140   1.330  0.00  0.00    -0.271 OA
ATOM     19  N   UNL     1       4.338  -3.381   2.320  0.00  0.00    -0.205 N 
ATOM     20  H   UNL     1       5.304  -3.409   2.236  0.00  0.00    +0.177 HD
BRANCH  19  21
ATOM     21  N   UNL     1       3.742  -3.462   3.586  0.00  0.00    -0.188 NA
ATOM     22  C   UNL     1       4.482  -3.456   4.652  0.00  0.00    +0.138 C 
BRANCH  22  23
ATOM     23  C   UNL     1       5.847  -2.901   4.599  0.00  0.00    -0.004 A 
ATOM     24  C   UNL     1       6.251  -2.134   3.504  0.00  0.00    +0.009 A 
ATOM     25  C   UNL     1       7.529  -1.618   3.460  0.00  0.00    +0.002 A 
ATOM     26  C   UNL     1       8.412  -1.858   4.499  0.00  0.00    +0.015 A 
ATOM     27  C   UNL     1       8.019  -2.617   5.588  0.00  0.00    +0.018 A 
ATOM     28  C   UNL     1       6.740  -3.135   5.647  0.00  0.00    +0.024 A 
ATOM     29 BR   UNL     1       9.233  -2.939   7.001  0.00  0.00    -0.050 Br
ENDBRANCH  22  23
ENDBRANCH  19  21
ENDBRANCH   9  17
BRANCH   4  30
ATOM     30  N   UNL     1       9.136  -0.137  -1.635  0.00  0.00    +0.056 N 
ATOM     31  O   UNL     1       8.735   0.977  -1.883  0.00  0.00    -0.126 OA
ATOM     32  O   UNL     1      10.316  -0.387  -1.720  0.00  0.00    -0.126 OA
ENDBRANCH   4  30
TORSDOF 5
