REMARK  Name = ZINC47088457
REMARK  4 active torsions:
REMARK  status: ('A' for Active; 'I' for Inactive)
REMARK    1  A    between atoms: C_1  and  C_2
REMARK    2  A    between atoms: C_2  and  C_3
REMARK    3  A    between atoms: N_15  and  C_16
REMARK    4  A    between atoms: C_16  and  C_17
REMARK                            x       y       z     vdW  Elec       q    Type
REMARK                         _______ _______ _______ _____ _____    ______ ____
ROOT
ATOM      1  C   UNL     1       0.721  -0.501  -1.260  0.00  0.00    +0.108 C 
ATOM      2  C   UNL     1       0.835  -2.025  -1.228  0.00  0.00    -0.017 A 
ATOM      3  C   UNL     1       1.721  -2.707  -0.395  0.00  0.00    +0.013 A 
ATOM      4  C   UNL     1       1.765  -4.058  -0.417  0.00  0.00    +0.046 A 
ATOM      5  S   UNL     1       0.528  -4.447  -1.646  0.00  0.00    -0.101 S 
ATOM      6  C   UNL     1       0.050  -2.785  -2.038  0.00  0.00    -0.004 A 
ATOM      7  C   UNL     1      -0.970  -2.321  -3.027  0.00  0.00    +0.062 C 
ATOM      8  C   UNL     1      -1.313  -0.853  -2.729  0.00  0.00    +0.115 C 
ATOM      9  N   UNL     1      -0.061  -0.133  -2.448  0.00  0.00    -0.278 N 
ATOM     10  C   UNL     1       0.363   0.848  -3.268  0.00  0.00    +0.303 C 
ATOM     11  O   UNL     1      -0.239   1.082  -4.298  0.00  0.00    -0.253 OA
ATOM     12  N   UNL     1       1.455   1.571  -2.947  0.00  0.00    -0.295 N 
ATOM     13  H   UNL     1       1.977   1.338  -2.163  0.00  0.00    +0.151 HD
ENDROOT
BRANCH   1  15
ATOM     14  C   UNL     1      -0.007   1.521   0.013  0.00  0.00    +0.006 C 
ATOM     15  C   UNL     1       0.010  -0.009   0.002  0.00  0.00    +0.024 C 
ENDBRANCH   1  15
BRANCH  12  16
ATOM     16  C   UNL     1       1.853   2.707  -3.781  0.00  0.00    +0.144 C 
BRANCH  16  17
ATOM     17  C   UNL     1       3.095   3.340  -3.208  0.00  0.00    +0.007 A 
ATOM     18  C   UNL     1       3.147   4.379  -2.251  0.00  0.00    +0.046 A 
ATOM     19  C   UNL     1       4.447   4.636  -2.024  0.00  0.00    +0.195 A 
ATOM     20  O   UNL     1       5.182   3.812  -2.789  0.00  0.00    -0.471 OA
ATOM     21  C   UNL     1       4.367   3.020  -3.505  0.00  0.00    +0.200 A 
ENDBRANCH  16  17
ENDBRANCH  12  16
TORSDOF 3
