REMARK  Name = ZINC09138239
REMARK  11 active torsions:
REMARK  status: ('A' for Active; 'I' for Inactive)
REMARK    1  A    between atoms: C_1  and  N_2
REMARK    2  A    between atoms: C_10  and  C_12
REMARK    3  A    between atoms: C_12  and  C_14
REMARK    4  A    between atoms: C_12  and  N_71
REMARK    5  A    between atoms: C_14  and  N_15
REMARK    6  A    between atoms: C_16  and  C_18
REMARK    7  A    between atoms: N_20  and  C_21
REMARK    8  A    between atoms: C_24  and  O_29
REMARK    9  A    between atoms: C_26  and  O_27
REMARK   10  A    between atoms: O_27  and  C_28
REMARK   11  A    between atoms: O_29  and  C_30
REMARK                            x       y       z     vdW  Elec       q    Type
REMARK                         _______ _______ _______ _____ _____    ______ ____
ROOT
ATOM      1  C   UNL     1       3.277  -1.283   4.703  0.00  0.00    -0.020 C 
ENDROOT
BRANCH   1  11
ATOM      2  C   UNL     1      -3.033  -1.011   4.590  0.00  0.00    +0.129 C 
ATOM      3  N   UNL     1      -2.210  -0.470   3.500  0.00  0.00    -0.333 N 
ATOM      4  C   UNL     1      -2.583   0.913   3.198  0.00  0.00    +0.105 C 
ATOM      5  C   UNL     1      -1.675   1.434   2.077  0.00  0.00    +0.024 C 
ATOM      6  C   UNL     1      -0.257   1.558   2.639  0.00  0.00    +0.038 C 
ATOM      7  C   UNL     1       0.104   0.300   3.388  0.00  0.00    -0.026 A 
ATOM      8  C   UNL     1      -0.852  -0.622   3.777  0.00  0.00    +0.033 A 
ATOM      9  C   UNL     1      -0.458  -1.764   4.476  0.00  0.00    +0.023 A 
ATOM     10  C   UNL     1       0.872  -1.975   4.775  0.00  0.00    +0.004 A 
ATOM     11  C   UNL     1       1.823  -1.053   4.380  0.00  0.00    -0.059 A 
ATOM     12  C   UNL     1       1.438   0.080   3.689  0.00  0.00    +0.007 A 
ENDBRANCH   1  11
BRANCH   1  18
ATOM     13  C   UNL     1       3.927  -1.898   2.454  0.00  0.00    -0.078 C 
ATOM     14  C   UNL     1       4.614  -2.982   1.620  0.00  0.00    -0.019 C 
ATOM     15  C   UNL     1       3.788  -4.269   1.686  0.00  0.00    -0.004 C 
ATOM     16  C   UNL     1       3.635  -4.694   3.149  0.00  0.00    -0.019 C 
ATOM     17  C   UNL     1       2.977  -3.560   3.938  0.00  0.00    -0.078 C 
ATOM     18  N   UNL     1       3.833  -2.358   3.855  0.00  0.00    +0.385 N 
ATOM     19  H   UNL     1       4.774  -2.595   4.192  0.00  0.00    -0.081 HD
ENDBRANCH   1  18
BRANCH   1  20
ATOM     20  C   UNL     1       3.415  -1.692   6.171  0.00  0.00    +0.094 C 
BRANCH  20  21
ATOM     21  N   UNL     1       4.815  -2.012   6.459  0.00  0.00    -0.309 N 
ATOM     22  C   UNL     1       5.161  -2.498   7.668  0.00  0.00    +0.299 C 
ATOM     23  O   UNL     1       4.312  -2.670   8.517  0.00  0.00    -0.265 OA
ATOM     24  H   UNL     1       5.494  -1.874   5.779  0.00  0.00    +0.149 HD
BRANCH  22  25
ATOM     25  C   UNL     1       6.588  -2.823   7.961  0.00  0.00    +0.303 C 
ATOM     26  O   UNL     1       7.437  -2.651   7.111  0.00  0.00    -0.265 OA
ATOM     27  N   UNL     1       6.933  -3.309   9.170  0.00  0.00    -0.275 N 
ATOM     28  H   UNL     1       6.247  -3.523   9.821  0.00  0.00    +0.155 HD
BRANCH  27  29
ATOM     29  C   UNL     1       8.283  -3.505   9.486  0.00  0.00    +0.076 A 
ATOM     30  C   UNL     1       9.268  -2.844   8.765  0.00  0.00    +0.030 A 
ATOM     31  C   UNL     1      10.600  -3.036   9.078  0.00  0.00    +0.047 A 
ATOM     32  C   UNL     1      10.956  -3.889  10.113  0.00  0.00    +0.124 A 
ATOM     33  C   UNL     1       9.976  -4.552  10.837  0.00  0.00    +0.093 A 
ATOM     34  C   UNL     1       8.639  -4.358  10.529  0.00  0.00    +0.145 A 
BRANCH  34  35
ATOM     35  O   UNL     1       7.676  -5.002  11.241  0.00  0.00    -0.493 OA
ATOM     36  C   UNL     1       8.114  -5.861  12.295  0.00  0.00    +0.277 C 
ENDBRANCH  34  35
BRANCH  32  37
ATOM     37  O   UNL     1      12.268  -4.076  10.419  0.00  0.00    -0.495 OA
ATOM     38  C   UNL     1      13.224  -3.362   9.633  0.00  0.00    +0.277 C 
ENDBRANCH  32  37
ENDBRANCH  27  29
ENDBRANCH  22  25
ENDBRANCH  20  21
ENDBRANCH   1  20
TORSDOF 8
