REMARK  Name = ZINC63494720
REMARK  9 active torsions:
REMARK  status: ('A' for Active; 'I' for Inactive)
REMARK    1  A    between atoms: C_1  and  C_2
REMARK    2  A    between atoms: C_5  and  C_8
REMARK    3  A    between atoms: C_8  and  N_9
REMARK    4  A    between atoms: C_14  and  C_25
REMARK    5  A    between atoms: C_25  and  C_26
REMARK    6  A    between atoms: C_26  and  C_27
REMARK    7  A    between atoms: N_29  and  C_30
REMARK    8  A    between atoms: C_30  and  C_31
REMARK    9  A    between atoms: C_31  and  C_32
REMARK                            x       y       z     vdW  Elec       q    Type
REMARK                         _______ _______ _______ _____ _____    ______ ____
ROOT
ATOM      1  N   UNL     1       1.447  -4.746  -0.032  0.00  0.00    -0.254 N 
ATOM      2  C   UNL     1       2.127  -4.966  -1.307  0.00  0.00    +0.311 C 
ATOM      3  N   UNL     1       1.228  -5.455  -2.345  0.00  0.00    -0.147 NA
ATOM      4  N   UNL     1       1.638  -6.507  -2.846  0.00  0.00    -0.166 NA
ATOM      5  C   UNL     1       2.891  -6.954  -2.224  0.00  0.00    +0.217 C 
ATOM      6  N   UNL     1       3.141  -6.025  -1.107  0.00  0.00    -0.267 N 
ATOM      7  C   UNL     1       3.992  -6.046  -0.025  0.00  0.00    +0.047 A 
ATOM      8  C   UNL     1       5.267  -6.569  -0.040  0.00  0.00    +0.024 A 
ATOM      9  C   UNL     1       6.040  -6.519   1.106  0.00  0.00    +0.002 A 
ATOM     10  C   UNL     1       5.541  -5.947   2.266  0.00  0.00    +0.001 A 
ATOM     11  C   UNL     1       4.263  -5.426   2.301  0.00  0.00    +0.015 A 
ATOM     12  C   UNL     1       3.471  -5.474   1.159  0.00  0.00    +0.058 A 
ATOM     13  C   UNL     1       2.087  -4.967   1.138  0.00  0.00    +0.251 C 
ATOM     14  O   UNL     1       1.513  -4.748   2.187  0.00  0.00    -0.270 OA
ENDROOT
BRANCH   1  15
ATOM     15  C   UNL     1       0.059  -4.275  -0.021  0.00  0.00    +0.147 C 
BRANCH  15  20
ATOM     16  C   UNL     1      -0.018   1.503   0.010  0.00  0.00    +0.044 C 
ATOM     17  C   UNL     1       0.002  -0.004   0.002  0.00  0.00    -0.050 A 
ATOM     18  C   UNL     1       0.006  -0.689  -1.199  0.00  0.00    +0.003 A 
ATOM     19  C   UNL     1       0.025  -2.071  -1.206  0.00  0.00    +0.005 A 
ATOM     20  C   UNL     1       0.040  -2.768  -0.013  0.00  0.00    -0.030 A 
ATOM     21  C   UNL     1       0.037  -2.084   1.188  0.00  0.00    +0.005 A 
ATOM     22  C   UNL     1       0.023  -0.702   1.195  0.00  0.00    +0.003 A 
ENDBRANCH  15  20
ENDBRANCH   1  15
BRANCH   5  23
ATOM     23  C   UNL     1       4.041  -6.869  -3.230  0.00  0.00    +0.058 C 
BRANCH  23  24
ATOM     24  C   UNL     1       3.750  -7.791  -4.415  0.00  0.00    +0.099 C 
BRANCH  24  25
ATOM     25  C   UNL     1       4.882  -7.708  -5.406  0.00  0.00    +0.213 C 
ATOM     26  O   UNL     1       5.829  -6.982  -5.186  0.00  0.00    -0.276 OA
ATOM     27  N   UNL     1       4.843  -8.439  -6.538  0.00  0.00    -0.315 N 
ATOM     28  H   UNL     1       4.085  -9.019  -6.714  0.00  0.00    +0.149 HD
BRANCH  27  29
ATOM     29  C   UNL     1       5.943  -8.358  -7.501  0.00  0.00    +0.108 C 
BRANCH  29  30
ATOM     30  C   UNL     1       5.652  -9.280  -8.687  0.00  0.00    +0.052 C 
BRANCH  30  31
ATOM     31  C   UNL     1       6.785  -9.197  -9.678  0.00  0.00    -0.040 C 
ATOM     32  C   UNL     1       7.850 -10.025  -9.766  0.00  0.00    -0.001 A 
ATOM     33  C   UNL     1       8.259 -11.206  -8.995  0.00  0.00    +0.010 A 
ATOM     34  C   UNL     1       9.405 -11.842  -9.328  0.00  0.00    +0.001 A 
ATOM     35  C   UNL     1      10.211 -11.402 -10.387  0.00  0.00    +0.002 A 
ATOM     36  C   UNL     1       9.902 -10.326 -11.141  0.00  0.00    +0.026 A 
ATOM     37  C   UNL     1       8.718  -9.582 -10.880  0.00  0.00    +0.043 A 
ATOM     38  N   UNL     1       8.210  -8.521 -11.458  0.00  0.00    -0.380 N 
ATOM     39  C   UNL     1       6.956  -8.174 -10.778  0.00  0.00    +0.144 C 
ATOM     40  H   UNL     1       8.595  -8.047 -12.211  0.00  0.00    +0.160 HD
ENDBRANCH  30  31
ENDBRANCH  29  30
ENDBRANCH  27  29
ENDBRANCH  24  25
ENDBRANCH  23  24
ENDBRANCH   5  23
TORSDOF 8
