REMARK  Name = ZINC09183553
REMARK  6 active torsions:
REMARK  status: ('A' for Active; 'I' for Inactive)
REMARK    1  A    between atoms: C_1  and  C_2
REMARK    2  A    between atoms: C_2  and  C_3
REMARK    3  A    between atoms: C_15  and  C_17
REMARK    4  A    between atoms: C_20  and  C_23
REMARK    5  A    between atoms: C_27  and  C_30
REMARK    6  A    between atoms: C_34  and  N_36
REMARK                            x       y       z     vdW  Elec       q    Type
REMARK                         _______ _______ _______ _____ _____    ______ ____
ROOT
ATOM      1  C   UNL     1       4.864   2.945   1.121  0.00  0.00    +0.220 C 
ATOM      2  O   UNL     1       5.508   1.938   1.329  0.00  0.00    -0.275 OA
ATOM      3  N   UNL     1       3.987   2.985   0.099  0.00  0.00    -0.258 N 
ATOM      4  C   UNL     1       3.253   4.149  -0.130  0.00  0.00    +0.058 A 
ATOM      5  C   UNL     1       3.868   5.330  -0.512  0.00  0.00    +0.025 A 
ATOM      6  C   UNL     1       3.094   6.448  -0.772  0.00  0.00    +0.002 A 
ATOM      7  C   UNL     1       1.717   6.388  -0.654  0.00  0.00    +0.002 A 
ATOM      8  C   UNL     1       1.101   5.214  -0.257  0.00  0.00    +0.025 A 
ATOM      9  C   UNL     1       1.875   4.102   0.023  0.00  0.00    +0.053 A 
ATOM     10  N   UNL     1       1.331   2.928   0.528  0.00  0.00    -0.316 N 
ATOM     11  C   UNL     1       1.364   1.726  -0.102  0.00  0.00    +0.017 C 
ATOM     12  C   UNL     1       2.453   1.187  -0.675  0.00  0.00    +0.037 C 
ATOM     13  C   UNL     1       3.823   1.819  -0.744  0.00  0.00    +0.147 C 
ATOM     14  C   UNL     1       2.378  -0.082  -1.295  0.00  0.00    +0.163 C 
ATOM     15  O   UNL     1       3.373  -0.534  -1.827  0.00  0.00    -0.292 OA
ATOM     16  C   UNL     1       1.115  -0.890  -1.319  0.00  0.00    +0.088 C 
ATOM     17  C   UNL     1       0.276  -0.520  -0.091  0.00  0.00    +0.032 C 
ATOM     18  C   UNL     1       0.035   0.988  -0.129  0.00  0.00    +0.059 C 
ATOM     19  H   UNL     1       0.896   2.970   1.395  0.00  0.00    +0.152 HD
ENDROOT
BRANCH  13  20
ATOM     20  C   UNL     1       4.093   2.220  -2.171  0.00  0.00    -0.022 A 
ATOM     21  C   UNL     1       3.304   3.176  -2.782  0.00  0.00    +0.006 A 
ATOM     22  C   UNL     1       3.555   3.546  -4.090  0.00  0.00    +0.004 A 
ATOM     23  C   UNL     1       4.589   2.953  -4.790  0.00  0.00    -0.050 A 
ATOM     24  C   UNL     1       5.375   1.993  -4.181  0.00  0.00    +0.004 A 
ATOM     25  C   UNL     1       5.127   1.626  -2.872  0.00  0.00    +0.006 A 
ATOM     26  C   UNL     1       4.860   3.354  -6.218  0.00  0.00    +0.044 C 
ENDBRANCH  13  20
BRANCH  17  27
ATOM     27  C   UNL     1      -1.042  -1.249  -0.134  0.00  0.00    -0.041 A 
ATOM     28  C   UNL     1      -1.891  -1.079  -1.212  0.00  0.00    +0.004 A 
ATOM     29  C   UNL     1      -3.100  -1.747  -1.252  0.00  0.00    +0.002 A 
ATOM     30  C   UNL     1      -3.460  -2.587  -0.215  0.00  0.00    +0.033 A 
ATOM     31  C   UNL     1      -2.612  -2.758   0.863  0.00  0.00    +0.126 A 
ATOM     32  C   UNL     1      -1.400  -2.092   0.901  0.00  0.00    +0.036 A 
BRANCH  31  33
ATOM     33  N   UNL     1      -2.997  -3.657   1.973  0.00  0.00    +0.056 N 
ATOM     34  O   UNL     1      -4.062  -4.246   1.938  0.00  0.00    -0.126 OA
ATOM     35  O   UNL     1      -2.249  -3.807   2.923  0.00  0.00    -0.126 OA
ENDBRANCH  31  33
ENDBRANCH  17  27
BRANCH   1  37
ATOM     36  C   UNL     1       6.090   3.843   3.081  0.00  0.00    +0.013 C 
ATOM     37  C   UNL     1       5.045   4.151   2.006  0.00  0.00    +0.093 C 
ENDBRANCH   1  37
TORSDOF 4
