REMARK  Name = ZINC04259473
REMARK  9 active torsions:
REMARK  status: ('A' for Active; 'I' for Inactive)
REMARK    1  A    between atoms: C_1  and  C_2
REMARK    2  A    between atoms: C_2  and  O_3
REMARK    3  A    between atoms: O_3  and  C_4
REMARK    4  A    between atoms: C_4  and  C_6
REMARK    5  A    between atoms: C_10  and  N_11
REMARK    6  A    between atoms: C_12  and  C_14
REMARK    7  A    between atoms: N_16  and  N_17
REMARK    8  A    between atoms: C_18  and  C_19
REMARK    9  A    between atoms: C_30  and  C_34
REMARK                            x       y       z     vdW  Elec       q    Type
REMARK                         _______ _______ _______ _____ _____    ______ ____
ROOT
ATOM      1  N   UNL     1      -1.480  -0.873  -2.474  0.00  0.00    -0.271 N 
ATOM      2  C   UNL     1      -2.236  -1.297  -3.506  0.00  0.00    +0.305 C 
ATOM      3  O   UNL     1      -3.266  -1.905  -3.296  0.00  0.00    -0.265 OA
ATOM      4  H   UNL     1      -0.548  -0.323  -2.665  0.00  0.00    +0.156 HD
ENDROOT
BRANCH   1   9
ATOM      5  C   UNL     1      -1.240  -0.780   0.009  0.00  0.00    +0.091 A 
ATOM      6  C   UNL     1      -1.877  -1.171   1.256  0.00  0.00    -0.021 A 
ATOM      7  C   UNL     1      -3.037  -1.850   1.121  0.00  0.00    -0.004 A 
ATOM      8  S   UNL     1      -3.290  -1.974  -0.627  0.00  0.00    -0.077 S 
ATOM      9  C   UNL     1      -1.878  -1.131  -1.174  0.00  0.00    +0.087 A 
ATOM     10  C   UNL     1      -3.908  -2.377   2.220  0.00  0.00    +0.046 C 
ATOM     11  C   UNL     1      -3.101  -2.361   3.526  0.00  0.00    -0.009 C 
ATOM     12  C   UNL     1      -2.424  -0.996   3.671  0.00  0.00    +0.008 C 
ATOM     13  C   UNL     1      -1.308  -0.856   2.633  0.00  0.00    +0.037 C 
ATOM     14  C   UNL     1      -4.039  -2.600   4.711  0.00  0.00    +0.008 C 
BRANCH   5  15
ATOM     15  C   UNL     1       0.023  -0.039   0.001  0.00  0.00    +0.342 C 
ATOM     16  O   UNL     1       1.080  -0.639  -0.015  0.00  0.00    -0.245 OA
BRANCH  15  17
ATOM     17  O   UNL     1       0.013   1.310   0.011  0.00  0.00    -0.461 OA
BRANCH  17  19
ATOM     18  C   UNL     1       1.091   3.494   0.016  0.00  0.00    +0.048 C 
ATOM     19  C   UNL     1       1.302   1.978   0.003  0.00  0.00    +0.229 C 
ENDBRANCH  17  19
ENDBRANCH  15  17
ENDBRANCH   5  15
ENDBRANCH   1   9
BRANCH   2  20
ATOM     20  C   UNL     1      -1.808  -1.019  -4.907  0.00  0.00    +0.318 C 
ATOM     21  O   UNL     1      -0.778  -0.411  -5.117  0.00  0.00    -0.263 OA
ATOM     22  N   UNL     1      -2.564  -1.442  -5.939  0.00  0.00    -0.199 N 
ATOM     23  H   UNL     1      -3.497  -1.993  -5.748  0.00  0.00    +0.178 HD
BRANCH  22  24
ATOM     24  N   UNL     1      -2.162  -1.181  -7.255  0.00  0.00    -0.187 NA
ATOM     25  C   UNL     1      -2.891  -1.589  -8.252  0.00  0.00    +0.139 C 
BRANCH  25  26
ATOM     26  C   UNL     1      -2.469  -1.315  -9.633  0.00  0.00    +0.002 A 
ATOM     27  C   UNL     1      -3.176  -1.839 -10.709  0.00  0.00    +0.010 A 
ATOM     28  C   UNL     1      -2.775  -1.578 -12.011  0.00  0.00    +0.001 A 
ATOM     29  C   UNL     1      -1.687  -0.808 -12.287  0.00  0.00    +0.008 A 
ATOM     30  C   UNL     1      -0.925  -0.245 -11.250  0.00  0.00    -0.017 A 
ATOM     31  C   UNL     1      -1.300  -0.480  -9.904  0.00  0.00    -0.009 A 
ATOM     32  C   UNL     1      -0.540   0.074  -8.867  0.00  0.00    +0.009 A 
ATOM     33  C   UNL     1       0.547   0.842  -9.165  0.00  0.00    +0.001 A 
ATOM     34  C   UNL     1       0.915   1.079 -10.487  0.00  0.00    +0.001 A 
ATOM     35  C   UNL     1       0.202   0.551 -11.519  0.00  0.00    +0.008 A 
ENDBRANCH  25  26
ENDBRANCH  22  24
ENDBRANCH   2  20
TORSDOF 7
