REMARK  Name = ZINC40512748
REMARK  8 active torsions:
REMARK  status: ('A' for Active; 'I' for Inactive)
REMARK    1  A    between atoms: C_1  and  C_2
REMARK    2  A    between atoms: C_2  and  O_3
REMARK    3  A    between atoms: O_3  and  C_4
REMARK    4  A    between atoms: C_4  and  C_6
REMARK    5  A    between atoms: C_7  and  N_36
REMARK    6  A    between atoms: C_11  and  C_35
REMARK    7  A    between atoms: N_24  and  C_27
REMARK    8  A    between atoms: C_27  and  C_28
REMARK                            x       y       z     vdW  Elec       q    Type
REMARK                         _______ _______ _______ _____ _____    ______ ____
ROOT
ATOM      1  C   UNL     1       1.469  -2.097   2.505  0.00  0.00    +0.117 C 
ATOM      2  C   UNL     1       1.599  -3.443   2.632  0.00  0.00    +0.196 C 
ATOM      3  O   UNL     1       2.240  -3.999   3.673  0.00  0.00    -0.441 OA
ATOM      4  C   UNL     1       2.450  -3.286   4.800  0.00  0.00    +0.142 A 
ATOM      5  C   UNL     1       2.760  -3.950   6.005  0.00  0.00    +0.067 A 
ATOM      6  C   UNL     1       2.972  -3.233   7.130  0.00  0.00    +0.019 A 
ATOM      7  N   UNL     1       2.891  -1.877   7.120  0.00  0.00    -0.326 N 
ATOM      8  H   UNL     1       3.048  -1.383   7.939  0.00  0.00    +0.169 HD
ATOM      9  C   UNL     1       2.597  -1.208   5.989  0.00  0.00    +0.257 A 
ATOM     10  O   UNL     1       2.528   0.011   6.002  0.00  0.00    -0.267 OA
ATOM     11  C   UNL     1       2.370  -1.909   4.798  0.00  0.00    +0.083 A 
ATOM     12  C   UNL     1       2.047  -1.166   3.531  0.00  0.00    +0.144 C 
ATOM     13  C   UNL     1       3.256  -0.463   2.997  0.00  0.00    -0.002 A 
ATOM     14  C   UNL     1       4.471  -0.944   2.559  0.00  0.00    +0.007 A 
ATOM     15  C   UNL     1       5.399  -0.007   2.118  0.00  0.00    +0.000 A 
ATOM     16  C   UNL     1       5.112   1.343   2.120  0.00  0.00    +0.002 A 
ATOM     17  C   UNL     1       3.892   1.835   2.559  0.00  0.00    +0.024 A 
ATOM     18  C   UNL     1       2.953   0.903   3.005  0.00  0.00    +0.041 A 
ATOM     19  N   UNL     1       1.674   1.109   3.491  0.00  0.00    -0.265 N 
ATOM     20  C   UNL     1       1.067  -0.048   3.826  0.00  0.00    +0.240 C 
ATOM     21  O   UNL     1      -0.052  -0.171   4.276  0.00  0.00    -0.274 OA
ATOM     22  C   UNL     1       3.302  -3.948   8.415  0.00  0.00    +0.063 C 
ENDROOT
BRANCH   2  23
ATOM     23  N   UNL     1       1.061  -4.257   1.671  0.00  0.00    -0.329 N 
ATOM     24  H   UNL     1       0.663  -3.870   0.875  0.00  0.00    +0.145 HD
ATOM     25  H   UNL     1       1.077  -5.220   1.786  0.00  0.00    +0.145 HD
ENDBRANCH   2  23
BRANCH   1  26
ATOM     26  C   UNL     1       0.791  -1.569   1.396  0.00  0.00    +0.342 C 
ATOM     27  O   UNL     1       1.419  -1.066   0.481  0.00  0.00    -0.245 OA
BRANCH  26  28
ATOM     28  O   UNL     1      -0.557  -1.619   1.343  0.00  0.00    -0.462 OA
BRANCH  28  30
ATOM     29  C   UNL     1      -2.696  -1.190   0.303  0.00  0.00    +0.048 C 
ATOM     30  C   UNL     1      -1.176  -1.170   0.135  0.00  0.00    +0.229 C 
ENDBRANCH  28  30
ENDBRANCH  26  28
ENDBRANCH   1  26
BRANCH  19  31
ATOM     31  C   UNL     1       1.052   2.429   3.627  0.00  0.00    +0.149 C 
BRANCH  31  32
ATOM     32  C   UNL     1       0.216   2.718   2.407  0.00  0.00    -0.027 A 
ATOM     33  C   UNL     1       0.805   3.252   1.276  0.00  0.00    +0.005 A 
ATOM     34  C   UNL     1       0.040   3.517   0.156  0.00  0.00    +0.003 A 
ATOM     35  C   UNL     1      -1.316   3.250   0.166  0.00  0.00    +0.038 A 
ATOM     36  C   UNL     1      -1.908   2.716   1.298  0.00  0.00    +0.124 A 
ATOM     37  C   UNL     1      -1.138   2.445   2.417  0.00  0.00    +0.043 A 
ATOM     38  F   UNL     1      -3.233   2.455   1.310  0.00  0.00    -0.205 F 
ENDBRANCH  31  32
ENDBRANCH  19  31
TORSDOF 6
