REMARK  Name = ZINC61594832
REMARK  9 active torsions:
REMARK  status: ('A' for Active; 'I' for Inactive)
REMARK    1  A    between atoms: C_1  and  C_2
REMARK    2  A    between atoms: C_2  and  C_3
REMARK    3  A    between atoms: C_3  and  N_4
REMARK    4  A    between atoms: C_10  and  S_11
REMARK    5  A    between atoms: S_11  and  C_12
REMARK    6  A    between atoms: C_12  and  C_14
REMARK    7  A    between atoms: C_12  and  C_20
REMARK    8  A    between atoms: C_20  and  C_22
REMARK    9  A    between atoms: C_20  and  N_23
REMARK                            x       y       z     vdW  Elec       q    Type
REMARK                         _______ _______ _______ _____ _____    ______ ____
ROOT
ATOM      1  C   UNL     1      -1.306  -3.728   3.874  0.00  0.00    +0.076 C 
ENDROOT
BRANCH   1   2
ATOM      2  C   UNL     1      -1.647  -3.605   5.337  0.00  0.00    +0.003 A 
ATOM      3  C   UNL     1      -2.691  -4.138   6.019  0.00  0.00    +0.027 A 
ATOM      4  C   UNL     1      -2.804  -3.889   7.374  0.00  0.00    +0.025 A 
ATOM      5  C   UNL     1      -1.868  -3.118   7.981  0.00  0.00    +0.060 A 
ATOM      6  S   UNL     1      -0.777  -2.725   6.624  0.00  0.00    -0.099 S 
ATOM      7 BR   UNL     1      -4.243  -4.611   8.366  0.00  0.00    -0.050 Br
ENDBRANCH   1   2
BRANCH   1   8
ATOM      8  C   UNL     1       0.069  -4.382   3.724  0.00  0.00    -0.060 C 
ATOM      9  C   UNL     1       0.374  -4.593   2.240  0.00  0.00    -0.013 C 
BRANCH   8  10
ATOM     10  N   UNL     1       1.093  -3.511   4.317  0.00  0.00    +0.381 N 
ATOM     11  H   UNL     1       1.091  -2.620   3.843  0.00  0.00    -0.090 HD
ATOM     12  H   UNL     1       0.891  -3.373   5.295  0.00  0.00    -0.090 HD
ATOM     13  H   UNL     1       1.999  -3.943   4.218  0.00  0.00    -0.090 HD
ENDBRANCH   8  10
ENDBRANCH   1   8
BRANCH   1  14
ATOM     14  S   UNL     1      -1.277  -2.079   3.119  0.00  0.00    -0.079 S 
BRANCH  14  21
ATOM     15  N   UNL     1      -3.417  -0.298   2.841  0.00  0.00    -0.271 N 
ATOM     16  C   UNL     1      -4.751  -0.270   3.034  0.00  0.00    +0.345 A 
ATOM     17  O   UNL     1      -5.489   0.674   2.817  0.00  0.00    -0.245 OA
ATOM     18  N   UNL     1      -5.119  -1.478   3.509  0.00  0.00    -0.226 N 
ATOM     19  H   UNL     1      -6.020  -1.753   3.741  0.00  0.00    +0.194 HD
ATOM     20  N   UNL     1      -3.961  -2.261   3.606  0.00  0.00    -0.145 NA
ATOM     21  C   UNL     1      -2.954  -1.544   3.198  0.00  0.00    +0.193 A 
BRANCH  15  22
ATOM     22  C   UNL     1      -2.600   0.807   2.334  0.00  0.00    +0.129 C 
BRANCH  22  24
ATOM     23  C   UNL     1      -1.674   1.882   0.278  0.00  0.00    +0.005 C 
ATOM     24  C   UNL     1      -2.527   0.728   0.808  0.00  0.00    +0.018 C 
ENDBRANCH  22  24
ENDBRANCH  15  22
ENDBRANCH  14  21
ENDBRANCH   1  14
TORSDOF 7
