REMARK  Name = ZINC27319870
REMARK  8 active torsions:
REMARK  status: ('A' for Active; 'I' for Inactive)
REMARK    1  A    between atoms: C_1  and  C_2
REMARK    2  A    between atoms: C_2  and  C_38
REMARK    3  A    between atoms: C_7  and  C_20
REMARK    4  A    between atoms: C_8  and  N_11
REMARK    5  A    between atoms: C_14  and  N_18
REMARK    6  A    between atoms: N_18  and  C_19
REMARK    7  A    between atoms: C_20  and  S_21
REMARK    8  A    between atoms: S_21  and  N_24
REMARK                            x       y       z     vdW  Elec       q    Type
REMARK                         _______ _______ _______ _____ _____    ______ ____
ROOT
ATOM      1  C   UNL     1      -3.788  -1.684   1.071  0.00  0.00    +0.012 C 
ATOM      2  C   UNL     1      -3.991  -0.278   0.502  0.00  0.00    -0.023 C 
ATOM      3  C   UNL     1      -3.526  -0.183  -1.012  0.00  0.00    -0.003 C 
ATOM      4  C   UNL     1      -2.001  -0.482  -0.875  0.00  0.00    +0.005 C 
ATOM      5  C   UNL     1      -1.604   0.127   0.489  0.00  0.00    +0.011 C 
ATOM      6  C   UNL     1      -2.926   0.737   1.048  0.00  0.00    +0.016 C 
ATOM      7  C   UNL     1      -3.206   1.968   0.133  0.00  0.00    +0.085 C 
ATOM      8  C   UNL     1      -3.625   1.361  -1.226  0.00  0.00    +0.027 C 
ATOM      9  C   UNL     1      -5.422   0.220   0.718  0.00  0.00    +0.012 C 
ENDROOT
BRANCH   7  10
ATOM     10  N   UNL     1      -1.994   2.776  -0.021  0.00  0.00    -0.299 N 
ATOM     11  C   UNL     1      -0.653   2.345   0.391  0.00  0.00    +0.107 C 
ATOM     12  C   UNL     1       0.193   3.636   0.452  0.00  0.00    +0.012 C 
ATOM     13  C   UNL     1      -0.554   4.550  -0.546  0.00  0.00    +0.017 C 
ATOM     14  C   UNL     1      -1.966   4.007  -0.561  0.00  0.00    +0.202 C 
ATOM     15  O   UNL     1      -2.933   4.598  -0.992  0.00  0.00    -0.277 OA
BRANCH  13  16
ATOM     16  N   UNL     1      -0.544   5.942  -0.076  0.00  0.00    +0.385 N 
ATOM     17  C   UNL     1      -0.778   6.874  -1.186  0.00  0.00    -0.099 C 
ATOM     18  H   UNL     1      -1.335   6.081   0.675  0.00  0.00    -0.085 HD
ATOM     19  H   UNL     1       0.433   6.169   0.375  0.00  0.00    -0.085 HD
ENDBRANCH  13  16
ENDBRANCH   7  10
BRANCH   6  20
ATOM     20  C   UNL     1      -2.955   1.003   2.554  0.00  0.00    +0.194 C 
BRANCH  20  21
ATOM     21  S   UNL     1      -1.630   2.164   2.989  0.00  0.00    +0.032 S 
ATOM     22  O   UNL     1      -0.389   1.478   3.080  0.00  0.00    -0.158 OA
ATOM     23  O   UNL     1      -1.747   3.351   2.217  0.00  0.00    -0.158 OA
BRANCH  21  24
ATOM     24  N   UNL     1      -1.968   2.634   4.540  0.00  0.00    -0.181 NA
ATOM     25  C   UNL     1      -2.811   3.809   4.800  0.00  0.00    +0.110 C 
ATOM     26  C   UNL     1      -3.963   3.388   5.726  0.00  0.00    +0.028 C 
ATOM     27  C   UNL     1      -3.391   2.724   6.975  0.00  0.00    -0.001 C 
ATOM     28  C   UNL     1      -2.501   3.720   7.740  0.00  0.00    +0.016 C 
ATOM     29  C   UNL     1      -2.764   3.334   9.212  0.00  0.00    +0.036 C 
ATOM     30  C   UNL     1      -4.143   2.710   9.218  0.00  0.00    -0.044 A 
ATOM     31  C   UNL     1      -4.503   2.358   7.929  0.00  0.00    -0.038 A 
ATOM     32  C   UNL     1      -5.732   1.765   7.696  0.00  0.00    +0.004 A 
ATOM     33  C   UNL     1      -6.599   1.525   8.744  0.00  0.00    +0.000 A 
ATOM     34  C   UNL     1      -6.239   1.877  10.031  0.00  0.00    +0.000 A 
ATOM     35  C   UNL     1      -5.013   2.468  10.267  0.00  0.00    +0.004 A 
ATOM     36  C   UNL     1      -2.583   1.484   6.603  0.00  0.00    +0.028 C 
ATOM     37  C   UNL     1      -1.425   1.887   5.683  0.00  0.00    +0.110 C 
ENDBRANCH  21  24
ENDBRANCH  20  21
ENDBRANCH   6  20
TORSDOF 5
