REMARK  Name = ZINC36028923
REMARK  9 active torsions:
REMARK  status: ('A' for Active; 'I' for Inactive)
REMARK    1  A    between atoms: C_1  and  C_2
REMARK    2  A    between atoms: C_2  and  C_3
REMARK    3  A    between atoms: C_3  and  C_5
REMARK    4  A    between atoms: C_3  and  C_6
REMARK    5  A    between atoms: N_10  and  C_24
REMARK    6  A    between atoms: N_20  and  C_21
REMARK    7  A    between atoms: C_21  and  C_22
REMARK    8  A    between atoms: C_21  and  C_23
REMARK    9  A    between atoms: C_24  and  C_25
REMARK                            x       y       z     vdW  Elec       q    Type
REMARK                         _______ _______ _______ _____ _____    ______ ____
ROOT
ATOM      1  C   UNL     1      -0.975  -1.968   0.022  0.00  0.00    +0.022 C 
ATOM      2  C   UNL     1      -0.340  -2.721  -1.127  0.00  0.00    +0.201 C 
ATOM      3  O   UNL     1       0.769  -2.524  -1.576  0.00  0.00    -0.277 OA
ATOM      4  N   UNL     1      -1.215  -3.650  -1.566  0.00  0.00    -0.309 N 
ATOM      5  C   UNL     1      -2.441  -3.583  -0.766  0.00  0.00    +0.006 C 
ATOM      6  N   UNL     1      -2.423  -2.274  -0.077  0.00  0.00    +0.401 N 
ATOM      7  C   UNL     1      -2.458  -4.707   0.269  0.00  0.00    +0.025 C 
ATOM      8  C   UNL     1      -2.436  -6.060  -0.451  0.00  0.00    +0.109 C 
ATOM      9  N   UNL     1      -3.543  -6.099  -1.417  0.00  0.00    -0.286 N 
ATOM     10  C   UNL     1      -3.657  -5.019  -2.407  0.00  0.00    +0.109 C 
ATOM     11  C   UNL     1      -3.668  -3.675  -1.671  0.00  0.00    +0.025 C 
ATOM     12  C   UNL     1      -4.437  -7.107  -1.396  0.00  0.00    +0.302 C 
ATOM     13  O   UNL     1      -5.286  -7.185  -2.263  0.00  0.00    -0.253 OA
ATOM     14  N   UNL     1      -4.390  -8.030  -0.414  0.00  0.00    -0.297 N 
ATOM     15  H   UNL     1      -2.835  -2.346   0.841  0.00  0.00    -0.082 HD
ATOM     16  H   UNL     1      -3.765  -7.924   0.320  0.00  0.00    +0.150 HD
ATOM     17  H   UNL     1      -2.898  -1.575  -0.628  0.00  0.00    -0.082 HD
ENDROOT
BRANCH  14  18
ATOM     18  C   UNL     1      -5.282  -9.191  -0.456  0.00  0.00    +0.068 C 
ATOM     19  C   UNL     1      -4.651 -10.288  -1.316  0.00  0.00    +0.027 C 
ATOM     20  C   UNL     1      -5.500  -9.718   0.964  0.00  0.00    +0.027 C 
ENDBRANCH  14  18
BRANCH   1  21
ATOM     21  C   UNL     1      -0.737  -0.464  -0.131  0.00  0.00    -0.020 C 
ATOM     22  C   UNL     1      -1.287   0.005  -1.479  0.00  0.00    +0.006 C 
BRANCH  21  24
ATOM     23  C   UNL     1       0.996   1.335  -0.092  0.00  0.00    +0.004 C 
ATOM     24  C   UNL     1       0.765  -0.177  -0.065  0.00  0.00    -0.001 C 
ENDBRANCH  21  24
ENDBRANCH   1  21
BRANCH   4  25
ATOM     25  C   UNL     1      -0.977  -4.581  -2.671  0.00  0.00    +0.141 C 
BRANCH  25  26
ATOM     26  C   UNL     1      -1.144  -3.857  -3.983  0.00  0.00    -0.026 A 
ATOM     27  C   UNL     1      -2.350  -3.919  -4.656  0.00  0.00    +0.009 A 
ATOM     28  C   UNL     1      -2.508  -3.256  -5.859  0.00  0.00    +0.050 A 
ATOM     29  C   UNL     1      -1.458  -2.528  -6.393  0.00  0.00    +0.166 A 
ATOM     30  C   UNL     1      -0.243  -2.465  -5.714  0.00  0.00    +0.167 A 
ATOM     31  C   UNL     1      -0.093  -3.127  -4.506  0.00  0.00    +0.054 A 
ATOM     32  O   UNL     1       0.621  -1.695  -6.438  0.00  0.00    -0.453 OA
ATOM     33  C   UNL     1       0.058  -1.624  -7.761  0.00  0.00    +0.466 C 
ATOM     34  O   UNL     1      -1.354  -1.797  -7.541  0.00  0.00    -0.453 OA
ENDBRANCH  25  26
ENDBRANCH   4  25
TORSDOF 5
