REMARK  Name = ZINC12498250
REMARK  8 active torsions:
REMARK  status: ('A' for Active; 'I' for Inactive)
REMARK    1  A    between atoms: C_1  and  C_2
REMARK    2  A    between atoms: C_2  and  C_4
REMARK    3  A    between atoms: C_8  and  N_10
REMARK    4  A    between atoms: C_15  and  C_32
REMARK    5  A    between atoms: C_17  and  C_22
REMARK    6  A    between atoms: C_17  and  C_28
REMARK    7  A    between atoms: C_28  and  O_30
REMARK    8  A    between atoms: O_30  and  C_31
REMARK                            x       y       z     vdW  Elec       q    Type
REMARK                         _______ _______ _______ _____ _____    ______ ____
ROOT
ATOM      1  N   UNL     1      -3.304  -0.518   1.916  0.00  0.00    -0.210 N 
ATOM      2  C   UNL     1      -3.236   0.580   2.732  0.00  0.00    +0.229 C 
ATOM      3  O   UNL     1      -3.924   0.820   3.701  0.00  0.00    -0.275 OA
ATOM      4  C   UNL     1      -2.144   1.412   2.178  0.00  0.00    +0.078 C 
ATOM      5  C   UNL     1      -2.122   2.919   2.086  0.00  0.00    -0.019 C 
ATOM      6  C   UNL     1      -1.329   1.940   0.019  0.00  0.00    +0.070 C 
ATOM      7  C   UNL     1      -2.386   1.104   0.644  0.00  0.00    +0.090 C 
ATOM      8  C   UNL     1      -2.638  -0.335   0.729  0.00  0.00    +0.229 C 
ATOM      9  O   UNL     1      -2.315  -1.181  -0.076  0.00  0.00    -0.275 OA
ATOM     10  N   UNL     1      -1.249   3.144   0.894  0.00  0.00    +0.398 N 
ATOM     11  H   UNL     1      -0.279   3.289   1.197  0.00  0.00    -0.083 HD
ATOM     12  H   UNL     1      -1.574   3.971   0.378  0.00  0.00    -0.083 HD
ENDROOT
BRANCH   1  17
ATOM     13  C   UNL     1      -5.297  -2.981   3.808  0.00  0.00    +0.019 A 
ATOM     14  C   UNL     1      -5.310  -4.050   2.906  0.00  0.00    +0.011 A 
ATOM     15  C   UNL     1      -4.662  -3.936   1.694  0.00  0.00    +0.003 A 
ATOM     16  C   UNL     1      -4.003  -2.766   1.364  0.00  0.00    +0.024 A 
ATOM     17  C   UNL     1      -3.979  -1.700   2.255  0.00  0.00    +0.045 A 
ATOM     18  C   UNL     1      -4.626  -1.801   3.475  0.00  0.00    +0.035 A 
BRANCH  13  20
ATOM     19  C   UNL     1      -6.711  -4.371   5.458  0.00  0.00    +0.091 C 
ATOM     20  C   UNL     1      -5.988  -3.098   5.102  0.00  0.00    +0.160 C 
ATOM     21  O   UNL     1      -5.976  -2.169   5.882  0.00  0.00    -0.292 OA
ENDBRANCH  13  20
ENDBRANCH   1  17
BRANCH   6  22
ATOM     22  C   UNL     1      -1.726   2.326  -1.383  0.00  0.00    -0.047 A 
ATOM     23  C   UNL     1      -2.497   1.468  -2.144  0.00  0.00    +0.003 A 
ATOM     24  C   UNL     1      -2.864   1.824  -3.429  0.00  0.00    +0.000 A 
ATOM     25  C   UNL     1      -2.452   3.034  -3.955  0.00  0.00    +0.000 A 
ATOM     26  C   UNL     1      -1.676   3.890  -3.195  0.00  0.00    +0.000 A 
ATOM     27  C   UNL     1      -1.313   3.536  -1.909  0.00  0.00    +0.003 A 
ENDBRANCH   6  22
BRANCH   5  28
ATOM     28  C   UNL     1      -3.506   3.466   1.847  0.00  0.00    -0.023 A 
ATOM     29  C   UNL     1      -4.337   4.095   2.714  0.00  0.00    +0.009 A 
ATOM     30  C   UNL     1      -5.574   4.519   2.269  0.00  0.00    +0.008 A 
ATOM     31  C   UNL     1      -5.926   4.284   0.982  0.00  0.00    +0.045 A 
ATOM     32  S   UNL     1      -4.481   3.445   0.352  0.00  0.00    -0.103 S 
ENDBRANCH   5  28
BRANCH   6  33
ATOM     33  C   UNL     1      -0.014   1.204   0.009  0.00  0.00    +0.301 C 
ATOM     34  O   UNL     1       0.002  -0.004   0.002  0.00  0.00    -0.252 OA
BRANCH  33  35
ATOM     35  O   UNL     1       1.139   1.891   0.001  0.00  0.00    -0.469 OA
ATOM     36  C   UNL     1       2.367   1.117  -0.015  0.00  0.00    +0.280 C 
ENDBRANCH  33  35
ENDBRANCH   6  33
TORSDOF 6
