REMARK  Name = ZINC13044960
REMARK  10 active torsions:
REMARK  status: ('A' for Active; 'I' for Inactive)
REMARK    1  A    between atoms: C_1  and  C_2
REMARK    2  A    between atoms: C_7  and  N_12
REMARK    3  A    between atoms: C_9  and  C_11
REMARK    4  A    between atoms: C_13  and  C_15
REMARK    5  A    between atoms: C_15  and  C_17
REMARK    6  A    between atoms: C_15  and  S_18
REMARK    7  A    between atoms: S_18  and  C_19
REMARK    8  A    between atoms: C_23  and  C_37
REMARK    9  A    between atoms: N_29  and  C_30
REMARK   10  A    between atoms: C_30  and  C_31
REMARK                            x       y       z     vdW  Elec       q    Type
REMARK                         _______ _______ _______ _____ _____    ______ ____
ROOT
ATOM      1  C   UNL     1       3.660   3.576  -2.035  0.00  0.00    +0.173 A 
ATOM      2  N   UNL     1       3.984   3.871  -3.270  0.00  0.00    -0.223 NA
ATOM      3  C   UNL     1       4.768   3.053  -4.012  0.00  0.00    +0.080 A 
ATOM      4  C   UNL     1       5.113   3.370  -5.329  0.00  0.00    +0.043 A 
ATOM      5  C   UNL     1       5.920   2.500  -6.051  0.00  0.00    +0.065 A 
ATOM      6  C   UNL     1       6.386   1.314  -5.469  0.00  0.00    +0.016 A 
ATOM      7  C   UNL     1       6.055   0.994  -4.183  0.00  0.00    +0.016 A 
ATOM      8  C   UNL     1       5.247   1.853  -3.439  0.00  0.00    +0.065 A 
ATOM      9  C   UNL     1       4.870   1.550  -2.049  0.00  0.00    +0.263 A 
ATOM     10  O   UNL     1       5.255   0.535  -1.499  0.00  0.00    -0.267 OA
ATOM     11  N   UNL     1       4.079   2.439  -1.407  0.00  0.00    -0.283 N 
ENDROOT
BRANCH   5  12
ATOM     12  C   UNL     1       6.290   2.828  -7.445  0.00  0.00    +0.387 C 
ATOM     13  O   UNL     1       5.888   3.855  -7.954  0.00  0.00    -0.241 OA
ATOM     14  O   UNL     1       7.072   1.988  -8.150  0.00  0.00    -0.241 OA
ENDBRANCH   5  12
BRANCH   1  15
ATOM     15  S   UNL     1       2.636   4.700  -1.145  0.00  0.00    -0.075 S 
BRANCH  15  16
ATOM     16  C   UNL     1       2.393   5.973  -2.409  0.00  0.00    +0.137 C 
ATOM     17  C   UNL     1       3.733   6.641  -2.723  0.00  0.00    +0.029 C 
BRANCH  16  19
ATOM     18  N   UNL     1       0.705   7.744  -2.770  0.00  0.00    -0.311 N 
ATOM     19  C   UNL     1       1.423   7.008  -1.899  0.00  0.00    +0.226 C 
ATOM     20  O   UNL     1       1.290   7.178  -0.706  0.00  0.00    -0.275 OA
ATOM     21  H   UNL     1       0.812   7.608  -3.724  0.00  0.00    +0.149 HD
BRANCH  18  27
ATOM     22  C   UNL     1      -0.868  11.520  -1.555  0.00  0.00    +0.008 C 
ATOM     23  C   UNL     1      -1.428  10.877  -2.825  0.00  0.00    -0.009 C 
ATOM     24  C   UNL     1      -2.768  10.209  -2.510  0.00  0.00    +0.003 C 
ATOM     25  C   UNL     1      -2.563   9.133  -1.442  0.00  0.00    +0.002 C 
ATOM     26  C   UNL     1      -1.578   8.082  -1.960  0.00  0.00    +0.022 C 
ATOM     27  C   UNL     1      -0.238   8.750  -2.275  0.00  0.00    +0.076 C 
ATOM     28  C   UNL     1      -0.443   9.826  -3.343  0.00  0.00    +0.009 C 
ATOM     29  C   UNL     1       0.896  10.494  -3.658  0.00  0.00    +0.009 C 
ENDBRANCH  18  27
ENDBRANCH  16  19
ENDBRANCH  15  16
ENDBRANCH   1  15
BRANCH  11  30
ATOM     30  C   UNL     1       3.672   2.182  -0.023  0.00  0.00    +0.162 C 
BRANCH  30  31
ATOM     31  C   UNL     1       2.377   1.411  -0.015  0.00  0.00    -0.028 A 
ATOM     32  C   UNL     1       1.171   2.086   0.002  0.00  0.00    +0.005 A 
ATOM     33  C   UNL     1      -0.017   1.378   0.010  0.00  0.00    +0.000 A 
ATOM     34  C   UNL     1       0.002  -0.004   0.002  0.00  0.00    +0.000 A 
ATOM     35  C   UNL     1       1.208  -0.679  -0.013  0.00  0.00    +0.000 A 
ATOM     36  C   UNL     1       2.396   0.029  -0.022  0.00  0.00    +0.005 A 
ENDBRANCH  30  31
ENDBRANCH  11  30
TORSDOF 7
