REMARK  Name = ZINC40065189
REMARK  11 active torsions:
REMARK  status: ('A' for Active; 'I' for Inactive)
REMARK    1  A    between atoms: C_1  and  C_2
REMARK    2  A    between atoms: C_12  and  C_13
REMARK    3  A    between atoms: N_16  and  C_26
REMARK    4  A    between atoms: C_17  and  C_19
REMARK    5  A    between atoms: C_23  and  O_25
REMARK    6  A    between atoms: C_26  and  C_27
REMARK    7  A    between atoms: C_27  and  C_28
REMARK    8  A    between atoms: C_31  and  O_36
REMARK    9  A    between atoms: C_32  and  O_34
REMARK   10  A    between atoms: O_34  and  C_35
REMARK   11  A    between atoms: O_36  and  C_37
REMARK                            x       y       z     vdW  Elec       q    Type
REMARK                         _______ _______ _______ _____ _____    ______ ____
ROOT
ATOM      1  C   UNL     1      -0.018   1.503   0.010  0.00  0.00    +0.044 C 
ATOM      2  C   UNL     1       0.002  -0.004   0.002  0.00  0.00    -0.044 A 
ATOM      3  C   UNL     1       0.005  -0.683  -1.209  0.00  0.00    +0.004 A 
ATOM      4  C   UNL     1       0.021  -2.050  -1.232  0.00  0.00    +0.015 A 
ATOM      5  C   UNL     1       0.033  -2.761  -0.032  0.00  0.00    +0.065 A 
ATOM      6  C   UNL     1       0.036  -4.246  -0.038  0.00  0.00    +0.199 A 
ATOM      7  O   UNL     1       0.200  -4.908  -1.047  0.00  0.00    -0.287 OA
ATOM      8  C   UNL     1      -0.176  -4.839   1.286  0.00  0.00    +0.072 A 
ATOM      9  C   UNL     1      -0.158  -4.068   2.414  0.00  0.00    +0.199 A 
ATOM     10  O   UNL     1       0.060  -2.739   2.383  0.00  0.00    -0.449 OA
ATOM     11  C   UNL     1       0.036  -2.085   1.199  0.00  0.00    +0.143 A 
ATOM     12  C   UNL     1       0.023  -0.690   1.195  0.00  0.00    -0.005 A 
ATOM     13  C   UNL     1       0.025   0.066   2.499  0.00  0.00    +0.048 C 
ATOM     14  C   UNL     1      -0.408  -4.941   3.575  0.00  0.00    +0.283 C 
ATOM     15  O   UNL     1      -0.459  -4.566   4.729  0.00  0.00    -0.267 OA
ATOM     16  N   UNL     1      -0.571  -6.217   3.168  0.00  0.00    -0.283 N 
ATOM     17  C   UNL     1      -0.436  -6.249   1.703  0.00  0.00    +0.145 C 
ENDROOT
BRANCH  17  18
ATOM     18  C   UNL     1      -1.711  -6.750   1.075  0.00  0.00    -0.019 A 
ATOM     19  C   UNL     1      -2.934  -6.379   1.604  0.00  0.00    +0.006 A 
ATOM     20  C   UNL     1      -4.105  -6.837   1.030  0.00  0.00    +0.004 A 
ATOM     21  C   UNL     1      -4.057  -7.667  -0.074  0.00  0.00    +0.045 A 
ATOM     22  C   UNL     1      -2.832  -8.041  -0.606  0.00  0.00    +0.117 A 
ATOM     23  C   UNL     1      -1.658  -7.575  -0.032  0.00  0.00    +0.051 A 
BRANCH  22  24
ATOM     24  O   UNL     1      -2.782  -8.857  -1.691  0.00  0.00    -0.507 OA
ATOM     25  H   UNL     1      -2.783  -8.388  -2.537  0.00  0.00    +0.292 HD
ENDBRANCH  22  24
ENDBRANCH  17  18
BRANCH  16  26
ATOM     26  C   UNL     1      -0.834  -7.369   4.034  0.00  0.00    +0.114 C 
BRANCH  26  27
ATOM     27  C   UNL     1      -2.345  -7.546   4.201  0.00  0.00    +0.054 C 
BRANCH  27  28
ATOM     28  C   UNL     1      -2.616  -8.731   5.092  0.00  0.00    -0.042 A 
ATOM     29  C   UNL     1      -2.756  -9.991   4.540  0.00  0.00    +0.007 A 
ATOM     30  C   UNL     1      -3.005 -11.081   5.352  0.00  0.00    +0.049 A 
ATOM     31  C   UNL     1      -3.114 -10.913   6.723  0.00  0.00    +0.161 A 
ATOM     32  C   UNL     1      -2.973  -9.645   7.279  0.00  0.00    +0.162 A 
ATOM     33  C   UNL     1      -2.719  -8.557   6.459  0.00  0.00    +0.053 A 
BRANCH  32  34
ATOM     34  O   UNL     1      -3.079  -9.475   8.624  0.00  0.00    -0.491 OA
ATOM     35  C   UNL     1      -2.922  -8.145   9.124  0.00  0.00    +0.277 C 
ENDBRANCH  32  34
BRANCH  31  36
ATOM     36  O   UNL     1      -3.360 -11.984   7.524  0.00  0.00    -0.491 OA
ATOM     37  C   UNL     1      -3.494 -13.255   6.885  0.00  0.00    +0.277 C 
ENDBRANCH  31  36
ENDBRANCH  27  28
ENDBRANCH  26  27
ENDBRANCH  16  26
TORSDOF 7
