REMARK  Name = ZINC35550700
REMARK  7 active torsions:
REMARK  status: ('A' for Active; 'I' for Inactive)
REMARK    1  A    between atoms: C_3  and  C_6
REMARK    2  A    between atoms: C_9  and  C_31
REMARK    3  A    between atoms: C_12  and  C_14
REMARK    4  A    between atoms: C_14  and  O_15
REMARK    5  A    between atoms: O_15  and  C_16
REMARK    6  A    between atoms: C_16  and  C_18
REMARK    7  A    between atoms: C_27  and  O_30
REMARK                            x       y       z     vdW  Elec       q    Type
REMARK                         _______ _______ _______ _____ _____    ______ ____
ROOT
ATOM      1  C   UNL     1       3.599   0.625  -0.029  0.00  0.00    +0.173 C 
ATOM      2  C   UNL     1       4.120   0.316  -1.447  0.00  0.00    +0.090 C 
ATOM      3  C   UNL     1       4.876  -0.983  -1.282  0.00  0.00    +0.069 C 
ATOM      4  N   UNL     1       4.819  -1.361  -0.052  0.00  0.00    -0.181 NA
ATOM      5  N   UNL     1       4.099  -0.499   0.778  0.00  0.00    -0.179 N 
ATOM      6  C   UNL     1       3.894  -0.667   2.100  0.00  0.00    +0.273 C 
ATOM      7  O   UNL     1       3.249   0.150   2.722  0.00  0.00    -0.270 OA
ENDROOT
BRANCH   3   8
ATOM      8  C   UNL     1       5.571  -1.706  -2.363  0.00  0.00    -0.002 A 
ATOM      9  C   UNL     1       5.569  -1.195  -3.663  0.00  0.00    +0.011 A 
ATOM     10  C   UNL     1       6.222  -1.876  -4.669  0.00  0.00    +0.020 A 
ATOM     11  C   UNL     1       6.877  -3.064  -4.393  0.00  0.00    +0.041 A 
ATOM     12  C   UNL     1       6.882  -3.577  -3.107  0.00  0.00    +0.020 A 
ATOM     13  C   UNL     1       6.239  -2.903  -2.090  0.00  0.00    +0.011 A 
ATOM     14 CL   UNL     1       7.696  -3.915  -5.666  0.00  0.00    -0.084 Cl
ENDBRANCH   3   8
BRANCH   1  17
ATOM     15  C   UNL     1      -0.016   1.341   0.009  0.00  0.00    +0.041 A 
ATOM     16  C   UNL     1       1.331   1.769  -0.001  0.00  0.00    +0.046 A 
ATOM     17  C   UNL     1       2.092   0.660  -0.014  0.00  0.00    +0.128 A 
ATOM     18  O   UNL     1       1.282  -0.411  -0.012  0.00  0.00    -0.466 OA
ATOM     19  C   UNL     1       0.002  -0.004   0.002  0.00  0.00    +0.195 A 
ENDBRANCH   1  17
BRANCH   6  20
ATOM     20  C   UNL     1       4.467  -1.870   2.804  0.00  0.00    +0.329 C 
BRANCH  20  21
ATOM     21  O   UNL     1       4.115  -1.823   4.189  0.00  0.00    -0.455 OA
BRANCH  21  22
ATOM     22  C   UNL     1       4.552  -2.829   4.962  0.00  0.00    +0.314 C 
ATOM     23  O   UNL     1       5.210  -3.721   4.480  0.00  0.00    -0.250 OA
BRANCH  22  24
ATOM     24  C   UNL     1       4.221  -2.848   6.432  0.00  0.00    +0.071 C 
ATOM     25  C   UNL     1       4.792  -1.595   7.099  0.00  0.00    +0.021 C 
ATOM     26  C   UNL     1       4.455  -1.613   8.592  0.00  0.00    -0.007 C 
ATOM     27  C   UNL     1       2.936  -1.640   8.772  0.00  0.00    +0.007 C 
ATOM     28  C   UNL     1       2.365  -2.893   8.105  0.00  0.00    -0.007 C 
ATOM     29  C   UNL     1       2.701  -2.874   6.613  0.00  0.00    +0.021 C 
ATOM     30  C   UNL     1       2.978  -4.138   8.750  0.00  0.00    +0.038 C 
ATOM     31  C   UNL     1       4.497  -4.111   8.570  0.00  0.00    +0.068 C 
ATOM     32  C   UNL     1       5.067  -2.858   9.237  0.00  0.00    +0.038 C 
ATOM     33  C   UNL     1       4.833  -4.093   7.078  0.00  0.00    +0.052 C 
BRANCH  31  34
ATOM     34  O   UNL     1       5.068  -5.274   9.173  0.00  0.00    -0.389 OA
ATOM     35  H   UNL     1       4.895  -5.351  10.121  0.00  0.00    +0.210 HD
ENDBRANCH  31  34
ENDBRANCH  22  24
ENDBRANCH  21  22
ENDBRANCH  20  21
ENDBRANCH   6  20
TORSDOF 7
