REMARK  Name = ZINC39459430
REMARK  9 active torsions:
REMARK  status: ('A' for Active; 'I' for Inactive)
REMARK    1  A    between atoms: C_1  and  C_2
REMARK    2  A    between atoms: C_3  and  C_30
REMARK    3  A    between atoms: N_6  and  C_7
REMARK    4  A    between atoms: C_12  and  O_13
REMARK    5  A    between atoms: C_16  and  S_20
REMARK    6  A    between atoms: S_20  and  C_23
REMARK    7  A    between atoms: C_23  and  C_24
REMARK    8  A    between atoms: C_23  and  C_25
REMARK    9  A    between atoms: C_35  and  O_36
REMARK                            x       y       z     vdW  Elec       q    Type
REMARK                         _______ _______ _______ _____ _____    ______ ____
ROOT
ATOM      1  C   UNL     1       0.737   1.543  -0.640  0.00  0.00    +0.064 C 
ATOM      2  C   UNL     1       0.622   0.044  -0.531  0.00  0.00    +0.030 A 
ATOM      3  C   UNL     1       0.552  -0.830  -1.580  0.00  0.00    +0.010 A 
ATOM      4  C   UNL     1       0.451  -2.124  -1.042  0.00  0.00    -0.012 A 
ATOM      5  C   UNL     1       0.476  -1.996   0.322  0.00  0.00    +0.077 A 
ATOM      6  N   UNL     1       0.574  -0.668   0.630  0.00  0.00    -0.308 N 
ATOM      7  C   UNL     1       0.430  -3.160   1.226  0.00  0.00    +0.100 A 
ATOM      8  C   UNL     1       1.262  -4.259   0.895  0.00  0.00    +0.070 A 
ATOM      9  C   UNL     1       1.221  -5.402   1.695  0.00  0.00    +0.102 A 
ATOM     10  C   UNL     1       0.378  -5.394   2.794  0.00  0.00    +0.047 A 
ATOM     11  C   UNL     1      -0.388  -4.271   3.067  0.00  0.00    +0.113 A 
ATOM     12  N   UNL     1      -0.346  -3.203   2.294  0.00  0.00    -0.253 NA
ATOM     13  C   UNL     1       2.153  -4.143  -0.257  0.00  0.00    +0.167 C 
ATOM     14  O   UNL     1       3.340  -3.968  -0.077  0.00  0.00    -0.292 OA
ATOM     15  C   UNL     1       1.624  -4.236  -1.671  0.00  0.00    +0.084 C 
ATOM     16  C   UNL     1       0.321  -3.430  -1.774  0.00  0.00    +0.046 C 
ENDROOT
BRANCH   6  17
ATOM     17  C   UNL     1       0.616  -0.129   1.923  0.00  0.00    +0.089 A 
ATOM     18  C   UNL     1      -0.562   0.217   2.570  0.00  0.00    +0.030 A 
ATOM     19  C   UNL     1      -0.518   0.748   3.845  0.00  0.00    +0.002 A 
ATOM     20  C   UNL     1       0.696   0.936   4.479  0.00  0.00    +0.004 A 
ATOM     21  C   UNL     1       1.873   0.594   3.841  0.00  0.00    +0.047 A 
ATOM     22  C   UNL     1       1.839   0.055   2.564  0.00  0.00    +0.141 A 
BRANCH  22  23
ATOM     23  O   UNL     1       2.995  -0.287   1.937  0.00  0.00    -0.505 OA
ATOM     24  H   UNL     1       3.386   0.427   1.415  0.00  0.00    +0.292 HD
ENDBRANCH  22  23
ENDBRANCH   6  17
BRANCH   3  25
ATOM     25  C   UNL     1       0.578  -0.476  -3.021  0.00  0.00    +0.026 A 
ATOM     26  C   UNL     1       1.790  -0.410  -3.703  0.00  0.00    +0.012 A 
ATOM     27  C   UNL     1       1.809  -0.081  -5.044  0.00  0.00    +0.001 A 
ATOM     28  C   UNL     1       0.627   0.183  -5.713  0.00  0.00    +0.004 A 
ATOM     29  C   UNL     1      -0.582   0.120  -5.045  0.00  0.00    +0.046 A 
ATOM     30  C   UNL     1      -0.615  -0.215  -3.701  0.00  0.00    +0.125 A 
BRANCH  30  31
ATOM     31  O   UNL     1      -1.803  -0.283  -3.045  0.00  0.00    -0.506 OA
ATOM     32  H   UNL     1      -2.079   0.552  -2.644  0.00  0.00    +0.292 HD
ENDBRANCH  30  31
ENDBRANCH   3  25
BRANCH   9  33
ATOM     33  S   UNL     1       2.209  -6.811   1.318  0.00  0.00    -0.000 S 
ATOM     34  O   UNL     1       3.516  -6.293   1.111  0.00  0.00    -0.169 OA
ATOM     35  O   UNL     1       1.952  -7.727   2.373  0.00  0.00    -0.169 OA
BRANCH  33  36
ATOM     36  C   UNL     1       1.536  -7.449  -0.241  0.00  0.00    +0.130 C 
ATOM     37  C   UNL     1       2.275  -8.731  -0.630  0.00  0.00    +0.032 C 
ATOM     38  C   UNL     1       0.046  -7.753  -0.067  0.00  0.00    +0.032 C 
ENDBRANCH  33  36
ENDBRANCH   9  33
TORSDOF 6
