REMARK  Name = ZINC05259115
REMARK  10 active torsions:
REMARK  status: ('A' for Active; 'I' for Inactive)
REMARK    1  A    between atoms: C_1  and  C_2
REMARK    2  A    between atoms: C_2  and  C_3
REMARK    3  A    between atoms: C_3  and  C_4
REMARK    4  A    between atoms: C_4  and  C_5
REMARK    5  A    between atoms: C_4  and  C_8
REMARK    6  A    between atoms: C_5  and  C_6
REMARK    7  A    between atoms: C_6  and  C_7
REMARK    8  A    between atoms: N_10  and  C_11
REMARK    9  A    between atoms: C_13  and  N_18
REMARK   10  A    between atoms: C_19  and  C_29
REMARK                            x       y       z     vdW  Elec       q    Type
REMARK                         _______ _______ _______ _____ _____    ______ ____
ROOT
ATOM      1  C   UNL     1      -3.513  -1.707   0.271  0.00  0.00    +0.071 A 
ATOM      2  C   UNL     1      -2.322  -1.043   0.526  0.00  0.00    +0.052 A 
ATOM      3  C   UNL     1      -1.136  -1.757   0.609  0.00  0.00    +0.053 A 
ATOM      4  C   UNL     1      -1.142  -3.135   0.431  0.00  0.00    +0.029 A 
ATOM      5  C   UNL     1      -2.329  -3.796   0.182  0.00  0.00    +0.042 A 
ATOM      6  C   UNL     1      -3.514  -3.087   0.099  0.00  0.00    +0.145 A 
ATOM      7  F   UNL     1      -4.673  -3.736  -0.149  0.00  0.00    -0.204 F 
ENDROOT
BRANCH   3   8
ATOM      8  N   UNL     1       0.069  -1.089   0.866  0.00  0.00    -0.265 N 
ATOM      9  C   UNL     1       0.401  -0.765   2.145  0.00  0.00    +0.114 A 
ATOM     10  N   UNL     1       1.497  -0.146   2.462  0.00  0.00    -0.233 NA
ATOM     11  C   UNL     1       2.401   0.226   1.523  0.00  0.00    +0.078 A 
ATOM     12  C   UNL     1       3.581   0.891   1.864  0.00  0.00    +0.028 A 
ATOM     13  C   UNL     1       4.471   1.250   0.878  0.00  0.00    +0.002 A 
ATOM     14  C   UNL     1       4.213   0.958  -0.455  0.00  0.00    +0.001 A 
ATOM     15  C   UNL     1       3.056   0.302  -0.817  0.00  0.00    +0.015 A 
ATOM     16  C   UNL     1       2.141  -0.069   0.166  0.00  0.00    +0.065 A 
ATOM     17  C   UNL     1       0.891  -0.770  -0.161  0.00  0.00    +0.266 A 
ATOM     18  O   UNL     1       0.609  -1.058  -1.310  0.00  0.00    -0.267 OA
ATOM     19  C   UNL     1      -0.553  -1.144   3.249  0.00  0.00    +0.086 C 
ENDBRANCH   3   8
BRANCH   1  22
ATOM     20  C   UNL     1      -4.748   0.189  -0.467  0.00  0.00    +0.220 C 
ATOM     21  O   UNL     1      -3.723   0.677  -0.893  0.00  0.00    -0.275 OA
ATOM     22  N   UNL     1      -4.712  -0.989   0.187  0.00  0.00    -0.283 N 
ATOM     23  H   UNL     1      -5.517  -1.339   0.599  0.00  0.00    +0.155 HD
BRANCH  20  24
ATOM     24  C   UNL     1      -6.062   0.899  -0.669  0.00  0.00    +0.075 C 
BRANCH  24  25
ATOM     25  C   UNL     1      -5.806   2.392  -0.886  0.00  0.00    +0.012 C 
BRANCH  25  27
ATOM     26  C   UNL     1      -6.888   4.625  -1.183  0.00  0.00    +0.004 C 
ATOM     27  C   UNL     1      -7.143   3.132  -0.967  0.00  0.00    -0.003 C 
ENDBRANCH  25  27
ENDBRANCH  24  25
BRANCH  24  28
ATOM     28  C   UNL     1      -6.771   0.320  -1.895  0.00  0.00    +0.012 C 
BRANCH  28  29
ATOM     29  C   UNL     1      -5.860   0.444  -3.118  0.00  0.00    -0.003 C 
ATOM     30  C   UNL     1      -6.571  -0.132  -4.344  0.00  0.00    +0.004 C 
ENDBRANCH  28  29
ENDBRANCH  24  28
ENDBRANCH  20  24
ENDBRANCH   1  22
TORSDOF 7
