REMARK  Name = ZINC06108523
REMARK  7 active torsions:
REMARK  status: ('A' for Active; 'I' for Inactive)
REMARK    1  A    between atoms: C_1  and  C_2
REMARK    2  A    between atoms: C_4  and  C_29
REMARK    3  A    between atoms: C_6  and  N_8
REMARK    4  A    between atoms: C_9  and  C_11
REMARK    5  A    between atoms: C_11  and  N_12
REMARK    6  A    between atoms: C_15  and  C_19
REMARK    7  A    between atoms: C_15  and  C_20
REMARK                            x       y       z     vdW  Elec       q    Type
REMARK                         _______ _______ _______ _____ _____    ______ ____
ROOT
ATOM      1  N   UNL     1      -2.641   7.874  -0.246  0.00  0.00    -0.215 N 
ATOM      2  C   UNL     1      -3.316   8.044  -1.400  0.00  0.00    +0.251 C 
ATOM      3  O   UNL     1      -2.907   7.844  -2.524  0.00  0.00    -0.272 OA
ATOM      4  C   UNL     1      -4.693   8.536  -1.001  0.00  0.00    +0.135 C 
ATOM      5  N   UNL     1      -4.625   8.599   0.469  0.00  0.00    -0.281 N 
ATOM      6  C   UNL     1      -3.390   8.194   0.815  0.00  0.00    +0.310 C 
ATOM      7  O   UNL     1      -2.998   8.126   1.964  0.00  0.00    -0.252 OA
ATOM      8  C   UNL     1      -4.955   9.925  -1.587  0.00  0.00    +0.047 C 
ATOM      9  H   UNL     1      -5.333   8.878   1.071  0.00  0.00    +0.152 HD
ENDROOT
BRANCH   4  10
ATOM     10  C   UNL     1      -5.759   7.566  -1.442  0.00  0.00    -0.015 A 
ATOM     11  C   UNL     1      -5.609   6.864  -2.623  0.00  0.00    +0.006 A 
ATOM     12  C   UNL     1      -6.585   5.971  -3.022  0.00  0.00    +0.004 A 
ATOM     13  C   UNL     1      -7.718   5.785  -2.249  0.00  0.00    -0.044 A 
ATOM     14  C   UNL     1      -7.870   6.492  -1.071  0.00  0.00    -0.044 A 
ATOM     15  C   UNL     1      -6.888   7.383  -0.669  0.00  0.00    +0.010 A 
ATOM     16  C   UNL     1      -9.181   6.115  -0.414  0.00  0.00    +0.036 C 
ATOM     17  C   UNL     1      -9.604   4.792  -1.086  0.00  0.00    +0.009 C 
ATOM     18  C   UNL     1      -8.916   4.886  -2.464  0.00  0.00    +0.036 C 
ENDBRANCH   4  10
BRANCH   1  19
ATOM     19  C   UNL     1      -1.256   7.403  -0.165  0.00  0.00    +0.214 C 
BRANCH  19  21
ATOM     20  N   UNL     1      -0.069   5.242   0.029  0.00  0.00    -0.284 N 
ATOM     21  C   UNL     1      -1.242   5.900  -0.058  0.00  0.00    +0.235 C 
ATOM     22  O   UNL     1      -2.286   5.283  -0.051  0.00  0.00    -0.274 OA
ATOM     23  H   UNL     1       0.761   5.737   0.101  0.00  0.00    +0.155 HD
BRANCH  20  29
ATOM     24  C   UNL     1      -1.986   0.996  -1.544  0.00  0.00    +0.044 C 
ATOM     25  C   UNL     1      -0.967   1.759  -0.738  0.00  0.00    -0.048 A 
ATOM     26  C   UNL     1      -0.012   1.076  -0.008  0.00  0.00    +0.006 A 
ATOM     27  C   UNL     1       0.921   1.772   0.739  0.00  0.00    -0.048 A 
ATOM     28  C   UNL     1       0.908   3.153   0.748  0.00  0.00    +0.026 A 
ATOM     29  C   UNL     1      -0.050   3.842   0.017  0.00  0.00    +0.034 A 
ATOM     30  C   UNL     1      -0.989   3.140  -0.728  0.00  0.00    +0.026 A 
ATOM     31  C   UNL     1       1.957   1.023   1.537  0.00  0.00    +0.044 C 
ENDBRANCH  20  29
ENDBRANCH  19  21
ENDBRANCH   1  19
TORSDOF 4
