REMARK  Name = ZINC64504535
REMARK  7 active torsions:
REMARK  status: ('A' for Active; 'I' for Inactive)
REMARK    1  A    between atoms: C_5  and  C_12
REMARK    2  A    between atoms: C_12  and  C_13
REMARK    3  A    between atoms: C_13  and  N_14
REMARK    4  A    between atoms: C_15  and  C_17
REMARK    5  A    between atoms: C_17  and  N_18
REMARK    6  A    between atoms: C_22  and  S_29
REMARK    7  A    between atoms: S_29  and  N_32
REMARK                            x       y       z     vdW  Elec       q    Type
REMARK                         _______ _______ _______ _____ _____    ______ ____
ROOT
ATOM      1  C   UNL     1       8.908  -1.374  -3.969  0.00  0.00    +0.209 C 
ENDROOT
BRANCH   1   2
ATOM      2  N   UNL     1       9.797  -2.538  -3.971  0.00  0.00    -0.262 N 
ATOM      3  C   UNL     1      11.060  -2.449  -3.378  0.00  0.00    +0.040 A 
ATOM      4  C   UNL     1      11.335  -1.433  -2.471  0.00  0.00    +0.026 A 
ATOM      5  C   UNL     1      12.585  -1.351  -1.889  0.00  0.00    +0.030 A 
ATOM      6  C   UNL     1      13.561  -2.277  -2.207  0.00  0.00    +0.106 A 
ATOM      7  C   UNL     1      13.290  -3.289  -3.110  0.00  0.00    +0.034 A 
ATOM      8  C   UNL     1      12.042  -3.377  -3.695  0.00  0.00    -0.024 A 
ATOM      9  C   UNL     1      11.743  -4.478  -4.679  0.00  0.00    +0.046 C 
ATOM     10  C   UNL     1      10.280  -4.902  -4.542  0.00  0.00    +0.101 C 
ATOM     11  C   UNL     1       9.390  -3.689  -4.538  0.00  0.00    +0.221 C 
ATOM     12  O   UNL     1       8.295  -3.747  -5.057  0.00  0.00    -0.275 OA
BRANCH   6  13
ATOM     13  S   UNL     1      15.153  -2.167  -1.462  0.00  0.00    +0.061 S 
ATOM     14  O   UNL     1      16.058  -2.828  -2.337  0.00  0.00    -0.153 OA
ATOM     15  O   UNL     1      15.325  -0.813  -1.068  0.00  0.00    -0.153 OA
BRANCH  13  16
ATOM     16  N   UNL     1      15.105  -3.062  -0.069  0.00  0.00    -0.177 NA
ATOM     17  C   UNL     1      14.722  -2.560   1.259  0.00  0.00    +0.109 C 
ATOM     18  C   UNL     1      14.850  -3.738   2.248  0.00  0.00    +0.018 C 
ATOM     19  C   UNL     1      15.839  -4.691   1.528  0.00  0.00    +0.018 C 
ATOM     20  C   UNL     1      15.432  -4.495   0.044  0.00  0.00    +0.109 C 
ENDBRANCH  13  16
ENDBRANCH   6  13
ENDBRANCH   1   2
BRANCH   1  22
ATOM     21  N   UNL     1       7.157  -0.413  -2.510  0.00  0.00    -0.314 N 
ATOM     22  C   UNL     1       8.056  -1.394  -2.726  0.00  0.00    +0.231 C 
ATOM     23  O   UNL     1       8.179  -2.292  -1.921  0.00  0.00    -0.274 OA
ATOM     24  H   UNL     1       7.059   0.305  -3.154  0.00  0.00    +0.149 HD
BRANCH  21  25
ATOM     25  C   UNL     1       6.329  -0.433  -1.301  0.00  0.00    +0.108 C 
BRANCH  25  26
ATOM     26  C   UNL     1       5.401   0.783  -1.300  0.00  0.00    +0.065 C 
BRANCH  26  31
ATOM     27  C   UNL     1      -0.017   1.405   0.010  0.00  0.00    +0.040 A 
ATOM     28  C   UNL     1       1.108   2.146   0.003  0.00  0.00    +0.030 A 
ATOM     29  C   UNL     1       2.417   1.477  -0.013  0.00  0.00    +0.060 A 
ATOM     30  N   UNL     1       3.639   1.925  -0.023  0.00  0.00    -0.363 N 
ATOM     31  C   UNL     1       4.536   0.763  -0.038  0.00  0.00    +0.175 C 
ATOM     32  N   UNL     1       3.673  -0.425  -0.036  0.00  0.00    -0.363 N 
ATOM     33  C   UNL     1       2.438  -0.011  -0.021  0.00  0.00    +0.063 A 
ATOM     34  C   UNL     1       1.151  -0.715  -0.012  0.00  0.00    +0.065 A 
ATOM     35  C   UNL     1       0.002  -0.004   0.002  0.00  0.00    +0.125 A 
ATOM     36  F   UNL     1      -1.174  -0.669   0.010  0.00  0.00    -0.205 F 
ATOM     37  H   UNL     1       3.908   2.857  -0.020  0.00  0.00    +0.162 HD
ATOM     38  H   UNL     1       3.969  -1.349  -0.043  0.00  0.00    +0.162 HD
ENDBRANCH  26  31
ENDBRANCH  25  26
ENDBRANCH  21  25
ENDBRANCH   1  22
TORSDOF 7
