REMARK  Name = ZINC54403584
REMARK  7 active torsions:
REMARK  status: ('A' for Active; 'I' for Inactive)
REMARK    1  A    between atoms: C_1  and  C_2
REMARK    2  A    between atoms: C_2  and  C_3
REMARK    3  A    between atoms: C_3  and  C_4
REMARK    4  A    between atoms: C_3  and  C_5
REMARK    5  A    between atoms: C_3  and  C_6
REMARK    6  A    between atoms: C_7  and  C_12
REMARK    7  A    between atoms: C_8  and  N_11
REMARK                            x       y       z     vdW  Elec       q    Type
REMARK                         _______ _______ _______ _____ _____    ______ ____
ROOT
ATOM      1  C   UNL     1       0.873  -1.935  -1.159  0.00  0.00    +0.099 A 
ATOM      2  C   UNL     1       1.218  -2.651  -2.325  0.00  0.00    +0.067 A 
ATOM      3  C   UNL     1       0.727  -3.934  -2.184  0.00  0.00    +0.223 A 
ATOM      4  O   UNL     1       0.111  -4.002  -0.992  0.00  0.00    -0.339 OA
ATOM      5  N   UNL     1       0.222  -2.737  -0.366  0.00  0.00    -0.080 NA
ENDROOT
BRANCH   2   6
ATOM      6  C   UNL     1       1.970  -2.122  -3.489  0.00  0.00    -0.007 A 
ATOM      7  C   UNL     1       1.358  -1.231  -4.370  0.00  0.00    +0.012 A 
ATOM      8  C   UNL     1       2.059  -0.741  -5.452  0.00  0.00    +0.050 A 
ATOM      9  C   UNL     1       3.373  -1.132  -5.669  0.00  0.00    +0.162 A 
ATOM     10  C   UNL     1       3.989  -2.019  -4.793  0.00  0.00    +0.163 A 
ATOM     11  C   UNL     1       3.291  -2.510  -3.702  0.00  0.00    +0.058 A 
ATOM     12  O   UNL     1       5.279  -2.407  -4.987  0.00  0.00    -0.485 OA
ATOM     13  C   UNL     1       5.830  -2.183  -6.289  0.00  0.00    +0.270 C 
ATOM     14  C   UNL     1       5.472  -0.756  -6.724  0.00  0.00    +0.270 C 
ATOM     15  O   UNL     1       4.045  -0.640  -6.747  0.00  0.00    -0.485 OA
ENDBRANCH   2   6
BRANCH   1  16
ATOM     16  C   UNL     1       1.206  -0.492  -0.877  0.00  0.00    +0.011 C 
ATOM     17  C   UNL     1       0.439   0.407  -1.848  0.00  0.00    +0.017 C 
ATOM     18  C   UNL     1       2.709  -0.272  -1.056  0.00  0.00    +0.017 C 
BRANCH  16  20
ATOM     19  C   UNL     1       1.146   1.316   0.846  0.00  0.00    +0.005 C 
ATOM     20  C   UNL     1       0.808  -0.148   0.560  0.00  0.00    +0.009 C 
ENDBRANCH  16  20
ENDBRANCH   1  16
BRANCH   3  21
ATOM     21  N   UNL     1       0.845  -4.959  -3.101  0.00  0.00    -0.327 N 
ATOM     22  H   UNL     1       1.310  -4.809  -3.939  0.00  0.00    +0.145 HD
ATOM     23  H   UNL     1       0.463  -5.829  -2.907  0.00  0.00    +0.145 HD
ENDBRANCH   3  21
TORSDOF 4
