REMARK  Name = ZINC19216753
REMARK  8 active torsions:
REMARK  status: ('A' for Active; 'I' for Inactive)
REMARK    1  A    between atoms: C_1  and  C_2
REMARK    2  A    between atoms: C_5  and  C_7
REMARK    3  A    between atoms: C_12  and  N_13
REMARK    4  A    between atoms: C_14  and  C_16
REMARK    5  A    between atoms: C_16  and  N_17
REMARK    6  A    between atoms: C_20  and  N_30
REMARK    7  A    between atoms: C_22  and  C_24
REMARK    8  A    between atoms: C_27  and  C_29
REMARK                            x       y       z     vdW  Elec       q    Type
REMARK                         _______ _______ _______ _____ _____    ______ ____
ROOT
ATOM      1  C   UNL     1       6.073   2.192   0.172  0.00  0.00    +0.243 C 
ENDROOT
BRANCH   1   2
ATOM      2  N   UNL     1       7.189   1.246   0.253  0.00  0.00    -0.218 N 
ATOM      3  C   UNL     1       7.788   0.817  -0.875  0.00  0.00    +0.288 A 
ATOM      4  O   UNL     1       7.403   1.212  -1.964  0.00  0.00    -0.264 OA
ATOM      5  C   UNL     1       8.872  -0.094  -0.789  0.00  0.00    +0.094 A 
ATOM      6  C   UNL     1       9.282  -0.527   0.438  0.00  0.00    +0.058 A 
ATOM      7  C   UNL     1       8.627  -0.059   1.598  0.00  0.00    +0.100 A 
ATOM      8  N   UNL     1       7.626   0.790   1.502  0.00  0.00    -0.167 NA
BRANCH   7   9
ATOM      9  C   UNL     1       9.068  -0.527   2.928  0.00  0.00    +0.040 A 
ATOM     10  C   UNL     1       8.579  -0.197   4.165  0.00  0.00    +0.018 A 
ATOM     11  C   UNL     1       9.154  -0.769   5.278  0.00  0.00    +0.011 A 
ATOM     12  C   UNL     1      10.192  -1.630   5.118  0.00  0.00    -0.013 A 
ATOM     13  S   UNL     1      10.382  -1.662   3.344  0.00  0.00    -0.092 S 
ATOM     14  C   UNL     1      10.980  -2.369   6.169  0.00  0.00    +0.051 C 
ENDBRANCH   7   9
BRANCH   5  15
ATOM     15  N   UNL     1       9.508  -0.546  -1.946  0.00  0.00    -0.354 N 
ATOM     16  H   UNL     1      10.348  -1.253  -1.871  0.00  0.00    +0.142 HD
ATOM     17  H   UNL     1       9.169  -0.196  -2.932  0.00  0.00    +0.142 HD
ENDBRANCH   5  15
ENDBRANCH   1   2
BRANCH   1  19
ATOM     18  N   UNL     1       3.609   2.097  -0.021  0.00  0.00    -0.283 N 
ATOM     19  C   UNL     1       4.777   1.430   0.066  0.00  0.00    +0.239 C 
ATOM     20  O   UNL     1       4.785   0.217   0.059  0.00  0.00    -0.273 OA
ATOM     21  H   UNL     1       3.606   3.195  -0.089  0.00  0.00    +0.155 HD
BRANCH  18  27
ATOM     22  C   UNL     1       1.266   1.940   0.590  0.00  0.00    +0.038 A 
ATOM     23  C   UNL     1       0.066   1.229   0.581  0.00  0.00    +0.013 A 
ATOM     24  C   UNL     1       0.003  -0.006  -0.031  0.00  0.00    +0.001 A 
ATOM     25  C   UNL     1       1.126  -0.544  -0.636  0.00  0.00    +0.002 A 
ATOM     26  C   UNL     1       2.321   0.151  -0.634  0.00  0.00    +0.024 A 
ATOM     27  C   UNL     1       2.401   1.393  -0.024  0.00  0.00    +0.044 A 
BRANCH  22  32
ATOM     28  C   UNL     1       2.834   5.715   3.503  0.00  0.00    +0.086 C 
ATOM     29  C   UNL     1       2.022   4.918   2.515  0.00  0.00    +0.103 A 
ATOM     30  C   UNL     1       0.926   5.357   1.864  0.00  0.00    +0.045 A 
ATOM     31  C   UNL     1       0.482   4.300   1.045  0.00  0.00    +0.050 A 
ATOM     32  C   UNL     1       1.340   3.264   1.242  0.00  0.00    +0.137 A 
ATOM     33  O   UNL     1       2.265   3.651   2.141  0.00  0.00    -0.460 OA
ENDBRANCH  22  32
ENDBRANCH  18  27
ENDBRANCH   1  19
TORSDOF 6
