REMARK  Name = ZINC67247415
REMARK  9 active torsions:
REMARK  status: ('A' for Active; 'I' for Inactive)
REMARK    1  A    between atoms: C_1  and  C_2
REMARK    2  A    between atoms: C_5  and  C_7
REMARK    3  A    between atoms: C_8  and  C_13
REMARK    4  A    between atoms: C_13  and  N_14
REMARK    5  A    between atoms: N_14  and  C_15
REMARK    6  A    between atoms: C_15  and  C_16
REMARK    7  A    between atoms: C_19  and  N_22
REMARK    8  A    between atoms: C_25  and  C_28
REMARK    9  A    between atoms: C_28  and  O_29
REMARK                            x       y       z     vdW  Elec       q    Type
REMARK                         _______ _______ _______ _____ _____    ______ ____
ROOT
ATOM      1  N   UNL     1       4.186  -1.217  -0.595  0.00  0.00    +0.384 N 
ATOM      2  H   UNL     1       3.487  -0.834   0.024  0.00  0.00    -0.085 HD
ATOM      3  H   UNL     1       4.905  -1.671  -0.052  0.00  0.00    -0.085 HD
ENDROOT
BRANCH   1   4
ATOM      4  C   UNL     1       3.560  -2.196  -1.494  0.00  0.00    -0.042 C 
BRANCH   4   6
ATOM      5  C   UNL     1       1.706  -3.260  -0.013  0.00  0.00    +0.129 A 
ATOM      6  C   UNL     1       2.947  -3.306  -0.680  0.00  0.00    -0.016 A 
ATOM      7  C   UNL     1       3.490  -4.523  -0.460  0.00  0.00    +0.107 A 
ATOM      8  N   UNL     1       2.636  -5.228   0.314  0.00  0.00    -0.284 N 
ATOM      9  H   UNL     1       2.770  -6.136   0.628  0.00  0.00    +0.188 HD
ATOM     10  N   UNL     1       1.526  -4.419   0.588  0.00  0.00    -0.171 NA
BRANCH   5  15
ATOM     11  C   UNL     1      -0.019   1.454   0.063  0.00  0.00    +0.086 C 
ATOM     12  C   UNL     1       0.014  -0.052   0.046  0.00  0.00    +0.103 A 
ATOM     13  C   UNL     1      -1.063  -0.861   0.052  0.00  0.00    +0.045 A 
ATOM     14  C   UNL     1      -0.583  -2.187   0.030  0.00  0.00    +0.052 A 
ATOM     15  C   UNL     1       0.774  -2.112   0.013  0.00  0.00    +0.155 A 
ATOM     16  O   UNL     1       1.122  -0.811   0.016  0.00  0.00    -0.458 OA
ENDBRANCH   5  15
ENDBRANCH   4   6
ENDBRANCH   1   4
BRANCH   1  17
ATOM     17  C   UNL     1       4.782  -0.135  -1.389  0.00  0.00    -0.046 C 
BRANCH  17  18
ATOM     18  C   UNL     1       5.425   0.869  -0.467  0.00  0.00    -0.064 A 
ATOM     19  C   UNL     1       4.686   1.935   0.015  0.00  0.00    +0.003 A 
ATOM     20  C   UNL     1       5.272   2.856   0.861  0.00  0.00    +0.023 A 
ATOM     21  C   UNL     1       6.604   2.712   1.226  0.00  0.00    +0.030 A 
ATOM     22  C   UNL     1       7.343   1.641   0.740  0.00  0.00    +0.023 A 
ATOM     23  C   UNL     1       6.750   0.720  -0.100  0.00  0.00    +0.003 A 
BRANCH  21  24
ATOM     24  N   UNL     1       7.200   3.643   2.081  0.00  0.00    -0.330 N 
ATOM     25  C   UNL     1       8.570   3.439   2.572  0.00  0.00    +0.105 C 
ATOM     26  C   UNL     1       9.398   4.689   2.255  0.00  0.00    +0.024 C 
ATOM     27  C   UNL     1       8.699   5.920   2.836  0.00  0.00    +0.017 C 
ATOM     28  C   UNL     1       7.321   6.078   2.190  0.00  0.00    +0.024 C 
ATOM     29  C   UNL     1       6.471   4.848   2.501  0.00  0.00    +0.105 C 
BRANCH  27  30
ATOM     30  C   UNL     1       9.541   7.165   2.551  0.00  0.00    +0.159 C 
BRANCH  30  31
ATOM     31  O   UNL     1       8.949   8.297   3.192  0.00  0.00    -0.395 OA
ATOM     32  H   UNL     1       9.431   9.124   3.054  0.00  0.00    +0.209 HD
ENDBRANCH  30  31
ENDBRANCH  27  30
ENDBRANCH  21  24
ENDBRANCH  17  18
ENDBRANCH   1  17
TORSDOF 8
