REMARK  Name = ZINC01645742
REMARK  5 active torsions:
REMARK  status: ('A' for Active; 'I' for Inactive)
REMARK    1  A    between atoms: C_1  and  C_2
REMARK    2  A    between atoms: C_2  and  C_4
REMARK    3  A    between atoms: C_2  and  O_19
REMARK    4  A    between atoms: C_4  and  C_9
REMARK    5  A    between atoms: C_9  and  N_10
REMARK                            x       y       z     vdW  Elec       q    Type
REMARK                         _______ _______ _______ _____ _____    ______ ____
ROOT
ATOM      1  N   UNL     1       3.277   3.022  -0.388  0.00  0.00    -0.328 N 
ATOM      2  C   UNL     1       3.783   4.270  -0.713  0.00  0.00    +0.125 A 
ATOM      3  C   UNL     1       2.923   5.350  -0.919  0.00  0.00    +0.083 A 
ATOM      4  C   UNL     1       3.472   6.579  -1.236  0.00  0.00    +0.136 A 
ATOM      5  N   UNL     1       4.789   6.692  -1.344  0.00  0.00    -0.203 NA
ATOM      6  C   UNL     1       5.580   5.647  -1.148  0.00  0.00    +0.216 A 
ATOM      7  N   UNL     1       5.093   4.455  -0.838  0.00  0.00    -0.200 NA
ATOM      8  N   UNL     1       6.949   5.806  -1.271  0.00  0.00    -0.327 N 
ATOM      9 CL   UNL     1       2.449   7.957  -1.496  0.00  0.00    -0.062 Cl
ATOM     10  H   UNL     1       3.881   2.275  -0.250  0.00  0.00    +0.147 HD
ATOM     11  H   UNL     1       7.540   5.049  -1.129  0.00  0.00    +0.145 HD
ATOM     12  H   UNL     1       7.319   6.673  -1.498  0.00  0.00    +0.145 HD
ENDROOT
BRANCH   1  13
ATOM     13  C   UNL     1       1.831   2.829  -0.253  0.00  0.00    +0.112 C 
BRANCH  13  14
ATOM     14  C   UNL     1       1.532   1.344  -0.040  0.00  0.00    +0.012 C 
ATOM     15  C   UNL     1       1.944   0.537  -1.288  0.00  0.00    +0.011 C 
ATOM     16  C   UNL     1       3.366   0.019  -0.953  0.00  0.00    +0.001 C 
ATOM     17  C   UNL     1       3.260  -0.318   0.555  0.00  0.00    +0.001 C 
ATOM     18  C   UNL     1       2.369   0.801   1.132  0.00  0.00    +0.011 C 
BRANCH  14  20
ATOM     19  C   UNL     1      -0.778   1.712  -0.916  0.00  0.00    +0.038 C 
ATOM     20  C   UNL     1       0.042   1.145   0.244  0.00  0.00    +0.119 C 
BRANCH  20  21
ATOM     21  O   UNL     1      -0.308   1.825   1.452  0.00  0.00    -0.391 OA
ATOM     22  H   UNL     1      -0.147   2.778   1.427  0.00  0.00    +0.210 HD
ENDBRANCH  20  21
ENDBRANCH  14  20
ENDBRANCH  13  14
ENDBRANCH   1  13
TORSDOF 4
