REMARK  Name = ZINC62203380
REMARK  5 active torsions:
REMARK  status: ('A' for Active; 'I' for Inactive)
REMARK    1  A    between atoms: C_1  and  C_2
REMARK    2  A    between atoms: C_2  and  C_3
REMARK    3  A    between atoms: C_2  and  C_4
REMARK    4  A    between atoms: C_14  and  N_20
REMARK    5  A    between atoms: C_15  and  C_18
REMARK                            x       y       z     vdW  Elec       q    Type
REMARK                         _______ _______ _______ _____ _____    ______ ____
ROOT
ATOM      1  C   UNL     1      -1.412  -0.526   0.013  0.00  0.00    -0.044 A 
ATOM      2  C   UNL     1      -2.268  -0.207   1.057  0.00  0.00    +0.006 A 
ATOM      3  C   UNL     1      -3.558  -0.668   1.091  0.00  0.00    +0.029 A 
ATOM      4  C   UNL     1      -4.060  -1.490   0.055  0.00  0.00    +0.081 A 
ATOM      5  C   UNL     1      -3.159  -1.793  -0.992  0.00  0.00    +0.041 A 
ATOM      6  C   UNL     1      -1.870  -1.321  -1.021  0.00  0.00    +0.021 A 
ATOM      7  S   UNL     1      -4.149  -2.814  -2.057  0.00  0.00    -0.048 S 
ATOM      8  C   UNL     1      -5.644  -2.775  -1.079  0.00  0.00    +0.196 A 
ATOM      9  N   UNL     1      -5.294  -2.023  -0.063  0.00  0.00    -0.221 NA
ATOM     10  N   UNL     1      -6.867  -3.386  -1.331  0.00  0.00    -0.193 N 
ATOM     11  C   UNL     1      -7.972  -3.311  -0.543  0.00  0.00    +0.140 A 
ATOM     12  C   UNL     1      -8.965  -4.064  -1.163  0.00  0.00    +0.111 A 
ATOM     13  C   UNL     1      -8.406  -4.591  -2.351  0.00  0.00    +0.155 A 
ATOM     14  N   UNL     1      -7.172  -4.180  -2.442  0.00  0.00    -0.170 NA
ENDROOT
BRANCH   1  16
ATOM     15  C   UNL     1      -0.019   1.526   0.010  0.00  0.00    +0.012 C 
ATOM     16  C   UNL     1       0.002  -0.004   0.002  0.00  0.00    +0.013 C 
ATOM     17  C   UNL     1       0.742  -0.511   1.242  0.00  0.00    +0.012 C 
ENDBRANCH   1  16
BRANCH  11  18
ATOM     18  N   UNL     1      -8.088  -2.619   0.646  0.00  0.00    -0.342 N 
ATOM     19  H   UNL     1      -7.330  -2.123   0.994  0.00  0.00    +0.144 HD
ATOM     20  H   UNL     1      -8.926  -2.630   1.134  0.00  0.00    +0.144 HD
ENDBRANCH  11  18
BRANCH  12  21
ATOM     21  C   UNL     1     -10.300  -4.268  -0.688  0.00  0.00    +0.104 C 
ATOM     22  N   UNL     1     -11.360  -4.430  -0.310  0.00  0.00    -0.191 NA
ENDBRANCH  12  21
TORSDOF 3
