REMARK  Name = ZINC62959134
REMARK  6 active torsions:
REMARK  status: ('A' for Active; 'I' for Inactive)
REMARK    1  A    between atoms: C_1  and  C_2
REMARK    2  A    between atoms: C_2  and  C_3
REMARK    3  A    between atoms: C_3  and  C_22
REMARK    4  A    between atoms: C_14  and  O_21
REMARK    5  A    between atoms: C_17  and  C_19
REMARK    6  A    between atoms: C_17  and  C_20
REMARK                            x       y       z     vdW  Elec       q    Type
REMARK                         _______ _______ _______ _____ _____    ______ ____
ROOT
ATOM      1  C   UNL     1      -1.433  -0.534   0.013  0.00  0.00    -0.029 C 
ATOM      2  C   UNL     1      -2.174  -0.025  -1.226  0.00  0.00    +0.025 C 
ATOM      3  C   UNL     1      -3.620  -0.529  -1.194  0.00  0.00    +0.107 C 
ATOM      4  N   UNL     1      -3.609  -1.992  -1.056  0.00  0.00    -0.310 N 
ATOM      5  C   UNL     1      -2.850  -2.591   0.050  0.00  0.00    +0.107 C 
ATOM      6  C   UNL     1      -1.412  -2.064   0.004  0.00  0.00    +0.025 C 
ATOM      7  C   UNL     1      -4.301  -2.791  -1.952  0.00  0.00    +0.161 A 
ATOM      8  N   UNL     1      -4.399  -4.102  -1.971  0.00  0.00    -0.229 NA
ATOM      9  C   UNL     1      -5.106  -4.741  -2.901  0.00  0.00    +0.057 A 
ATOM     10  C   UNL     1      -5.707  -3.937  -3.813  0.00  0.00    +0.043 A 
ATOM     11  S   UNL     1      -5.227  -2.319  -3.279  0.00  0.00    -0.054 S 
ATOM     12  C   UNL     1      -6.561  -4.345  -4.966  0.00  0.00    +0.153 C 
ATOM     13  C   UNL     1      -6.970  -5.813  -4.764  0.00  0.00    +0.043 C 
ATOM     14  C   UNL     1      -5.726  -6.625  -4.390  0.00  0.00    -0.027 C 
ATOM     15  C   UNL     1      -5.260  -6.254  -2.981  0.00  0.00    +0.063 C 
ATOM     16  C   UNL     1      -4.607  -6.328  -5.390  0.00  0.00    +0.011 C 
ATOM     17  C   UNL     1      -6.062  -8.117  -4.436  0.00  0.00    +0.011 C 
ATOM     18  C   UNL     1      -2.149  -0.041   1.272  0.00  0.00    +0.011 C 
ENDROOT
BRANCH   1  20
ATOM     19  C   UNL     1      -0.019   1.526   0.010  0.00  0.00    +0.004 C 
ATOM     20  C   UNL     1       0.002  -0.004   0.002  0.00  0.00    +0.003 C 
ENDBRANCH   1  20
BRANCH  12  21
ATOM     21  O   UNL     1      -7.728  -3.522  -5.017  0.00  0.00    -0.387 OA
ATOM     22  H   UNL     1      -7.539  -2.579  -5.124  0.00  0.00    +0.210 HD
ENDBRANCH  12  21
TORSDOF 2
