REMARK  Name = ZINC63521163
REMARK  11 active torsions:
REMARK  status: ('A' for Active; 'I' for Inactive)
REMARK    1  A    between atoms: C_1  and  C_2
REMARK    2  A    between atoms: C_2  and  O_3
REMARK    3  A    between atoms: O_3  and  C_4
REMARK    4  A    between atoms: C_9  and  S_10
REMARK    5  A    between atoms: S_10  and  N_13
REMARK    6  A    between atoms: N_13  and  C_14
REMARK    7  A    between atoms: C_14  and  C_15
REMARK    8  A    between atoms: C_15  and  C_16
REMARK    9  A    between atoms: C_19  and  O_27
REMARK   10  A    between atoms: C_24  and  C_26
REMARK   11  A    between atoms: O_27  and  C_28
REMARK                            x       y       z     vdW  Elec       q    Type
REMARK                         _______ _______ _______ _____ _____    ______ ____
ROOT
ATOM      1  C   UNL     1      -1.005   1.342  -4.507  0.00  0.00    +0.050 C 
ENDROOT
BRANCH   1   2
ATOM      2  C   UNL     1      -1.808   2.326  -3.696  0.00  0.00    -0.037 C 
ATOM      3  C   UNL     1      -1.612   2.665  -2.402  0.00  0.00    +0.003 A 
ATOM      4  C   UNL     1      -0.631   2.237  -1.399  0.00  0.00    +0.056 A 
ATOM      5  C   UNL     1      -0.680   2.762  -0.151  0.00  0.00    +0.129 A 
ATOM      6  C   UNL     1      -1.645   3.712   0.226  0.00  0.00    +0.048 A 
ATOM      7  C   UNL     1      -2.588   4.168  -0.626  0.00  0.00    +0.029 A 
ATOM      8  C   UNL     1      -2.628   3.667  -2.004  0.00  0.00    +0.043 A 
ATOM      9  N   UNL     1      -3.420   3.935  -3.011  0.00  0.00    -0.378 N 
ATOM     10  C   UNL     1      -2.993   3.139  -4.168  0.00  0.00    +0.103 C 
ATOM     11  C   UNL     1      -2.579   4.057  -5.320  0.00  0.00    +0.035 C 
ATOM     12  H   UNL     1      -4.163   4.559  -2.997  0.00  0.00    +0.160 HD
BRANCH   5  13
ATOM     13  O   UNL     1       0.235   2.356   0.768  0.00  0.00    -0.420 OA
BRANCH  13  14
ATOM     14  C   UNL     1       0.125   2.909   2.081  0.00  0.00    +0.489 C 
ATOM     15  F   UNL     1       0.254   4.301   2.012  0.00  0.00    -0.149 F 
ATOM     16  F   UNL     1      -1.123   2.583   2.622  0.00  0.00    -0.149 F 
ATOM     17 CL   UNL     1       1.430   2.236   3.128  0.00  0.00    +0.000 Cl
ENDBRANCH  13  14
ENDBRANCH   5  13
ENDBRANCH   1   2
BRANCH   1  18
ATOM     18  C   UNL     1       0.109   0.754  -3.638  0.00  0.00    +0.110 C 
BRANCH  18  19
ATOM     19  N   UNL     1       0.886  -0.206  -4.425  0.00  0.00    -0.190 NA
ATOM     20  H   UNL     1       0.525  -0.562  -5.252  0.00  0.00    +0.148 HD
BRANCH  19  21
ATOM     21  S   UNL     1       2.384  -0.684  -3.903  0.00  0.00    +0.062 S 
ATOM     22  O   UNL     1       2.893  -1.571  -4.889  0.00  0.00    -0.153 OA
ATOM     23  O   UNL     1       2.237  -1.062  -2.541  0.00  0.00    -0.153 OA
BRANCH  21  29
ATOM     24  C   UNL     1       3.712   1.371  -5.122  0.00  0.00    +0.147 A 
ATOM     25  C   UNL     1       4.524   2.495  -5.134  0.00  0.00    +0.049 A 
ATOM     26  C   UNL     1       5.046   2.981  -3.951  0.00  0.00    +0.024 A 
ATOM     27  C   UNL     1       4.760   2.346  -2.755  0.00  0.00    +0.043 A 
ATOM     28  C   UNL     1       3.951   1.225  -2.741  0.00  0.00    +0.052 A 
ATOM     29  C   UNL     1       3.421   0.740  -3.922  0.00  0.00    +0.148 A 
ATOM     30 CL   UNL     1       5.418   2.959  -1.270  0.00  0.00    -0.083 Cl
BRANCH  24  31
ATOM     31  O   UNL     1       3.197   0.891  -6.285  0.00  0.00    -0.490 OA
BRANCH  31  33
ATOM     32  C   UNL     1       2.876   0.913  -8.681  0.00  0.00    +0.048 C 
ATOM     33  C   UNL     1       3.622   1.526  -7.493  0.00  0.00    +0.226 C 
ENDBRANCH  31  33
ENDBRANCH  24  31
ENDBRANCH  21  29
ENDBRANCH  19  21
ENDBRANCH  18  19
ENDBRANCH   1  18
TORSDOF 9
