REMARK  Name = ZINC35378082
REMARK  6 active torsions:
REMARK  status: ('A' for Active; 'I' for Inactive)
REMARK    1  A    between atoms: C_1  and  C_2
REMARK    2  A    between atoms: C_5  and  N_9
REMARK    3  A    between atoms: C_6  and  C_8
REMARK    4  A    between atoms: N_9  and  S_10
REMARK    5  A    between atoms: S_10  and  C_13
REMARK    6  A    between atoms: C_15  and  C_20
REMARK                            x       y       z     vdW  Elec       q    Type
REMARK                         _______ _______ _______ _____ _____    ______ ____
ROOT
ATOM      1  C   UNL     1       2.658  -4.492  -0.862  0.00  0.00    +0.127 A 
ATOM      2  C   UNL     1       3.571  -5.500  -0.629  0.00  0.00    +0.040 A 
ATOM      3  C   UNL     1       4.902  -5.184  -0.365  0.00  0.00    +0.004 A 
ATOM      4  C   UNL     1       5.305  -3.850  -0.339  0.00  0.00    +0.011 A 
ATOM      5  C   UNL     1       4.385  -2.849  -0.573  0.00  0.00    +0.022 A 
ATOM      6  C   UNL     1       3.064  -3.169  -0.840  0.00  0.00    +0.068 A 
ATOM      7 CL   UNL     1       1.912  -1.905  -1.141  0.00  0.00    -0.082 Cl
ENDROOT
BRANCH   3   8
ATOM      8  C   UNL     1       5.888  -6.264  -0.114  0.00  0.00    +0.091 A 
ATOM      9  C   UNL     1       7.238  -5.938   0.153  0.00  0.00    +0.035 A 
ATOM     10  C   UNL     1       8.116  -6.956   0.381  0.00  0.00    +0.073 A 
ATOM     11  C   UNL     1       7.620  -8.278   0.335  0.00  0.00    +0.265 A 
ATOM     12  O   UNL     1       8.368  -9.222   0.533  0.00  0.00    -0.266 OA
ATOM     13  N   UNL     1       6.316  -8.489   0.073  0.00  0.00    -0.243 N 
ATOM     14  N   UNL     1       5.503  -7.518  -0.134  0.00  0.00    -0.171 NA
ATOM     15  H   UNL     1       5.983  -9.399   0.043  0.00  0.00    +0.192 HD
ENDBRANCH   3   8
BRANCH   1  16
ATOM     16  S   UNL     1       0.974  -4.890  -1.196  0.00  0.00    +0.074 S 
ATOM     17  O   UNL     1       0.862  -6.303  -1.090  0.00  0.00    -0.150 OA
ATOM     18  O   UNL     1       0.616  -4.184  -2.376  0.00  0.00    -0.150 OA
BRANCH  16  19
ATOM     19  N   UNL     1       0.067  -4.250   0.033  0.00  0.00    -0.216 N 
ATOM     20  H   UNL     1      -0.540  -3.514  -0.145  0.00  0.00    +0.174 HD
BRANCH  19  25
ATOM     21  C   UNL     1       0.507  -6.359   5.279  0.00  0.00    +0.044 C 
ATOM     22  C   UNL     1       0.390  -5.798   3.884  0.00  0.00    -0.050 A 
ATOM     23  C   UNL     1       1.506  -5.737   3.070  0.00  0.00    +0.005 A 
ATOM     24  C   UNL     1       1.402  -5.224   1.792  0.00  0.00    +0.025 A 
ATOM     25  C   UNL     1       0.175  -4.770   1.325  0.00  0.00    +0.051 A 
ATOM     26  C   UNL     1      -0.943  -4.833   2.146  0.00  0.00    -0.028 A 
ATOM     27  C   UNL     1      -0.834  -5.352   3.421  0.00  0.00    +0.008 A 
ATOM     28  C   UNL     1      -2.276  -4.340   1.644  0.00  0.00    +0.046 C 
ENDBRANCH  19  25
ENDBRANCH  16  19
ENDBRANCH   1  16
TORSDOF 4
