REMARK  Name = ZINC35599865
REMARK  7 active torsions:
REMARK  status: ('A' for Active; 'I' for Inactive)
REMARK    1  A    between atoms: C_1  and  C_2
REMARK    2  A    between atoms: C_2  and  CA_3
REMARK    3  A    between atoms: CA_3  and  C_5
REMARK    4  A    between atoms: CA_3  and  N_7
REMARK    5  A    between atoms: C_5  and  O_6
REMARK    6  A    between atoms: N_7  and  C_8
REMARK    7  A    between atoms: C_13  and  N_14
REMARK                            x       y       z     vdW  Elec       q    Type
REMARK                         _______ _______ _______ _____ _____    ______ ____
ROOT
ATOM      1  C   UNL     1      -3.470  -0.050   1.336  0.00  0.00    +0.050 A 
ATOM      2  C   UNL     1      -4.229  -0.297   0.207  0.00  0.00    +0.053 A 
ATOM      3  C   UNL     1      -5.617  -0.185   0.269  0.00  0.00    +0.080 A 
ATOM      4  C   UNL     1      -6.233   0.179   1.489  0.00  0.00    +0.067 A 
ATOM      5  C   UNL     1      -5.456   0.426   2.622  0.00  0.00    +0.040 A 
ATOM      6  C   UNL     1      -4.083   0.306   2.545  0.00  0.00    +0.047 A 
ATOM      7  C   UNL     1      -7.697   0.287   1.517  0.00  0.00    +0.259 A 
ATOM      8  O   UNL     1      -8.289   0.598   2.535  0.00  0.00    -0.267 OA
ATOM      9  N   UNL     1      -8.364   0.029   0.368  0.00  0.00    -0.313 N 
ATOM     10  H   UNL     1      -9.332   0.091   0.350  0.00  0.00    +0.170 HD
ATOM     11  C   UNL     1      -7.690  -0.315  -0.761  0.00  0.00    +0.199 A 
ATOM     12  N   UNL     1      -6.397  -0.419  -0.817  0.00  0.00    -0.237 NA
ENDROOT
BRANCH   6  13
ATOM     13  N   UNL     1      -3.299   0.547   3.680  0.00  0.00    -0.357 N 
ATOM     14  H   UNL     1      -2.334   0.467   3.628  0.00  0.00    +0.142 HD
ATOM     15  H   UNL     1      -3.721   0.794   4.518  0.00  0.00    +0.142 HD
ENDBRANCH   6  13
BRANCH   1  16
ATOM     16  N   UNL     1      -2.082  -0.162   1.273  0.00  0.00    -0.337 N 
ATOM     17  H   UNL     1      -1.545   0.006   2.063  0.00  0.00    +0.146 HD
BRANCH  16  18
ATOM     18  CA  UNL     1      -1.433  -0.534   0.013  0.00  0.00    +0.095 C 
BRANCH  18  20
ATOM     19  C   UNL     1      -0.019   1.526   0.010  0.00  0.00    +0.006 C 
ATOM     20  C   UNL     1       0.002  -0.004   0.002  0.00  0.00    +0.021 C 
ENDBRANCH  18  20
BRANCH  18  21
ATOM     21  C   UNL     1      -1.416  -2.058  -0.121  0.00  0.00    +0.178 C 
BRANCH  21  22
ATOM     22  O   UNL     1      -0.594  -2.617   0.906  0.00  0.00    -0.393 OA
ATOM     23  H   UNL     1      -0.537  -3.582   0.882  0.00  0.00    +0.209 HD
ENDBRANCH  21  22
ENDBRANCH  18  21
ENDBRANCH  16  18
ENDBRANCH   1  16
TORSDOF 6
