REMARK  Name = ZINC06547969
REMARK  12 active torsions:
REMARK  status: ('A' for Active; 'I' for Inactive)
REMARK    1  A    between atoms: C_1  and  C_2
REMARK    2  A    between atoms: C_2  and  O_3
REMARK    3  A    between atoms: O_3  and  C_4
REMARK    4  A    between atoms: C_4  and  C_6
REMARK    5  A    between atoms: C_7  and  C_34
REMARK    6  A    between atoms: C_8  and  C_31
REMARK    7  A    between atoms: C_10  and  N_11
REMARK    8  A    between atoms: C_12  and  C_14
REMARK    9  A    between atoms: C_14  and  S_15
REMARK   10  A    between atoms: S_15  and  C_16
REMARK   11  A    between atoms: C_18  and  C_26
REMARK   12  A    between atoms: C_20  and  C_22
REMARK                            x       y       z     vdW  Elec       q    Type
REMARK                         _______ _______ _______ _____ _____    ______ ____
ROOT
ATOM      1  N   UNL     1      -1.279  -2.329  -2.491  0.00  0.00    -0.279 N 
ATOM      2  C   UNL     1      -1.322  -3.183  -3.533  0.00  0.00    +0.228 C 
ATOM      3  O   UNL     1      -1.367  -4.379  -3.334  0.00  0.00    -0.275 OA
ATOM      4  H   UNL     1      -1.243  -1.373  -2.650  0.00  0.00    +0.155 HD
ENDROOT
BRANCH   1   9
ATOM      5  C   UNL     1      -1.248  -2.099   0.003  0.00  0.00    +0.091 A 
ATOM      6  C   UNL     1      -1.259  -2.822   1.186  0.00  0.00    -0.015 A 
ATOM      7  C   UNL     1      -1.319  -4.186   1.097  0.00  0.00    +0.079 A 
ATOM      8  S   UNL     1      -1.346  -4.463  -0.664  0.00  0.00    -0.068 S 
ATOM      9  C   UNL     1      -1.287  -2.815  -1.198  0.00  0.00    +0.087 A 
ATOM     10  C   UNL     1      -1.213  -2.129   2.524  0.00  0.00    +0.046 C 
BRANCH   7  11
ATOM     11  C   UNL     1      -1.347  -5.173   2.178  0.00  0.00    +0.248 C 
ATOM     12  O   UNL     1      -1.322  -4.805   3.338  0.00  0.00    -0.270 OA
ATOM     13  N   UNL     1      -1.400  -6.488   1.889  0.00  0.00    -0.325 N 
ATOM     14  H   UNL     1      -1.420  -6.781   0.965  0.00  0.00    +0.145 HD
ATOM     15  H   UNL     1      -1.419  -7.142   2.606  0.00  0.00    +0.145 HD
ENDBRANCH   7  11
BRANCH   5  16
ATOM     16  C   UNL     1      -1.191  -0.632   0.010  0.00  0.00    +0.342 C 
ATOM     17  O   UNL     1      -2.220   0.016   0.023  0.00  0.00    -0.245 OA
BRANCH  16  18
ATOM     18  O   UNL     1       0.002  -0.004   0.002  0.00  0.00    -0.461 OA
BRANCH  18  20
ATOM     19  C   UNL     1       1.418   1.977  -0.001  0.00  0.00    +0.048 C 
ATOM     20  C   UNL     1      -0.018   1.448   0.010  0.00  0.00    +0.229 C 
ENDBRANCH  18  20
ENDBRANCH  16  18
ENDBRANCH   5  16
ENDBRANCH   1   9
BRANCH   2  21
ATOM     21  C   UNL     1      -1.314  -2.653  -4.943  0.00  0.00    +0.173 C 
BRANCH  21  22
ATOM     22  S   UNL     1      -1.379  -4.037  -6.108  0.00  0.00    -0.077 S 
BRANCH  22  23
ATOM     23  C   UNL     1      -1.358  -3.154  -7.633  0.00  0.00    +0.190 A 
ATOM     24  N   UNL     1      -1.389  -3.831  -8.771  0.00  0.00    -0.219 NA
ATOM     25  C   UNL     1      -1.380  -3.191  -9.941  0.00  0.00    +0.111 A 
ATOM     26  C   UNL     1      -1.325  -1.791  -9.947  0.00  0.00    +0.064 A 
ATOM     27  C   UNL     1      -1.288  -1.128  -8.735  0.00  0.00    +0.149 A 
ATOM     28  N   UNL     1      -1.306  -1.829  -7.612  0.00  0.00    -0.218 NA
BRANCH  25  29
ATOM     29  C   UNL     1      -1.421  -3.946 -11.208  0.00  0.00    +0.153 A 
ATOM     30  C   UNL     1      -1.470  -5.301 -11.330  0.00  0.00    +0.051 A 
ATOM     31  C   UNL     1      -1.498  -5.582 -12.708  0.00  0.00    +0.042 A 
ATOM     32  C   UNL     1      -1.457  -4.400 -13.355  0.00  0.00    +0.196 A 
ATOM     33  O   UNL     1      -1.411  -3.414 -12.446  0.00  0.00    -0.461 OA
ENDBRANCH  25  29
BRANCH  27  34
ATOM     34  C   UNL     1      -1.229   0.377  -8.693  0.00  0.00    +0.434 C 
ATOM     35  F   UNL     1      -1.086   0.800  -7.367  0.00  0.00    -0.164 F 
ATOM     36  F   UNL     1      -0.137   0.822  -9.445  0.00  0.00    -0.164 F 
ATOM     37  F   UNL     1      -2.410   0.905  -9.226  0.00  0.00    -0.164 F 
ENDBRANCH  27  34
ENDBRANCH  22  23
ENDBRANCH  21  22
ENDBRANCH   2  21
TORSDOF 10
