REMARK  Name = ZINC13393837
REMARK  6 active torsions:
REMARK  status: ('A' for Active; 'I' for Inactive)
REMARK    1  A    between atoms: C_1  and  C_2
REMARK    2  A    between atoms: C_4  and  C_16
REMARK    3  A    between atoms: C_12  and  C_13
REMARK    4  A    between atoms: C_16  and  S_17
REMARK    5  A    between atoms: S_17  and  C_18
REMARK    6  A    between atoms: N_28  and  C_29
REMARK                            x       y       z     vdW  Elec       q    Type
REMARK                         _______ _______ _______ _____ _____    ______ ____
ROOT
ATOM      1  S   UNL     1      -1.835   1.939  -2.123  0.00  0.00    -0.083 S 
ENDROOT
BRANCH   1   2
ATOM      2  C   UNL     1      -1.732   3.666  -2.460  0.00  0.00    +0.173 A 
ATOM      3  N   UNL     1      -0.657   4.123  -3.053  0.00  0.00    -0.223 NA
ATOM      4  C   UNL     1      -0.511   5.431  -3.341  0.00  0.00    +0.079 A 
ATOM      5  C   UNL     1       0.636   5.919  -3.974  0.00  0.00    +0.028 A 
ATOM      6  C   UNL     1       0.742   7.254  -4.248  0.00  0.00    +0.002 A 
ATOM      7  C   UNL     1      -0.276   8.136  -3.906  0.00  0.00    +0.001 A 
ATOM      8  C   UNL     1      -1.410   7.689  -3.287  0.00  0.00    +0.015 A 
ATOM      9  C   UNL     1      -1.544   6.332  -2.996  0.00  0.00    +0.065 A 
ATOM     10  C   UNL     1      -2.740   5.796  -2.332  0.00  0.00    +0.263 A 
ATOM     11  O   UNL     1      -3.663   6.521  -2.011  0.00  0.00    -0.267 OA
ATOM     12  N   UNL     1      -2.779   4.464  -2.097  0.00  0.00    -0.284 N 
BRANCH  12  13
ATOM     13  C   UNL     1      -3.951   3.874  -1.444  0.00  0.00    +0.093 C 
ATOM     14  C   UNL     1      -5.224   4.190  -2.256  0.00  0.00    +0.025 C 
ATOM     15  C   UNL     1      -6.312   4.427  -1.179  0.00  0.00    +0.002 C 
ATOM     16  C   UNL     1      -5.537   5.177  -0.069  0.00  0.00    +0.002 C 
ATOM     17  C   UNL     1      -4.150   4.502  -0.053  0.00  0.00    +0.025 C 
ENDBRANCH  12  13
ENDBRANCH   1   2
BRANCH   1  18
ATOM     18  C   UNL     1      -0.270   1.274  -2.754  0.00  0.00    +0.113 C 
BRANCH  18  22
ATOM     19  C   UNL     1       0.677   1.499  -0.145  0.00  0.00    +0.046 C 
ATOM     20  C   UNL     1       0.638  -0.008  -0.140  0.00  0.00    -0.020 A 
ATOM     21  C   UNL     1       0.212  -0.733  -1.264  0.00  0.00    +0.014 A 
ATOM     22  C   UNL     1      -0.228  -0.215  -2.524  0.00  0.00    -0.022 A 
ATOM     23  C   UNL     1      -0.607  -1.061  -3.509  0.00  0.00    +0.075 A 
ATOM     24  C   UNL     1      -0.574  -2.454  -3.312  0.00  0.00    +0.250 A 
ATOM     25  O   UNL     1      -0.919  -3.206  -4.209  0.00  0.00    -0.268 OA
ATOM     26  N   UNL     1      -0.162  -2.957  -2.132  0.00  0.00    -0.317 N 
ATOM     27  H   UNL     1      -0.141  -3.917  -1.999  0.00  0.00    +0.169 HD
ATOM     28  C   UNL     1       0.224  -2.130  -1.126  0.00  0.00    +0.089 A 
ATOM     29  S   UNL     1       0.777  -2.410   0.428  0.00  0.00    -0.064 S 
ATOM     30  C   UNL     1       1.020  -0.727   0.957  0.00  0.00    +0.106 A 
BRANCH  30  31
ATOM     31  C   UNL     1       1.492  -0.251   2.207  0.00  0.00    +0.393 C 
ATOM     32  O   UNL     1       1.597   0.954   2.403  0.00  0.00    -0.240 OA
ATOM     33  O   UNL     1       1.794  -1.044   3.090  0.00  0.00    -0.240 OA
ENDBRANCH  30  31
ENDBRANCH  18  22
ENDBRANCH   1  18
TORSDOF 5
