REMARK  Name = ZINC33033393
REMARK  12 active torsions:
REMARK  status: ('A' for Active; 'I' for Inactive)
REMARK    1  A    between atoms: C_1  and  C_2
REMARK    2  A    between atoms: C_2  and  N_3
REMARK    3  A    between atoms: N_3  and  C_4
REMARK    4  A    between atoms: C_4  and  C_5
REMARK    5  A    between atoms: C_6  and  C_8
REMARK    6  A    between atoms: C_11  and  N_27
REMARK    7  A    between atoms: C_12  and  N_14
REMARK    8  A    between atoms: N_14  and  S_15
REMARK    9  A    between atoms: S_15  and  C_18
REMARK   10  A    between atoms: C_21  and  C_24
REMARK   11  A    between atoms: C_24  and  C_25
REMARK   12  A    between atoms: C_24  and  C_26
REMARK                            x       y       z     vdW  Elec       q    Type
REMARK                         _______ _______ _______ _____ _____    ______ ____
ROOT
ATOM      1  C   UNL     1      -0.319   5.463   2.958  0.00  0.00    +0.039 A 
ATOM      2  C   UNL     1       0.008   4.652   4.048  0.00  0.00    +0.015 A 
ATOM      3  C   UNL     1      -0.862   3.665   4.459  0.00  0.00    +0.026 A 
ATOM      4  C   UNL     1      -2.068   3.478   3.795  0.00  0.00    +0.052 A 
ATOM      5  C   UNL     1      -2.398   4.281   2.700  0.00  0.00    +0.070 A 
ATOM      6  C   UNL     1      -1.529   5.272   2.284  0.00  0.00    +0.039 A 
ENDROOT
BRANCH   4   7
ATOM      7  N   UNL     1      -2.948   2.483   4.217  0.00  0.00    -0.332 N 
ATOM      8  C   UNL     1      -2.309   1.599   5.202  0.00  0.00    +0.086 C 
ATOM      9  C   UNL     1      -3.278   0.476   5.580  0.00  0.00    -0.063 C 
ATOM     10  N   UNL     1      -4.512   1.060   6.124  0.00  0.00    +0.381 N 
ATOM     11  C   UNL     1      -5.151   1.945   5.139  0.00  0.00    -0.063 C 
ATOM     12  C   UNL     1      -4.182   3.067   4.761  0.00  0.00    +0.086 C 
ATOM     13  H   UNL     1      -5.215   0.256   6.385  0.00  0.00    -0.086 HD
ATOM     14  H   UNL     1      -4.275   1.646   7.024  0.00  0.00    -0.086 HD
ENDBRANCH   4   7
BRANCH   1  16
ATOM     15  N   UNL     1       1.435   7.106   3.410  0.00  0.00    -0.298 N 
ATOM     16  C   UNL     1       0.613   6.519   2.518  0.00  0.00    +0.247 C 
ATOM     17  O   UNL     1       0.638   6.860   1.351  0.00  0.00    -0.270 OA
BRANCH  15  19
ATOM     18  C   UNL     1       1.813   9.506   3.134  0.00  0.00    +0.024 C 
ATOM     19  C   UNL     1       2.407   8.107   2.962  0.00  0.00    +0.104 C 
ENDBRANCH  15  19
BRANCH  15  20
ATOM     20  C   UNL     1       1.358   6.743   4.827  0.00  0.00    +0.104 C 
ATOM     21  C   UNL     1       2.587   5.915   5.209  0.00  0.00    +0.024 C 
ENDBRANCH  15  20
ENDBRANCH   1  16
BRANCH   5  22
ATOM     22  N   UNL     1      -3.611   4.087   2.028  0.00  0.00    -0.214 N 
ATOM     23  H   UNL     1      -4.563   4.198   2.568  0.00  0.00    +0.174 HD
BRANCH  22  24
ATOM     24  S   UNL     1      -3.613   3.690   0.420  0.00  0.00    +0.072 S 
ATOM     25  O   UNL     1      -2.789   4.644  -0.235  0.00  0.00    -0.150 OA
ATOM     26  O   UNL     1      -4.970   3.477   0.056  0.00  0.00    -0.150 OA
BRANCH  24  27
ATOM     27  C   UNL     1      -2.801   2.133   0.267  0.00  0.00    +0.109 A 
ATOM     28  C   UNL     1      -1.435   2.084   0.062  0.00  0.00    +0.029 A 
ATOM     29  C   UNL     1      -0.799   0.863  -0.066  0.00  0.00    +0.006 A 
ATOM     30  C   UNL     1      -1.529  -0.308   0.015  0.00  0.00    -0.045 A 
ATOM     31  C   UNL     1      -2.895  -0.259   0.221  0.00  0.00    +0.006 A 
ATOM     32  C   UNL     1      -3.531   0.962   0.347  0.00  0.00    +0.029 A 
BRANCH  30  33
ATOM     33  C   UNL     1      -0.835  -1.639  -0.121  0.00  0.00    +0.013 C 
ATOM     34  C   UNL     1      -0.154  -1.722  -1.489  0.00  0.00    +0.012 C 
ATOM     35  C   UNL     1       0.216  -1.781   0.982  0.00  0.00    +0.012 C 
ENDBRANCH  30  33
ENDBRANCH  24  27
ENDBRANCH  22  24
ENDBRANCH   5  22
TORSDOF 8
