REMARK  Name = ZINC20623135
REMARK  5 active torsions:
REMARK  status: ('A' for Active; 'I' for Inactive)
REMARK    1  A    between atoms: C_1  and  C_2
REMARK    2  A    between atoms: C_4  and  C_29
REMARK    3  A    between atoms: C_5  and  N_7
REMARK    4  A    between atoms: C_29  and  O_31
REMARK    5  A    between atoms: O_31  and  C_32
REMARK                            x       y       z     vdW  Elec       q    Type
REMARK                         _______ _______ _______ _____ _____    ______ ____
ROOT
ATOM      1  N   UNL     1       1.228  -3.835  -0.123  0.00  0.00    -0.203 N 
ATOM      2  C   UNL     1       0.517  -4.993  -0.263  0.00  0.00    +0.232 C 
ATOM      3  O   UNL     1      -0.635  -5.105  -0.623  0.00  0.00    -0.274 OA
ATOM      4  C   UNL     1       1.459  -6.101   0.123  0.00  0.00    +0.104 C 
ATOM      5  C   UNL     1       1.500  -7.377  -0.727  0.00  0.00    +0.095 C 
ATOM      6  N   UNL     1       2.947  -7.769  -0.667  0.00  0.00    -0.298 NA
ATOM      7  C   UNL     1       3.738  -6.519  -0.442  0.00  0.00    +0.136 C 
ATOM      8  C   UNL     1       2.758  -5.421  -0.471  0.00  0.00    +0.123 C 
ATOM      9  C   UNL     1       2.583  -4.049  -0.056  0.00  0.00    +0.233 C 
ATOM     10  O   UNL     1       3.441  -3.262   0.280  0.00  0.00    -0.274 OA
ATOM     11  C   UNL     1       4.829  -6.424  -1.478  0.00  0.00    +0.004 A 
ATOM     12  C   UNL     1       4.816  -6.308  -2.850  0.00  0.00    +0.023 A 
ATOM     13  C   UNL     1       6.009  -6.238  -3.548  0.00  0.00    +0.018 A 
ATOM     14  C   UNL     1       7.211  -6.287  -2.864  0.00  0.00    +0.017 A 
ATOM     15  C   UNL     1       7.226  -6.405  -1.490  0.00  0.00    +0.025 A 
ATOM     16  C   UNL     1       6.030  -6.475  -0.780  0.00  0.00    +0.039 A 
ATOM     17  N   UNL     1       5.787  -6.594   0.590  0.00  0.00    -0.283 N 
ATOM     18  C   UNL     1       4.472  -6.626   0.873  0.00  0.00    +0.243 C 
ATOM     19  O   UNL     1       3.971  -6.722   1.973  0.00  0.00    -0.273 OA
ATOM     20 BR   UNL     1       5.997  -6.078  -5.433  0.00  0.00    -0.050 Br
ATOM     21  H   UNL     1       3.110  -8.438   0.071  0.00  0.00    +0.123 HD
ATOM     22  H   UNL     1       6.486  -6.648   1.261  0.00  0.00    +0.155 HD
ENDROOT
BRANCH   1  27
ATOM     23  C   UNL     1      -1.042   1.083  -0.991  0.00  0.00    +0.051 C 
ATOM     24  C   UNL     1      -0.456  -0.192  -0.442  0.00  0.00    -0.011 A 
ATOM     25  C   UNL     1      -0.301  -0.553   0.845  0.00  0.00    +0.028 A 
ATOM     26  C   UNL     1       0.297  -1.849   1.068  0.00  0.00    +0.088 A 
ATOM     27  C   UNL     1       0.644  -2.575  -0.062  0.00  0.00    +0.096 A 
ATOM     28  S   UNL     1       0.190  -1.586  -1.339  0.00  0.00    -0.077 S 
BRANCH  26  29
ATOM     29  C   UNL     1       0.527  -2.371   2.418  0.00  0.00    +0.341 C 
ATOM     30  O   UNL     1       0.943  -3.503   2.570  0.00  0.00    -0.245 OA
BRANCH  29  31
ATOM     31  O   UNL     1       0.276  -1.594   3.492  0.00  0.00    -0.464 OA
ATOM     32  C   UNL     1       0.522  -2.167   4.778  0.00  0.00    +0.280 C 
ENDBRANCH  29  31
ENDBRANCH  26  29
ENDBRANCH   1  27
TORSDOF 3
