REMARK  Name = ZINC13500116
REMARK  14 active torsions:
REMARK  status: ('A' for Active; 'I' for Inactive)
REMARK    1  A    between atoms: C_1  and  C_2
REMARK    2  A    between atoms: C_2  and  C_3
REMARK    3  A    between atoms: C_3  and  C_4
REMARK    4  A    between atoms: C_4  and  C_6
REMARK    5  A    between atoms: C_4  and  N_74
REMARK    6  A    between atoms: N_10  and  C_11
REMARK    7  A    between atoms: C_11  and  C_12
REMARK    8  A    between atoms: C_11  and  C_13
REMARK    9  A    between atoms: C_11  and  C_14
REMARK   10  A    between atoms: C_14  and  C_15
REMARK   11  A    between atoms: C_16  and  C_17
REMARK   12  A    between atoms: C_16  and  N_74
REMARK   13  A    between atoms: C_23  and  C_29
REMARK   14  A    between atoms: C_30  and  N_74
REMARK                            x       y       z     vdW  Elec       q    Type
REMARK                         _______ _______ _______ _____ _____    ______ ____
ROOT
ATOM      1  N   UNL     1       1.059  -2.812   5.984  0.00  0.00    +0.391 N 
ATOM      2  H   UNL     1       0.750  -1.836   5.909  0.00  0.00    -0.080 HD
ENDROOT
BRANCH   1   3
ATOM      3  C   UNL     1       2.093  -3.068   4.959  0.00  0.00    -0.067 C 
ATOM      4  C   UNL     1       2.679  -4.471   5.127  0.00  0.00    -0.015 C 
ATOM      5  C   UNL     1       3.747  -4.710   4.057  0.00  0.00    -0.002 C 
ATOM      6  C   UNL     1       4.859  -3.671   4.207  0.00  0.00    -0.000 C 
ATOM      7  C   UNL     1       4.273  -2.268   4.038  0.00  0.00    -0.002 C 
ATOM      8  C   UNL     1       3.205  -2.029   5.108  0.00  0.00    -0.015 C 
ENDBRANCH   1   3
BRANCH   1   9
ATOM      9  C   UNL     1       1.619  -3.037   7.333  0.00  0.00    +0.003 C 
BRANCH   9  10
ATOM     10  C   UNL     1       1.674  -4.511   7.643  0.00  0.00    +0.139 A 
ATOM     11  N   UNL     1       0.788  -5.415   7.305  0.00  0.00    -0.115 NA
ATOM     12  N   UNL     1       1.192  -6.554   7.749  0.00  0.00    -0.023 NA
ATOM     13  N   UNL     1       2.310  -6.399   8.369  0.00  0.00    -0.043 NA
ATOM     14  N   UNL     1       2.640  -5.153   8.325  0.00  0.00    -0.225 N 
BRANCH  14  15
ATOM     15  C   UNL     1       3.841  -4.550   8.909  0.00  0.00    +0.061 C 
ATOM     16  C   UNL     1       4.755  -4.048   7.789  0.00  0.00    +0.036 C 
ATOM     17  C   UNL     1       3.439  -3.376   9.804  0.00  0.00    +0.036 C 
BRANCH  15  18
ATOM     18  C   UNL     1       4.583  -5.596   9.743  0.00  0.00    +0.026 C 
ATOM     19  C   UNL     1       5.838  -4.967  10.352  0.00  0.00    +0.006 C 
ENDBRANCH  15  18
ENDBRANCH  14  15
ENDBRANCH   9  10
BRANCH   9  20
ATOM     20  C   UNL     1       0.727  -2.333   8.358  0.00  0.00    -0.008 C 
BRANCH  20  22
ATOM     21  C   UNL     1      -0.016  -0.110   9.223  0.00  0.00    +0.004 C 
ATOM     22  C   UNL     1       0.776  -0.822   8.125  0.00  0.00    -0.005 C 
ENDBRANCH  20  22
ENDBRANCH   9  20
ENDBRANCH   1   9
BRANCH   1  23
ATOM     23  C   UNL     1      -0.101  -3.701   5.764  0.00  0.00    -0.036 C 
BRANCH  23  24
ATOM     24  C   UNL     1      -0.887  -3.189   4.585  0.00  0.00    +0.001 A 
ATOM     25  C   UNL     1      -0.835  -3.848   3.401  0.00  0.00    +0.017 A 
ATOM     26  C   UNL     1      -1.611  -3.324   2.275  0.00  0.00    -0.001 A 
ATOM     27  C   UNL     1      -1.597  -3.961   1.029  0.00  0.00    +0.010 A 
ATOM     28  C   UNL     1      -2.331  -3.446  -0.002  0.00  0.00    +0.001 A 
ATOM     29  C   UNL     1      -3.095  -2.302   0.177  0.00  0.00    +0.005 A 
ATOM     30  C   UNL     1      -3.118  -1.655   1.394  0.00  0.00    -0.026 A 
ATOM     31  C   UNL     1      -2.379  -2.159   2.458  0.00  0.00    +0.052 A 
ATOM     32  N   UNL     1      -2.388  -1.536   3.688  0.00  0.00    -0.322 N 
ATOM     33  H   UNL     1      -2.918  -0.733   3.812  0.00  0.00    +0.169 HD
ATOM     34  C   UNL     1      -1.673  -2.024   4.716  0.00  0.00    +0.251 A 
ATOM     35  O   UNL     1      -1.706  -1.447   5.790  0.00  0.00    -0.268 OA
ATOM     36  C   UNL     1      -3.947  -0.408   1.572  0.00  0.00    +0.046 C 
ENDBRANCH  23  24
ENDBRANCH   1  23
TORSDOF 9
