REMARK  Name = ZINC12361008
REMARK  7 active torsions:
REMARK  status: ('A' for Active; 'I' for Inactive)
REMARK    1  A    between atoms: C_1  and  C_2
REMARK    2  A    between atoms: C_5  and  S_8
REMARK    3  A    between atoms: S_8  and  N_11
REMARK    4  A    between atoms: C_15  and  C_17
REMARK    5  A    between atoms: N_19  and  C_20
REMARK    6  A    between atoms: C_21  and  C_31
REMARK    7  A    between atoms: C_26  and  C_30
REMARK                            x       y       z     vdW  Elec       q    Type
REMARK                         _______ _______ _______ _____ _____    ______ ____
ROOT
ATOM      1  C   UNL     1      -3.406   0.330  -3.504  0.00  0.00    +0.236 C 
ATOM      2  O   UNL     1      -4.432  -0.283  -3.300  0.00  0.00    -0.274 OA
ATOM      3  N   UNL     1      -2.663   0.765  -2.468  0.00  0.00    -0.278 N 
ATOM      4  H   UNL     1      -1.842   1.256  -2.632  0.00  0.00    +0.155 HD
ENDROOT
BRANCH   3   5
ATOM      5  C   UNL     1      -3.071   0.511  -1.167  0.00  0.00    +0.084 A 
ATOM      6  C   UNL     1      -2.447   0.874   0.018  0.00  0.00    +0.068 A 
ATOM      7  C   UNL     1      -3.086   0.476   1.262  0.00  0.00    -0.023 A 
ATOM      8  C   UNL     1      -4.243  -0.205   1.121  0.00  0.00    -0.004 A 
ATOM      9  S   UNL     1      -4.483  -0.335  -0.628  0.00  0.00    -0.077 S 
ATOM     10  C   UNL     1      -5.118  -0.734   2.216  0.00  0.00    +0.046 C 
ATOM     11  C   UNL     1      -4.699  -0.073   3.534  0.00  0.00    -0.009 C 
ATOM     12  C   UNL     1      -3.174  -0.141   3.664  0.00  0.00    +0.008 C 
ATOM     13  C   UNL     1      -2.523   0.792   2.642  0.00  0.00    +0.037 C 
ATOM     14  C   UNL     1      -5.347  -0.806   4.711  0.00  0.00    +0.008 C 
BRANCH   6  15
ATOM     15  C   UNL     1      -1.187   1.624   0.017  0.00  0.00    +0.244 C 
ATOM     16  O   UNL     1      -1.204   2.841   0.023  0.00  0.00    -0.270 OA
ATOM     17  N   UNL     1      -0.011   0.966   0.007  0.00  0.00    -0.325 N 
ATOM     18  H   UNL     1       0.002  -0.004   0.002  0.00  0.00    +0.145 HD
ATOM     19  H   UNL     1       0.822   1.462   0.002  0.00  0.00    +0.145 HD
ENDBRANCH   6  15
ENDBRANCH   3   5
BRANCH   1  24
ATOM     20  N   UNL     1      -3.927   0.030  -5.866  0.00  0.00    -0.165 NA
ATOM     21  C   UNL     1      -3.226  -0.947  -6.718  0.00  0.00    +0.110 C 
ATOM     22  C   UNL     1      -2.001  -1.395  -5.883  0.00  0.00    +0.019 C 
ATOM     23  C   UNL     1      -1.599  -0.066  -5.181  0.00  0.00    +0.031 C 
ATOM     24  C   UNL     1      -2.963   0.606  -4.918  0.00  0.00    +0.166 C 
BRANCH  20  25
ATOM     25  S   UNL     1      -5.535   0.414  -5.960  0.00  0.00    +0.062 S 
ATOM     26  O   UNL     1      -6.184  -0.699  -6.560  0.00  0.00    -0.153 OA
ATOM     27  O   UNL     1      -5.908   0.917  -4.685  0.00  0.00    -0.153 OA
BRANCH  25  32
ATOM     28  C   UNL     1      -6.047   5.005  -9.842  0.00  0.00    +0.044 C 
ATOM     29  C   UNL     1      -5.920   3.859  -8.873  0.00  0.00    -0.050 A 
ATOM     30  C   UNL     1      -5.994   2.556  -9.329  0.00  0.00    +0.005 A 
ATOM     31  C   UNL     1      -5.876   1.504  -8.440  0.00  0.00    +0.029 A 
ATOM     32  C   UNL     1      -5.685   1.755  -7.094  0.00  0.00    +0.106 A 
ATOM     33  C   UNL     1      -5.617   3.058  -6.637  0.00  0.00    +0.029 A 
ATOM     34  C   UNL     1      -5.730   4.109  -7.527  0.00  0.00    +0.005 A 
ENDBRANCH  25  32
ENDBRANCH  20  25
ENDBRANCH   1  24
TORSDOF 5
