REMARK  Name = ZINC13843153
REMARK  4 active torsions:
REMARK  status: ('A' for Active; 'I' for Inactive)
REMARK    1  A    between atoms: C_4  and  N_7
REMARK    2  A    between atoms: C_22  and  C_24
REMARK    3  A    between atoms: C_24  and  C_25
REMARK    4  A    between atoms: N_27  and  C_28
REMARK                            x       y       z     vdW  Elec       q    Type
REMARK                         _______ _______ _______ _____ _____    ______ ____
ROOT
ATOM      1  N   UNL     1      -0.031   0.084   2.749  0.00  0.00    -0.269 N 
ATOM      2  C   UNL     1      -0.015   1.210   2.009  0.00  0.00    +0.307 C 
ATOM      3  O   UNL     1       1.031   1.800   1.822  0.00  0.00    -0.252 OA
ATOM      4  N   UNL     1      -1.160   1.685   1.480  0.00  0.00    -0.269 N 
ATOM      5  C   UNL     1      -2.464   1.101   1.815  0.00  0.00    +0.099 C 
ATOM      6  C   UNL     1      -2.320  -0.078   2.773  0.00  0.00    +0.024 C 
ATOM      7  C   UNL     1      -3.714  -0.641   3.070  0.00  0.00    +0.002 C 
ATOM      8  C   UNL     1      -4.598   0.439   3.692  0.00  0.00    +0.002 C 
ATOM      9  C   UNL     1      -4.708   1.641   2.746  0.00  0.00    +0.024 C 
ATOM     10  C   UNL     1      -3.308   2.186   2.486  0.00  0.00    +0.093 C 
ATOM     11  N   UNL     1      -3.330   3.387   1.671  0.00  0.00    -0.309 N 
ATOM     12  C   UNL     1      -2.350   3.713   0.821  0.00  0.00    +0.234 C 
ATOM     13  O   UNL     1      -2.406   4.789   0.264  0.00  0.00    -0.274 OA
ATOM     14  C   UNL     1      -1.166   2.821   0.542  0.00  0.00    +0.172 C 
ATOM     15  H   UNL     1      -0.873  -0.270   3.075  0.00  0.00    +0.156 HD
ATOM     16  H   UNL     1      -4.092   3.983   1.747  0.00  0.00    +0.149 HD
ENDROOT
BRANCH   1  20
ATOM     17  C   UNL     1       3.536  -1.876   3.638  0.00  0.00    +0.000 A 
ATOM     18  C   UNL     1       2.328  -2.447   3.994  0.00  0.00    +0.002 A 
ATOM     19  C   UNL     1       1.144  -1.799   3.701  0.00  0.00    +0.023 A 
ATOM     20  C   UNL     1       1.167  -0.574   3.048  0.00  0.00    +0.035 A 
ATOM     21  C   UNL     1       2.382  -0.006   2.687  0.00  0.00    +0.023 A 
ATOM     22  C   UNL     1       3.563  -0.655   2.988  0.00  0.00    +0.002 A 
ENDBRANCH   1  20
BRANCH  14  23
ATOM     23  C   UNL     1       0.136   3.611   0.692  0.00  0.00    +0.128 C 
BRANCH  23  24
ATOM     24  C   UNL     1       1.257   2.866   0.015  0.00  0.00    +0.219 C 
ATOM     25  O   UNL     1       1.043   1.794  -0.509  0.00  0.00    -0.275 OA
ATOM     26  N   UNL     1       2.498   3.392  -0.008  0.00  0.00    -0.285 N 
ATOM     27  H   UNL     1       2.683   4.218   0.465  0.00  0.00    +0.155 HD
BRANCH  26  28
ATOM     28  C   UNL     1       3.519   2.745  -0.715  0.00  0.00    +0.033 A 
ATOM     29  C   UNL     1       3.228   2.061  -1.887  0.00  0.00    +0.025 A 
ATOM     30  C   UNL     1       4.237   1.427  -2.585  0.00  0.00    +0.022 A 
ATOM     31  C   UNL     1       5.537   1.466  -2.110  0.00  0.00    +0.041 A 
ATOM     32  C   UNL     1       5.829   2.143  -0.939  0.00  0.00    +0.022 A 
ATOM     33  C   UNL     1       4.824   2.782  -0.241  0.00  0.00    +0.025 A 
ATOM     34 CL   UNL     1       6.803   0.662  -2.986  0.00  0.00    -0.084 Cl
ENDBRANCH  26  28
ENDBRANCH  23  24
ENDBRANCH  14  23
TORSDOF 4
