REMARK  Name = ZINC56225399
REMARK  3 active torsions:
REMARK  status: ('A' for Active; 'I' for Inactive)
REMARK    1  A    between atoms: C_1  and  N_2
REMARK    2  A    between atoms: N_2  and  C_3
REMARK    3  A    between atoms: C_13  and  C_15
REMARK                            x       y       z     vdW  Elec       q    Type
REMARK                         _______ _______ _______ _____ _____    ______ ____
ROOT
ATOM      1  C   UNL     1       0.321   1.433  -0.012  0.00  0.00    +0.138 C 
ATOM      2  N   UNL     1       0.164  -0.024  -0.012  0.00  0.00    -0.269 N 
ATOM      3  C   UNL     1      -0.102  -0.673  -1.163  0.00  0.00    +0.267 C 
ATOM      4  O   UNL     1      -0.323  -1.869  -1.150  0.00  0.00    -0.268 OA
ENDROOT
BRANCH   3   5
ATOM      5  C   UNL     1      -0.124   0.067  -2.438  0.00  0.00    +0.106 A 
ATOM      6  C   UNL     1       1.036   0.234  -3.121  0.00  0.00    +0.039 A 
ATOM      7  C   UNL     1       1.025   0.967  -4.387  0.00  0.00    -0.011 A 
ATOM      8  C   UNL     1       2.189   1.168  -5.131  0.00  0.00    +0.009 A 
ATOM      9  C   UNL     1       2.125   1.864  -6.318  0.00  0.00    +0.001 A 
ATOM     10  C   UNL     1       0.916   2.367  -6.781  0.00  0.00    +0.001 A 
ATOM     11  C   UNL     1      -0.246   2.180  -6.062  0.00  0.00    +0.014 A 
ATOM     12  C   UNL     1      -0.206   1.479  -4.859  0.00  0.00    +0.046 A 
ATOM     13  C   UNL     1      -1.415   1.251  -4.056  0.00  0.00    +0.257 A 
ATOM     14  O   UNL     1      -2.492   1.678  -4.432  0.00  0.00    -0.267 OA
ATOM     15  N   UNL     1      -1.324   0.561  -2.902  0.00  0.00    -0.318 N 
ATOM     16  H   UNL     1      -2.127   0.412  -2.379  0.00  0.00    +0.169 HD
ENDBRANCH   3   5
BRANCH   2  17
ATOM     17  C   UNL     1       0.288  -0.739   1.179  0.00  0.00    +0.044 A 
ATOM     18  C   UNL     1      -0.818  -0.975   1.968  0.00  0.00    +0.024 A 
ATOM     19  C   UNL     1      -0.704  -1.687   3.157  0.00  0.00    +0.002 A 
ATOM     20  C   UNL     1       0.499  -2.170   3.575  0.00  0.00    +0.008 A 
ATOM     21  C   UNL     1       1.650  -1.952   2.800  0.00  0.00    -0.016 A 
ATOM     22  C   UNL     1       1.547  -1.233   1.584  0.00  0.00    +0.004 A 
ATOM     23  C   UNL     1       2.697  -1.020   0.809  0.00  0.00    +0.010 A 
ATOM     24  C   UNL     1       3.895  -1.511   1.231  0.00  0.00    +0.001 A 
ATOM     25  C   UNL     1       3.997  -2.224   2.424  0.00  0.00    +0.001 A 
ATOM     26  C   UNL     1       2.905  -2.439   3.207  0.00  0.00    +0.008 A 
ENDBRANCH   2  17
TORSDOF 2
