REMARK  Name = ZINC60356599
REMARK  11 active torsions:
REMARK  status: ('A' for Active; 'I' for Inactive)
REMARK    1  A    between atoms: C_1  and  C_2
REMARK    2  A    between atoms: C_2  and  C_28
REMARK    3  A    between atoms: N_5  and  N_9
REMARK    4  A    between atoms: C_10  and  C_12
REMARK    5  A    between atoms: C_12  and  N_13
REMARK    6  A    between atoms: N_13  and  C_14
REMARK    7  A    between atoms: N_13  and  C_15
REMARK    8  A    between atoms: C_15  and  C_16
REMARK    9  A    between atoms: C_21  and  C_22
REMARK   10  A    between atoms: C_28  and  C_29
REMARK   11  A    between atoms: C_29  and  C_30
REMARK                            x       y       z     vdW  Elec       q    Type
REMARK                         _______ _______ _______ _____ _____    ______ ____
ROOT
ATOM      1  N   UNL     1      -2.508  -1.962   2.463  0.00  0.00    -0.225 N 
ATOM      2  C   UNL     1      -2.588  -3.284   2.215  0.00  0.00    +0.213 C 
ATOM      3  O   UNL     1      -1.661  -3.859   1.685  0.00  0.00    -0.276 OA
ATOM      4  H   UNL     1      -3.249  -1.502   2.887  0.00  0.00    +0.173 HD
ENDROOT
BRANCH   1   9
ATOM      5  C   UNL     1       0.148   1.638   1.239  0.00  0.00    +0.041 C 
ATOM      6  C   UNL     1       0.147   0.118   1.065  0.00  0.00    +0.112 C 
ATOM      7  C   UNL     1      -1.271  -0.417   1.054  0.00  0.00    +0.263 C 
ATOM      8  O   UNL     1      -2.148  -0.151   0.261  0.00  0.00    -0.271 OA
ATOM      9  N   UNL     1      -1.353  -1.252   2.110  0.00  0.00    -0.137 N 
ATOM     10  C   UNL     1      -0.196  -1.317   2.779  0.00  0.00    +0.326 C 
ATOM     11  O   UNL     1      -0.025  -2.003   3.767  0.00  0.00    -0.251 OA
ATOM     12  N   UNL     1       0.756  -0.538   2.235  0.00  0.00    -0.284 N 
ATOM     13  H   UNL     1       1.667  -0.430   2.551  0.00  0.00    +0.151 HD
BRANCH   6  14
ATOM     14  C   UNL     1       0.884  -0.275  -0.217  0.00  0.00    +0.040 C 
BRANCH  14  15
ATOM     15  C   UNL     1       2.357   0.120  -0.101  0.00  0.00    +0.038 C 
BRANCH  15  16
ATOM     16  C   UNL     1       3.083  -0.267  -1.363  0.00  0.00    -0.047 A 
ATOM     17  C   UNL     1       3.661  -1.518  -1.472  0.00  0.00    +0.003 A 
ATOM     18  C   UNL     1       4.327  -1.873  -2.631  0.00  0.00    +0.000 A 
ATOM     19  C   UNL     1       4.414  -0.977  -3.680  0.00  0.00    +0.000 A 
ATOM     20  C   UNL     1       3.835   0.273  -3.572  0.00  0.00    +0.000 A 
ATOM     21  C   UNL     1       3.165   0.627  -2.415  0.00  0.00    +0.003 A 
ENDBRANCH  15  16
ENDBRANCH  14  15
ENDBRANCH   6  14
ENDBRANCH   1   9
BRANCH   2  22
ATOM     22  C   UNL     1      -3.830  -4.048   2.595  0.00  0.00    +0.020 C 
BRANCH  22  23
ATOM     23  N   UNL     1      -3.670  -5.460   2.222  0.00  0.00    +0.386 N 
ATOM     24  C   UNL     1      -3.577  -5.572   0.760  0.00  0.00    -0.095 C 
ATOM     25  H   UNL     1      -2.829  -5.825   2.642  0.00  0.00    -0.081 HD
BRANCH  23  26
ATOM     26  C   UNL     1      -4.829  -6.227   2.699  0.00  0.00    -0.042 C 
BRANCH  26  27
ATOM     27  C   UNL     1      -4.607  -7.692   2.428  0.00  0.00    -0.056 A 
ATOM     28  C   UNL     1      -5.245  -8.303   1.366  0.00  0.00    +0.002 A 
ATOM     29  C   UNL     1      -5.042  -9.648   1.115  0.00  0.00    +0.000 A 
ATOM     30  C   UNL     1      -4.201 -10.389   1.926  0.00  0.00    +0.001 A 
ATOM     31  C   UNL     1      -3.558  -9.789   2.990  0.00  0.00    +0.009 A 
ATOM     32  C   UNL     1      -3.755  -8.432   3.244  0.00  0.00    -0.017 A 
BRANCH  32  33
ATOM     33  C   UNL     1      -3.063  -7.781   4.383  0.00  0.00    -0.018 A 
ATOM     34  C   UNL     1      -1.672  -7.811   4.467  0.00  0.00    +0.008 A 
ATOM     35  C   UNL     1      -1.034  -7.203   5.528  0.00  0.00    +0.001 A 
ATOM     36  C   UNL     1      -1.772  -6.564   6.508  0.00  0.00    +0.000 A 
ATOM     37  C   UNL     1      -3.152  -6.531   6.431  0.00  0.00    +0.001 A 
ATOM     38  C   UNL     1      -3.801  -7.131   5.370  0.00  0.00    +0.008 A 
ENDBRANCH  32  33
ENDBRANCH  26  27
ENDBRANCH  23  26
ENDBRANCH  22  23
ENDBRANCH   2  22
TORSDOF 9
