REMARK  Name = ZINC08598618
REMARK  6 active torsions:
REMARK  status: ('A' for Active; 'I' for Inactive)
REMARK    1  A    between atoms: C_1  and  O_2
REMARK    2  A    between atoms: O_2  and  C_3
REMARK    3  A    between atoms: C_8  and  N_9
REMARK    4  A    between atoms: C_10  and  C_12
REMARK    5  A    between atoms: N_17  and  S_19
REMARK    6  A    between atoms: S_19  and  C_22
REMARK                            x       y       z     vdW  Elec       q    Type
REMARK                         _______ _______ _______ _____ _____    ______ ____
ROOT
ATOM      1  C   UNL     1      -0.293  -4.935  -1.062  0.00  0.00    +0.091 C 
ATOM      2  C   UNL     1       0.388  -4.495  -2.360  0.00  0.00    +0.015 C 
ATOM      3  C   UNL     1      -0.176  -5.301  -3.533  0.00  0.00    +0.018 C 
ATOM      4  C   UNL     1       0.117  -6.788  -3.313  0.00  0.00    +0.109 C 
ATOM      5  N   UNL     1      -0.409  -7.185  -2.000  0.00  0.00    -0.176 NA
ATOM      6  C   UNL     1      -0.002  -6.418  -0.814  0.00  0.00    +0.122 C 
ENDROOT
BRANCH   1   8
ATOM      7  N   UNL     1       0.097  -2.778   0.084  0.00  0.00    -0.282 N 
ATOM      8  C   UNL     1       0.239  -4.118   0.087  0.00  0.00    +0.222 C 
ATOM      9  O   UNL     1       0.796  -4.667   1.014  0.00  0.00    -0.275 OA
ATOM     10  H   UNL     1      -0.417  -2.346  -0.616  0.00  0.00    +0.155 HD
BRANCH   7  16
ATOM     11  C   UNL     1       0.172  -0.757   1.415  0.00  0.00    +0.141 A 
ATOM     12  C   UNL     1       0.761  -0.003   2.417  0.00  0.00    +0.049 A 
ATOM     13  C   UNL     1       1.865  -0.489   3.091  0.00  0.00    +0.024 A 
ATOM     14  C   UNL     1       2.386  -1.729   2.768  0.00  0.00    +0.043 A 
ATOM     15  C   UNL     1       1.804  -2.488   1.769  0.00  0.00    +0.047 A 
ATOM     16  C   UNL     1       0.692  -2.008   1.093  0.00  0.00    +0.077 A 
ATOM     17 CL   UNL     1       3.774  -2.334   3.618  0.00  0.00    -0.083 Cl
BRANCH  11  19
ATOM     18  C   UNL     1      -1.394   1.011   1.135  0.00  0.00    +0.277 C 
ATOM     19  O   UNL     1      -0.915  -0.280   0.751  0.00  0.00    -0.493 OA
ENDBRANCH  11  19
ENDBRANCH   7  16
ENDBRANCH   1   8
BRANCH   5  20
ATOM     20  S   UNL     1      -1.441  -8.472  -1.858  0.00  0.00    +0.061 S 
ATOM     21  O   UNL     1      -2.183  -8.268  -0.663  0.00  0.00    -0.153 OA
ATOM     22  O   UNL     1      -2.066  -8.632  -3.124  0.00  0.00    -0.153 OA
BRANCH  20  23
ATOM     23  C   UNL     1      -0.453  -9.907  -1.598  0.00  0.00    +0.106 A 
ATOM     24  C   UNL     1      -0.001 -10.647  -2.676  0.00  0.00    +0.030 A 
ATOM     25  C   UNL     1       0.772 -11.760  -2.457  0.00  0.00    +0.025 A 
ATOM     26  C   UNL     1       1.113 -12.173  -1.157  0.00  0.00    +0.037 A 
ATOM     27  C   UNL     1       0.656 -11.434  -0.087  0.00  0.00    -0.024 A 
ATOM     28  C   UNL     1      -0.119 -10.298  -0.322  0.00  0.00    +0.034 A 
ATOM     29  C   UNL     1       0.919 -11.747   1.351  0.00  0.00    +0.037 C 
ATOM     30  C   UNL     1       0.965 -13.202   1.702  0.00  0.00    +0.014 C 
ATOM     31  C   UNL     1       2.258 -13.874   1.310  0.00  0.00    +0.096 C 
ATOM     32  C   UNL     1       2.352 -14.084  -0.159  0.00  0.00    +0.217 C 
ATOM     33  O   UNL     1       2.904 -15.100  -0.525  0.00  0.00    -0.275 OA
ATOM     34  N   UNL     1       1.906 -13.295  -1.095  0.00  0.00    -0.285 N 
ATOM     35  H   UNL     1       2.211 -13.571  -1.974  0.00  0.00    +0.155 HD
ENDBRANCH  20  23
ENDBRANCH   5  20
TORSDOF 5
