REMARK  Name = ZINC35519101
REMARK  7 active torsions:
REMARK  status: ('A' for Active; 'I' for Inactive)
REMARK    1  A    between atoms: C_3  and  C_11
REMARK    2  A    between atoms: C_5  and  C_7
REMARK    3  A    between atoms: C_14  and  C_16
REMARK    4  A    between atoms: N_20  and  N_24
REMARK    5  A    between atoms: C_25  and  C_27
REMARK    6  A    between atoms: C_27  and  C_28
REMARK    7  A    between atoms: C_28  and  N_29
REMARK                            x       y       z     vdW  Elec       q    Type
REMARK                         _______ _______ _______ _____ _____    ______ ____
ROOT
ATOM      1  C   UNL     1       7.210   2.427  -0.064  0.00  0.00    +0.066 C 
ATOM      2  C   UNL     1       7.742   1.173   0.021  0.00  0.00    +0.082 C 
ATOM      3  C   UNL     1       7.066  -0.134   0.034  0.00  0.00    +0.275 C 
ATOM      4  O   UNL     1       5.854  -0.227  -0.038  0.00  0.00    -0.267 OA
ATOM      5  N   UNL     1       7.840  -1.203   0.126  0.00  0.00    -0.170 N 
ATOM      6  C   UNL     1       9.182  -1.096   0.205  0.00  0.00    +0.138 C 
ATOM      7  S   UNL     1      10.344  -2.347   0.328  0.00  0.00    -0.026 S 
ATOM      8  S   UNL     1       9.453   0.668   0.140  0.00  0.00    -0.059 S 
ENDROOT
BRANCH   1  12
ATOM      9  C   UNL     1       3.714   2.137  -0.696  0.00  0.00    +0.136 A 
ATOM     10  C   UNL     1       3.803   3.494  -0.561  0.00  0.00    +0.050 A 
ATOM     11  C   UNL     1       5.142   3.795  -0.302  0.00  0.00    +0.050 A 
ATOM     12  C   UNL     1       5.826   2.592  -0.289  0.00  0.00    +0.130 A 
ATOM     13  O   UNL     1       4.937   1.604  -0.524  0.00  0.00    -0.455 OA
BRANCH   9  16
ATOM     14  C   UNL     1       0.113   1.339  -1.398  0.00  0.00    +0.001 A 
ATOM     15  C   UNL     1       1.264   2.053  -1.135  0.00  0.00    +0.011 A 
ATOM     16  C   UNL     1       2.478   1.380  -0.977  0.00  0.00    +0.018 A 
ATOM     17  C   UNL     1       2.518  -0.012  -1.086  0.00  0.00    +0.024 A 
ATOM     18  C   UNL     1       1.359  -0.713  -1.349  0.00  0.00    +0.055 A 
ATOM     19  C   UNL     1       0.160  -0.040  -1.505  0.00  0.00    +0.012 A 
BRANCH  18  20
ATOM     20  C   UNL     1       1.400  -2.214  -1.468  0.00  0.00    +0.417 C 
ATOM     21  F   UNL     1       1.183  -2.788  -0.210  0.00  0.00    -0.166 F 
ATOM     22  F   UNL     1       0.402  -2.639  -2.352  0.00  0.00    -0.166 F 
ATOM     23  F   UNL     1       2.651  -2.611  -1.952  0.00  0.00    -0.166 F 
ENDBRANCH  18  20
ENDBRANCH   9  16
ENDBRANCH   1  12
BRANCH   5  24
ATOM     24  N   UNL     1       7.252  -2.475   0.143  0.00  0.00    -0.226 N 
ATOM     25  C   UNL     1       7.312  -3.259  -0.951  0.00  0.00    +0.228 C 
ATOM     26  O   UNL     1       7.875  -2.865  -1.950  0.00  0.00    -0.274 OA
ATOM     27  H   UNL     1       6.802  -2.790   0.942  0.00  0.00    +0.173 HD
BRANCH  25  28
ATOM     28  C   UNL     1       6.680  -4.627  -0.933  0.00  0.00    +0.079 C 
BRANCH  28  29
ATOM     29  C   UNL     1       6.889  -5.304  -2.289  0.00  0.00    -0.070 C 
BRANCH  29  30
ATOM     30  N   UNL     1       6.273  -6.637  -2.271  0.00  0.00    +0.380 N 
ATOM     31  C   UNL     1       6.968  -7.483  -1.294  0.00  0.00    -0.079 C 
ATOM     32  C   UNL     1       6.280  -8.847  -1.213  0.00  0.00    -0.019 C 
ATOM     33  C   UNL     1       6.320  -9.516  -2.590  0.00  0.00    -0.004 C 
ATOM     34  C   UNL     1       5.658  -8.592  -3.615  0.00  0.00    -0.019 C 
ATOM     35  C   UNL     1       6.370  -7.237  -3.607  0.00  0.00    -0.079 C 
ATOM     36  H   UNL     1       5.302  -6.554  -2.010  0.00  0.00    -0.082 HD
ENDBRANCH  29  30
ENDBRANCH  28  29
ENDBRANCH  25  28
ENDBRANCH   5  24
TORSDOF 7
