REMARK  Name = ZINC04279826
REMARK  4 active torsions:
REMARK  status: ('A' for Active; 'I' for Inactive)
REMARK    1  A    between atoms: C_1  and  C_2
REMARK    2  A    between atoms: C_3  and  C_23
REMARK    3  A    between atoms: C_4  and  C_18
REMARK    4  A    between atoms: C_10  and  C_12
REMARK                            x       y       z     vdW  Elec       q    Type
REMARK                         _______ _______ _______ _____ _____    ______ ____
ROOT
ATOM      1  C   UNL     1       0.540   1.415   0.153  0.00  0.00    +0.064 C 
ATOM      2  C   UNL     1       0.289  -0.064   0.009  0.00  0.00    +0.026 C 
ATOM      3  C   UNL     1      -0.999  -0.514  -0.060  0.00  0.00    +0.060 C 
ATOM      4  C   UNL     1      -1.203  -2.012  -0.204  0.00  0.00    +0.170 C 
ATOM      5  N   UNL     1       0.015  -2.827  -0.254  0.00  0.00    -0.208 N 
ATOM      6  C   UNL     1       1.238  -2.203  -0.170  0.00  0.00    +0.215 C 
ATOM      7  N   UNL     1       1.325  -0.888  -0.051  0.00  0.00    -0.330 N 
ATOM      8  N   UNL     1       2.181  -3.157  -0.239  0.00  0.00    -0.198 NA
ATOM      9  C   UNL     1       1.624  -4.344  -0.361  0.00  0.00    +0.146 C 
ATOM     10  N   UNL     1       0.263  -4.197  -0.377  0.00  0.00    -0.244 N 
ATOM     11  H   UNL     1       2.212  -0.499   0.000  0.00  0.00    +0.168 HD
ATOM     12  H   UNL     1      -0.398  -4.903  -0.456  0.00  0.00    +0.172 HD
ENDROOT
BRANCH   9  13
ATOM     13  C   UNL     1       2.350  -5.627  -0.466  0.00  0.00    +0.019 A 
ATOM     14  C   UNL     1       1.659  -6.837  -0.600  0.00  0.00    +0.031 A 
ATOM     15  C   UNL     1       2.378  -8.012  -0.695  0.00  0.00    +0.111 A 
ATOM     16  N   UNL     1       3.696  -8.004  -0.660  0.00  0.00    -0.263 NA
ATOM     17  C   UNL     1       4.387  -6.888  -0.535  0.00  0.00    +0.111 A 
ATOM     18  C   UNL     1       3.749  -5.666  -0.440  0.00  0.00    +0.031 A 
ENDBRANCH   9  13
BRANCH   4  19
ATOM     19  C   UNL     1      -1.982  -2.260  -1.470  0.00  0.00    +0.017 A 
ATOM     20  C   UNL     1      -1.557  -2.212  -2.757  0.00  0.00    +0.013 A 
ATOM     21  C   UNL     1      -2.458  -2.480  -3.770  0.00  0.00    +0.008 A 
ATOM     22  C   UNL     1      -3.740  -2.782  -3.448  0.00  0.00    +0.045 A 
ATOM     23  S   UNL     1      -3.701  -2.700  -1.665  0.00  0.00    -0.099 S 
ENDBRANCH   4  19
BRANCH   3  24
ATOM     24  C   UNL     1      -2.090   0.373  -0.000  0.00  0.00    +0.241 C 
ATOM     25  O   UNL     1      -1.897   1.577   0.011  0.00  0.00    -0.271 OA
ATOM     26  N   UNL     1      -3.348  -0.108   0.045  0.00  0.00    -0.325 N 
ATOM     27  H   UNL     1      -3.499  -1.064   0.107  0.00  0.00    +0.145 HD
ATOM     28  H   UNL     1      -4.102   0.501   0.015  0.00  0.00    +0.145 HD
ENDBRANCH   3  24
TORSDOF 3
