REMARK  Name = ZINC40841474
REMARK  5 active torsions:
REMARK  status: ('A' for Active; 'I' for Inactive)
REMARK    1  A    between atoms: C_1  and  C_2
REMARK    2  A    between atoms: C_5  and  C_30
REMARK    3  A    between atoms: N_13  and  C_21
REMARK    4  A    between atoms: C_21  and  C_22
REMARK    5  A    between atoms: C_24  and  C_27
REMARK                            x       y       z     vdW  Elec       q    Type
REMARK                         _______ _______ _______ _____ _____    ______ ____
ROOT
ATOM      1  C   UNL     1      -3.027  -2.559   2.033  0.00  0.00    +0.009 C 
ATOM      2  C   UNL     1      -1.608  -2.028   2.239  0.00  0.00    +0.004 C 
ATOM      3  C   UNL     1      -1.615  -0.500   2.147  0.00  0.00    +0.009 C 
ATOM      4  C   UNL     1      -0.201   0.034   2.385  0.00  0.00    +0.004 C 
ATOM      5  C   UNL     1       0.736  -0.511   1.303  0.00  0.00    +0.110 C 
ATOM      6  N   UNL     1       0.639  -1.977   1.288  0.00  0.00    -0.310 N 
ATOM      7  C   UNL     1      -0.686  -2.597   1.156  0.00  0.00    +0.110 C 
ATOM      8  C   UNL     1       1.775  -2.760   1.398  0.00  0.00    +0.188 A 
ATOM      9  C   UNL     1       3.109  -2.131   1.366  0.00  0.00    +0.292 A 
ATOM     10  O   UNL     1       3.220  -0.925   1.244  0.00  0.00    -0.264 OA
ATOM     11  N   UNL     1       4.206  -2.911   1.474  0.00  0.00    -0.295 N 
ATOM     12  C   UNL     1       4.047  -4.278   1.612  0.00  0.00    +0.071 A 
ATOM     13  C   UNL     1       5.161  -5.105   1.726  0.00  0.00    +0.028 A 
ATOM     14  C   UNL     1       4.994  -6.466   1.863  0.00  0.00    +0.002 A 
ATOM     15  C   UNL     1       3.721  -7.020   1.889  0.00  0.00    +0.002 A 
ATOM     16  C   UNL     1       2.616  -6.228   1.779  0.00  0.00    +0.030 A 
ATOM     17  C   UNL     1       2.759  -4.840   1.638  0.00  0.00    +0.090 A 
ATOM     18  N   UNL     1       1.665  -4.056   1.535  0.00  0.00    -0.225 NA
ATOM     19  C   UNL     1      -0.216   1.563   2.326  0.00  0.00    +0.009 C 
ENDROOT
BRANCH  11  20
ATOM     20  C   UNL     1       5.545  -2.318   1.445  0.00  0.00    +0.224 C 
BRANCH  20  21
ATOM     21  C   UNL     1       5.970  -1.968   2.848  0.00  0.00    +0.247 A 
ATOM     22  N   UNL     1       6.617  -2.748   3.668  0.00  0.00    -0.194 NA
ATOM     23  C   UNL     1       6.831  -2.119   4.829  0.00  0.00    +0.175 A 
ATOM     24  N   UNL     1       6.319  -0.924   4.761  0.00  0.00    -0.061 NA
ATOM     25  O   UNL     1       5.752  -0.800   3.465  0.00  0.00    -0.336 OA
BRANCH  23  26
ATOM     26  C   UNL     1       7.547  -2.699   6.022  0.00  0.00    +0.060 C 
ATOM     27  C   UNL     1       7.513  -1.897   7.324  0.00  0.00    +0.012 C 
ATOM     28  C   UNL     1       8.806  -1.979   6.509  0.00  0.00    +0.012 C 
ENDBRANCH  23  26
ENDBRANCH  20  21
ENDBRANCH  11  20
TORSDOF 3
