REMARK  Name = ZINC39637279
REMARK  8 active torsions:
REMARK  status: ('A' for Active; 'I' for Inactive)
REMARK    1  A    between atoms: C_1  and  C_2
REMARK    2  A    between atoms: C_7  and  N_12
REMARK    3  A    between atoms: C_9  and  C_11
REMARK    4  A    between atoms: C_13  and  C_15
REMARK    5  A    between atoms: C_26  and  C_28
REMARK    6  A    between atoms: C_28  and  C_30
REMARK    7  A    between atoms: C_28  and  O_31
REMARK    8  A    between atoms: O_31  and  C_32
REMARK                            x       y       z     vdW  Elec       q    Type
REMARK                         _______ _______ _______ _____ _____    ______ ____
ROOT
ATOM      1  C   UNL     1       1.237  -0.364   6.044  0.00  0.00    +0.100 C 
ATOM      2  C   UNL     1       0.702  -1.725   6.544  0.00  0.00    +0.121 C 
ATOM      3  N   UNL     1       0.760  -1.629   8.022  0.00  0.00    -0.297 N 
ATOM      4  C   UNL     1       0.338  -0.239   8.318  0.00  0.00    +0.115 C 
ATOM      5  C   UNL     1       0.996   0.608   7.211  0.00  0.00    -0.004 C 
ATOM      6  C   UNL     1       2.321   1.182   7.703  0.00  0.00    -0.010 C 
ATOM      7  C   UNL     1       2.051   2.189   8.825  0.00  0.00    -0.082 C 
ATOM      8  N   UNL     1       1.185   3.263   8.323  0.00  0.00    +0.379 N 
ATOM      9  C   UNL     1      -0.121   2.715   7.938  0.00  0.00    -0.082 C 
ATOM     10  C   UNL     1       0.058   1.731   6.779  0.00  0.00    -0.010 C 
ATOM     11  C   UNL     1       1.115  -2.590   8.898  0.00  0.00    +0.256 C 
ATOM     12  O   UNL     1       1.521  -3.659   8.495  0.00  0.00    -0.272 OA
ATOM     13  H   UNL     1       1.058   3.956   9.046  0.00  0.00    -0.086 HD
ATOM     14  H   UNL     1       1.618   3.694   7.520  0.00  0.00    -0.086 HD
ENDROOT
BRANCH   1  16
ATOM     15  N   UNL     1       1.038   0.950   3.958  0.00  0.00    -0.312 N 
ATOM     16  C   UNL     1       0.475   0.083   4.823  0.00  0.00    +0.218 C 
ATOM     17  O   UNL     1      -0.644  -0.338   4.619  0.00  0.00    -0.275 OA
ATOM     18  H   UNL     1       1.933   1.286   4.121  0.00  0.00    +0.149 HD
BRANCH  15  24
ATOM     19  C   UNL     1      -1.444   3.311   1.415  0.00  0.00    +0.008 C 
ATOM     20  C   UNL     1       0.044   3.202   1.076  0.00  0.00    -0.009 C 
ATOM     21  C   UNL     1       0.238   2.182  -0.048  0.00  0.00    +0.003 C 
ATOM     22  C   UNL     1      -0.282   0.817   0.407  0.00  0.00    +0.002 C 
ATOM     23  C   UNL     1       0.491   0.364   1.647  0.00  0.00    +0.022 C 
ATOM     24  C   UNL     1       0.297   1.384   2.771  0.00  0.00    +0.076 C 
ATOM     25  C   UNL     1       0.818   2.749   2.316  0.00  0.00    +0.009 C 
ATOM     26  C   UNL     1       0.624   3.769   3.439  0.00  0.00    +0.009 C 
ENDBRANCH  15  24
ENDBRANCH   1  16
BRANCH  11  27
ATOM     27  C   UNL     1       1.006  -2.335  10.380  0.00  0.00    +0.256 C 
ATOM     28  C   UNL     1      -0.467  -2.186  10.765  0.00  0.00    +0.062 C 
BRANCH  27  29
ATOM     29  O   UNL     1       1.577  -3.433  11.095  0.00  0.00    -0.480 OA
BRANCH  29  30
ATOM     30  C   UNL     1       2.036  -3.180  12.348  0.00  0.00    +0.122 A 
ATOM     31  C   UNL     1       2.711  -4.167  13.053  0.00  0.00    +0.045 A 
ATOM     32  C   UNL     1       3.178  -3.908  14.327  0.00  0.00    +0.004 A 
ATOM     33  C   UNL     1       2.973  -2.667  14.900  0.00  0.00    +0.000 A 
ATOM     34  C   UNL     1       2.301  -1.682  14.200  0.00  0.00    +0.004 A 
ATOM     35  C   UNL     1       1.837  -1.934  12.924  0.00  0.00    +0.045 A 
ENDBRANCH  29  30
ENDBRANCH  27  29
ENDBRANCH  11  27
TORSDOF 5
