REMARK  Name = ZINC04755668
REMARK  7 active torsions:
REMARK  status: ('A' for Active; 'I' for Inactive)
REMARK    1  A    between atoms: C_4  and  O_7
REMARK    2  A    between atoms: O_7  and  C_8
REMARK    3  A    between atoms: C_9  and  C_17
REMARK    4  A    between atoms: C_12  and  C_13
REMARK    5  A    between atoms: C_20  and  O_25
REMARK    6  A    between atoms: C_21  and  O_24
REMARK    7  A    between atoms: C_22  and  O_23
REMARK                            x       y       z     vdW  Elec       q    Type
REMARK                         _______ _______ _______ _____ _____    ______ ____
ROOT
ATOM      1  C   UNL     1       3.558  -1.992  -0.043  0.00  0.00    +0.185 A 
ATOM      2  C   UNL     1       3.547  -2.813   1.066  0.00  0.00    +0.112 A 
ATOM      3  N   UNL     1       3.518  -4.102   0.612  0.00  0.00    -0.273 N 
ATOM      4  N   UNL     1       3.511  -4.062  -0.788  0.00  0.00    -0.165 NA
ATOM      5  C   UNL     1       3.529  -2.812  -1.176  0.00  0.00    +0.208 A 
ATOM      6  H   UNL     1       3.505  -4.901   1.161  0.00  0.00    +0.189 HD
ENDROOT
BRANCH   2   7
ATOM      7  C   UNL     1       3.563  -2.381   2.479  0.00  0.00    +0.049 A 
ATOM      8  C   UNL     1       4.658  -2.681   3.291  0.00  0.00    +0.017 A 
ATOM      9  C   UNL     1       4.672  -2.277   4.609  0.00  0.00    +0.050 A 
ATOM     10  C   UNL     1       3.599  -1.571   5.135  0.00  0.00    +0.162 A 
ATOM     11  C   UNL     1       2.503  -1.266   4.336  0.00  0.00    +0.201 A 
ATOM     12  C   UNL     1       2.483  -1.663   3.006  0.00  0.00    +0.171 A 
BRANCH  12  13
ATOM     13  O   UNL     1       1.415  -1.362   2.220  0.00  0.00    -0.503 OA
ATOM     14  H   UNL     1       0.719  -2.033   2.229  0.00  0.00    +0.292 HD
ENDBRANCH  12  13
BRANCH  11  15
ATOM     15  O   UNL     1       1.453  -0.574   4.855  0.00  0.00    -0.501 OA
ATOM     16  H   UNL     1       1.533   0.386   4.768  0.00  0.00    +0.292 HD
ENDBRANCH  11  15
BRANCH  10  17
ATOM     17  O   UNL     1       3.619  -1.176   6.436  0.00  0.00    -0.503 OA
ATOM     18  H   UNL     1       4.009  -0.302   6.576  0.00  0.00    +0.292 HD
ENDBRANCH  10  17
ENDBRANCH   2   7
BRANCH   5  19
ATOM     19  C   UNL     1       3.524  -2.336  -2.605  0.00  0.00    +0.439 C 
ATOM     20  F   UNL     1       4.841  -2.215  -3.061  0.00  0.00    -0.164 F 
ATOM     21  F   UNL     1       2.838  -3.258  -3.402  0.00  0.00    -0.164 F 
ATOM     22  F   UNL     1       2.889  -1.091  -2.680  0.00  0.00    -0.164 F 
ENDBRANCH   5  19
BRANCH   1  23
ATOM     23  O   UNL     1       3.585  -0.631  -0.036  0.00  0.00    -0.452 OA
BRANCH  23  27
ATOM     24  C   UNL     1      -0.017   1.379   0.010  0.00  0.00    +0.000 A 
ATOM     25  C   UNL     1       1.170   2.089   0.002  0.00  0.00    +0.004 A 
ATOM     26  C   UNL     1       2.377   1.418  -0.013  0.00  0.00    +0.046 A 
ATOM     27  C   UNL     1       2.399   0.030  -0.021  0.00  0.00    +0.129 A 
ATOM     28  C   UNL     1       1.207  -0.680  -0.013  0.00  0.00    +0.046 A 
ATOM     29  C   UNL     1       0.002  -0.004   0.002  0.00  0.00    +0.004 A 
ENDBRANCH  23  27
ENDBRANCH   1  23
TORSDOF 7
