REMARK  Name = ZINC09411220
REMARK  3 active torsions:
REMARK  status: ('A' for Active; 'I' for Inactive)
REMARK    1  A    between atoms: C_1  and  C_2
REMARK    2  A    between atoms: N_23  and  C_26
REMARK    3  A    between atoms: C_29  and  N_33
REMARK                            x       y       z     vdW  Elec       q    Type
REMARK                         _______ _______ _______ _____ _____    ______ ____
ROOT
ATOM      1  C   UNL     1       3.840   2.046  -0.314  0.00  0.00    +0.047 C 
ATOM      2  C   UNL     1       2.524   1.315  -0.246  0.00  0.00    -0.011 A 
ATOM      3  C   UNL     1       1.341   2.028  -0.232  0.00  0.00    +0.046 A 
ATOM      4  C   UNL     1       0.128   1.365  -0.170  0.00  0.00    +0.020 A 
ATOM      5  C   UNL     1       0.100  -0.018  -0.122  0.00  0.00    +0.006 A 
ATOM      6  C   UNL     1       1.277  -0.731  -0.136  0.00  0.00    -0.027 A 
ATOM      7  C   UNL     1       2.504  -0.076  -0.197  0.00  0.00    +0.040 A 
ATOM      8  N   UNL     1       3.547  -1.004  -0.199  0.00  0.00    -0.286 N 
ATOM      9  C   UNL     1       3.099  -2.273  -0.139  0.00  0.00    +0.212 C 
ATOM     10  O   UNL     1       3.775  -3.280  -0.123  0.00  0.00    -0.277 OA
ATOM     11  C   UNL     1       1.596  -2.199  -0.097  0.00  0.00    +0.053 C 
ATOM     12  C   UNL     1       1.038  -2.861   1.167  0.00  0.00    +0.089 C 
ATOM     13  C   UNL     1       0.599  -4.279   0.708  0.00  0.00    +0.074 C 
ATOM     14  C   UNL     1       0.940  -4.338  -0.793  0.00  0.00    -0.054 C 
ATOM     15  C   UNL     1      -0.407  -2.483  -1.418  0.00  0.00    -0.076 C 
ATOM     16  C   UNL     1      -1.260  -3.745  -1.628  0.00  0.00    -0.020 C 
ATOM     17  C   UNL     1      -0.257  -4.938  -1.562  0.00  0.00    -0.016 C 
ATOM     18  C   UNL     1       1.548  -5.190   1.483  0.00  0.00    +0.228 C 
ATOM     19  O   UNL     1       1.559  -6.401   1.422  0.00  0.00    -0.275 OA
ATOM     20  N   UNL     1       2.360  -4.447   2.244  0.00  0.00    -0.209 N 
ATOM     21  C   UNL     1       2.161  -3.128   2.144  0.00  0.00    +0.229 C 
ATOM     22  O   UNL     1       2.785  -2.278   2.743  0.00  0.00    -0.275 OA
ATOM     23 CL   UNL     1       1.376   3.762  -0.293  0.00  0.00    -0.083 Cl
ATOM     24  H   UNL     1       4.486  -0.763  -0.238  0.00  0.00    +0.155 HD
ATOM     25  N   UNL     1       0.983  -2.943  -1.194  0.00  0.00    +0.395 N 
ATOM     26  H   UNL     1       1.534  -2.829  -2.053  0.00  0.00    -0.079 HD
ENDROOT
BRANCH  20  27
ATOM     27  C   UNL     1       3.339  -5.006   3.078  0.00  0.00    +0.062 A 
ATOM     28  C   UNL     1       4.610  -5.264   2.582  0.00  0.00    +0.027 A 
ATOM     29  C   UNL     1       5.574  -5.809   3.408  0.00  0.00    +0.034 A 
ATOM     30  C   UNL     1       5.272  -6.108   4.724  0.00  0.00    +0.128 A 
ATOM     31  C   UNL     1       4.006  -5.857   5.220  0.00  0.00    +0.054 A 
ATOM     32  C   UNL     1       3.038  -5.306   4.400  0.00  0.00    +0.065 A 
ATOM     33 CL   UNL     1       1.448  -4.991   5.023  0.00  0.00    -0.082 Cl
BRANCH  30  34
ATOM     34  N   UNL     1       6.306  -6.697   5.604  0.00  0.00    +0.056 N 
ATOM     35  O   UNL     1       6.041  -6.961   6.763  0.00  0.00    -0.126 OA
ATOM     36  O   UNL     1       7.422  -6.919   5.168  0.00  0.00    -0.126 OA
ENDBRANCH  30  34
ENDBRANCH  20  27
TORSDOF 2
