REMARK  Name = ZINC50638650
REMARK  3 active torsions:
REMARK  status: ('A' for Active; 'I' for Inactive)
REMARK    1  A    between atoms: C_1  and  C_2
REMARK    2  A    between atoms: N_7  and  S_9
REMARK    3  A    between atoms: S_9  and  C_12
REMARK                            x       y       z     vdW  Elec       q    Type
REMARK                         _______ _______ _______ _____ _____    ______ ____
ROOT
ATOM      1  S   UNL     1       0.350  -2.942   2.392  0.00  0.00    +0.064 S 
ATOM      2  O   UNL     1      -0.630  -2.199   3.104  0.00  0.00    -0.153 OA
ATOM      3  O   UNL     1       0.077  -4.216   1.825  0.00  0.00    -0.153 OA
ENDROOT
BRANCH   1   4
ATOM      4  C   UNL     1       1.712  -3.159   3.488  0.00  0.00    +0.142 A 
ATOM      5  C   UNL     1       2.601  -4.208   3.314  0.00  0.00    +0.144 A 
ATOM      6  N   UNL     1       3.613  -4.344   4.155  0.00  0.00    -0.221 NA
ATOM      7  C   UNL     1       3.781  -3.490   5.155  0.00  0.00    +0.213 A 
ATOM      8  N   UNL     1       2.949  -2.478   5.350  0.00  0.00    -0.221 NA
ATOM      9  C   UNL     1       1.921  -2.282   4.541  0.00  0.00    +0.144 A 
ATOM     10  N   UNL     1       4.850  -3.662   6.016  0.00  0.00    -0.327 N 
ATOM     11  H   UNL     1       5.466  -4.399   5.884  0.00  0.00    +0.145 HD
ATOM     12  H   UNL     1       4.984  -3.044   6.752  0.00  0.00    +0.145 HD
ENDBRANCH   1   4
BRANCH   1  18
ATOM     13  C   UNL     1      -0.019   1.526   0.010  0.00  0.00    +0.009 C 
ATOM     14  C   UNL     1       0.002  -0.004   0.002  0.00  0.00    +0.002 C 
ATOM     15  C   UNL     1       0.720  -0.498  -1.256  0.00  0.00    +0.006 C 
ATOM     16  C   UNL     1       0.712  -2.028  -1.282  0.00  0.00    +0.017 C 
ATOM     17  C   UNL     1       1.463  -2.559  -0.057  0.00  0.00    +0.109 C 
ATOM     18  N   UNL     1       0.869  -1.973   1.153  0.00  0.00    -0.176 NA
ATOM     19  C   UNL     1       0.744  -0.512   1.242  0.00  0.00    +0.112 C 
ENDBRANCH   1  18
TORSDOF 2
