REMARK  Name = ZINC38650899
REMARK  11 active torsions:
REMARK  status: ('A' for Active; 'I' for Inactive)
REMARK    1  A    between atoms: C_1  and  O_2
REMARK    2  A    between atoms: O_2  and  C_3
REMARK    3  A    between atoms: C_6  and  C_9
REMARK    4  A    between atoms: C_9  and  O_11
REMARK    5  A    between atoms: O_11  and  C_12
REMARK    6  A    between atoms: C_19  and  N_39
REMARK    7  A    between atoms: C_20  and  C_37
REMARK    8  A    between atoms: C_21  and  C_23
REMARK    9  A    between atoms: C_26  and  O_29
REMARK   10  A    between atoms: O_29  and  C_30
REMARK   11  A    between atoms: C_30  and  C_31
REMARK                            x       y       z     vdW  Elec       q    Type
REMARK                         _______ _______ _______ _____ _____    ______ ____
ROOT
ATOM      1  C   UNL     1      -6.270  -4.462   0.010  0.00  0.00    +0.135 A 
ATOM      2  C   UNL     1      -7.357  -3.601  -0.058  0.00  0.00    +0.047 A 
ATOM      3  C   UNL     1      -8.640  -4.111  -0.084  0.00  0.00    +0.012 A 
ATOM      4  C   UNL     1      -8.848  -5.479  -0.041  0.00  0.00    +0.008 A 
ATOM      5  C   UNL     1      -7.766  -6.342   0.027  0.00  0.00    +0.138 A 
ATOM      6  C   UNL     1      -6.475  -5.832   0.047  0.00  0.00    +0.093 A 
ATOM      7  O   UNL     1      -7.950  -7.685   0.069  0.00  0.00    -0.441 OA
ATOM      8  C   UNL     1      -9.143  -8.187   0.430  0.00  0.00    +0.199 C 
ATOM      9  C   UNL     1     -10.275  -7.446   0.388  0.00  0.00    +0.098 C 
ATOM     10  C   UNL     1     -10.255  -6.014  -0.070  0.00  0.00    +0.098 C 
ENDROOT
BRANCH  10  11
ATOM     11  C   UNL     1     -10.792  -5.931  -1.475  0.00  0.00    -0.034 A 
ATOM     12  C   UNL     1     -10.157  -6.611  -2.498  0.00  0.00    +0.008 A 
ATOM     13  C   UNL     1     -10.647  -6.536  -3.788  0.00  0.00    +0.046 A 
ATOM     14  C   UNL     1     -11.778  -5.778  -4.056  0.00  0.00    +0.121 A 
ATOM     15  C   UNL     1     -12.414  -5.098  -3.027  0.00  0.00    +0.046 A 
ATOM     16  C   UNL     1     -11.923  -5.180  -1.739  0.00  0.00    +0.008 A 
BRANCH  14  17
ATOM     17  O   UNL     1     -12.262  -5.703  -5.323  0.00  0.00    -0.487 OA
BRANCH  17  18
ATOM     18  C   UNL     1     -13.430  -4.904  -5.525  0.00  0.00    +0.264 C 
BRANCH  18  19
ATOM     19  C   UNL     1     -13.817  -4.939  -6.981  0.00  0.00    -0.010 A 
ATOM     20  C   UNL     1     -13.300  -4.002  -7.856  0.00  0.00    +0.007 A 
ATOM     21  C   UNL     1     -13.654  -4.034  -9.192  0.00  0.00    +0.000 A 
ATOM     22  C   UNL     1     -14.526  -5.003  -9.653  0.00  0.00    +0.000 A 
ATOM     23  C   UNL     1     -15.042  -5.941  -8.778  0.00  0.00    +0.000 A 
ATOM     24  C   UNL     1     -14.684  -5.912  -7.443  0.00  0.00    +0.007 A 
ENDBRANCH  18  19
ENDBRANCH  17  18
ENDBRANCH  14  17
ENDBRANCH  10  11
BRANCH   8  25
ATOM     25  N   UNL     1      -9.216  -9.491   0.854  0.00  0.00    -0.328 N 
ATOM     26  H   UNL     1      -8.414 -10.035   0.890  0.00  0.00    +0.145 HD
ATOM     27  H   UNL     1     -10.070  -9.868   1.117  0.00  0.00    +0.145 HD
ENDBRANCH   8  25
BRANCH   9  28
ATOM     28  C   UNL     1     -11.517  -8.038   0.786  0.00  0.00    +0.101 C 
ATOM     29  N   UNL     1     -12.502  -8.508   1.102  0.00  0.00    -0.191 NA
ENDBRANCH   9  28
BRANCH   1  30
ATOM     30  O   UNL     1      -5.007  -3.962   0.035  0.00  0.00    -0.422 OA
BRANCH  30  31
ATOM     31  C   UNL     1      -4.283  -4.016  -1.101  0.00  0.00    +0.344 C 
ATOM     32  O   UNL     1      -4.729  -4.581  -2.080  0.00  0.00    -0.245 OA
BRANCH  31  36
ATOM     33  C   UNL     1      -0.443  -2.212  -1.257  0.00  0.00    +0.120 A 
ATOM     34  C   UNL     1      -0.951  -2.858  -2.378  0.00  0.00    +0.046 A 
ATOM     35  C   UNL     1      -2.196  -3.445  -2.332  0.00  0.00    +0.018 A 
ATOM     36  C   UNL     1      -2.949  -3.390  -1.155  0.00  0.00    +0.060 A 
ATOM     37  C   UNL     1      -2.433  -2.739  -0.030  0.00  0.00    +0.018 A 
ATOM     38  C   UNL     1      -1.185  -2.160  -0.083  0.00  0.00    +0.046 A 
BRANCH  33  40
ATOM     39  C   UNL     1       1.494  -1.726  -2.545  0.00  0.00    +0.277 C 
ATOM     40  O   UNL     1       0.785  -1.636  -1.307  0.00  0.00    -0.495 OA
ENDBRANCH  33  40
ENDBRANCH  31  36
ENDBRANCH  30  31
ENDBRANCH   1  30
TORSDOF 10
