REMARK  Name = ZINC35847299
REMARK  6 active torsions:
REMARK  status: ('A' for Active; 'I' for Inactive)
REMARK    1  A    between atoms: C_1  and  C_2
REMARK    2  A    between atoms: C_6  and  C_8
REMARK    3  A    between atoms: C_18  and  C_20
REMARK    4  A    between atoms: C_20  and  C_21
REMARK    5  A    between atoms: C_21  and  C_22
REMARK    6  A    between atoms: C_27  and  N_30
REMARK                            x       y       z     vdW  Elec       q    Type
REMARK                         _______ _______ _______ _____ _____    ______ ____
ROOT
ATOM      1  C   UNL     1      -3.857  -4.938   0.342  0.00  0.00    +0.105 C 
ENDROOT
BRANCH   1   2
ATOM      2  C   UNL     1      -4.880  -6.044   0.364  0.00  0.00    +0.216 C 
ATOM      3  O   UNL     1      -4.834  -6.896   1.225  0.00  0.00    -0.276 OA
ATOM      4  N   UNL     1      -5.847  -6.087  -0.575  0.00  0.00    -0.301 N 
ATOM      5  C   UNL     1      -5.912  -5.065  -1.629  0.00  0.00    +0.110 C 
ATOM      6  C   UNL     1      -7.316  -4.452  -1.635  0.00  0.00    +0.044 C 
ATOM      7  C   UNL     1      -8.354  -5.568  -1.776  0.00  0.00    +0.095 C 
ATOM      8  C   UNL     1      -8.248  -6.519  -0.582  0.00  0.00    +0.044 C 
ATOM      9  C   UNL     1      -6.851  -7.159  -0.567  0.00  0.00    +0.110 C 
BRANCH   7  10
ATOM     10  N   UNL     1      -9.697  -4.983  -1.815  0.00  0.00    -0.289 N 
ATOM     11  C   UNL     1     -10.611  -5.110  -2.859  0.00  0.00    +0.070 A 
ATOM     12  C   UNL     1     -10.573  -5.760  -4.083  0.00  0.00    +0.028 A 
ATOM     13  C   UNL     1     -11.666  -5.702  -4.926  0.00  0.00    +0.002 A 
ATOM     14  C   UNL     1     -12.798  -4.998  -4.553  0.00  0.00    +0.002 A 
ATOM     15  C   UNL     1     -12.845  -4.348  -3.336  0.00  0.00    +0.028 A 
ATOM     16  C   UNL     1     -11.753  -4.400  -2.483  0.00  0.00    +0.067 A 
ATOM     17  N   UNL     1     -11.498  -3.864  -1.223  0.00  0.00    -0.306 N 
ATOM     18  H   UNL     1     -12.110  -3.319  -0.704  0.00  0.00    +0.170 HD
ATOM     19  C   UNL     1     -10.260  -4.235  -0.847  0.00  0.00    +0.328 A 
ATOM     20  O   UNL     1      -9.728  -3.938   0.206  0.00  0.00    -0.247 OA
ENDBRANCH   7  10
ENDBRANCH   1   2
BRANCH   1  21
ATOM     21  C   UNL     1      -2.881  -5.123   1.506  0.00  0.00    +0.105 C 
BRANCH  21  31
ATOM     22  C   UNL     1       0.066  -2.854   2.476  0.00  0.00    +0.153 C 
ATOM     23  C   UNL     1       1.433  -3.452   2.722  0.00  0.00    +0.044 A 
ATOM     24  C   UNL     1       2.622  -2.833   2.650  0.00  0.00    +0.025 A 
ATOM     25  C   UNL     1       3.611  -3.788   2.967  0.00  0.00    +0.019 A 
ATOM     26  C   UNL     1       2.981  -4.955   3.219  0.00  0.00    +0.086 A 
ATOM     27  N   UNL     1       1.643  -4.759   3.066  0.00  0.00    -0.347 N 
ATOM     28  C   UNL     1       0.582  -5.759   3.229  0.00  0.00    +0.140 C 
ATOM     29  C   UNL     1      -0.759  -5.045   3.424  0.00  0.00    +0.130 C 
ATOM     30  N   UNL     1      -0.892  -3.974   2.423  0.00  0.00    -0.287 N 
ATOM     31  C   UNL     1      -1.858  -4.017   1.484  0.00  0.00    +0.217 C 
ATOM     32  O   UNL     1      -1.904  -3.165   0.623  0.00  0.00    -0.276 OA
BRANCH  22  38
ATOM     33  C   UNL     1       0.938  -2.740  -2.451  0.00  0.00    +0.044 C 
ATOM     34  C   UNL     1       0.477  -2.054  -1.191  0.00  0.00    -0.050 A 
ATOM     35  C   UNL     1       0.047  -0.741  -1.236  0.00  0.00    +0.003 A 
ATOM     36  C   UNL     1      -0.376  -0.112  -0.080  0.00  0.00    +0.001 A 
ATOM     37  C   UNL     1      -0.370  -0.796   1.121  0.00  0.00    +0.006 A 
ATOM     38  C   UNL     1       0.059  -2.109   1.166  0.00  0.00    -0.021 A 
ATOM     39  C   UNL     1       0.478  -2.740   0.009  0.00  0.00    +0.009 A 
ENDBRANCH  22  38
ENDBRANCH  21  31
ENDBRANCH   1  21
TORSDOF 5
