REMARK  Name = ZINC24971555
REMARK  7 active torsions:
REMARK  status: ('A' for Active; 'I' for Inactive)
REMARK    1  A    between atoms: C_1  and  C_2
REMARK    2  A    between atoms: C_2  and  C_4
REMARK    3  A    between atoms: C_2  and  N_17
REMARK    4  A    between atoms: N_6  and  C_7
REMARK    5  A    between atoms: C_7  and  C_8
REMARK    6  A    between atoms: N_17  and  C_18
REMARK    7  A    between atoms: C_22  and  C_24
REMARK                            x       y       z     vdW  Elec       q    Type
REMARK                         _______ _______ _______ _____ _____    ______ ____
ROOT
ATOM      1  N   UNL     1       1.164   3.491   0.062  0.00  0.00    -0.333 N 
ATOM      2  H   UNL     1       0.207   4.032   0.094  0.00  0.00    +0.147 HD
ENDROOT
BRANCH   1   3
ATOM      3  C   UNL     1       1.177   2.095   0.028  0.00  0.00    +0.028 A 
ATOM      4  C   UNL     1       2.388   1.411  -0.014  0.00  0.00    +0.023 A 
ATOM      5  C   UNL     1       2.405   0.030  -0.048  0.00  0.00    +0.002 A 
ATOM      6  C   UNL     1       1.222  -0.680  -0.040  0.00  0.00    +0.012 A 
ATOM      7  C   UNL     1       0.002  -0.004   0.002  0.00  0.00    +0.021 A 
ATOM      8  C   UNL     1      -0.016   1.390   0.036  0.00  0.00    +0.034 A 
BRANCH   7   9
ATOM      9  C   UNL     1      -1.268  -0.763   0.011  0.00  0.00    +0.164 A 
ATOM     10  N   UNL     1      -2.446  -0.318   0.392  0.00  0.00    -0.129 NA
ATOM     11  N   UNL     1      -3.326  -1.247   0.258  0.00  0.00    -0.134 NA
ATOM     12  C   UNL     1      -2.764  -2.328  -0.207  0.00  0.00    +0.134 A 
ATOM     13  N   UNL     1      -1.441  -2.062  -0.369  0.00  0.00    -0.311 N 
ATOM     14  C   UNL     1      -0.418  -2.994  -0.844  0.00  0.00    +0.125 C 
ATOM     15  C   UNL     1      -1.064  -4.031  -1.766  0.00  0.00    +0.022 C 
ATOM     16  C   UNL     1      -1.549  -5.223  -0.943  0.00  0.00    +0.002 C 
ATOM     17  C   UNL     1      -2.605  -4.782   0.067  0.00  0.00    +0.008 C 
ATOM     18  C   UNL     1      -3.436  -3.639  -0.523  0.00  0.00    +0.076 C 
ENDBRANCH   7   9
ENDBRANCH   1   3
BRANCH   1  20
ATOM     19  C   UNL     1       2.899   4.421  -1.389  0.00  0.00    +0.038 C 
ATOM     20  C   UNL     1       2.426   4.236   0.053  0.00  0.00    +0.154 C 
BRANCH  20  21
ATOM     21  C   UNL     1       2.217   5.585   0.691  0.00  0.00    +0.233 C 
ATOM     22  O   UNL     1       1.122   5.895   1.110  0.00  0.00    -0.274 OA
ATOM     23  N   UNL     1       3.247   6.449   0.794  0.00  0.00    -0.310 N 
ATOM     24  H   UNL     1       4.240   6.168   0.413  0.00  0.00    +0.149 HD
BRANCH  23  25
ATOM     25  C   UNL     1       3.043   7.761   1.414  0.00  0.00    +0.139 C 
BRANCH  25  26
ATOM     26  C   UNL     1       4.341   8.527   1.405  0.00  0.00    -0.027 A 
ATOM     27  C   UNL     1       5.212   8.420   2.474  0.00  0.00    +0.009 A 
ATOM     28  C   UNL     1       6.406   9.117   2.468  0.00  0.00    +0.050 A 
ATOM     29  C   UNL     1       6.727   9.933   1.396  0.00  0.00    +0.166 A 
ATOM     30  C   UNL     1       5.847  10.045   0.322  0.00  0.00    +0.167 A 
ATOM     31  C   UNL     1       4.655   9.339   0.332  0.00  0.00    +0.054 A 
ATOM     32  O   UNL     1       6.386  10.899  -0.597  0.00  0.00    -0.453 OA
ATOM     33  C   UNL     1       7.411  11.624   0.108  0.00  0.00    +0.466 C 
ATOM     34  O   UNL     1       7.817  10.717   1.150  0.00  0.00    -0.453 OA
ENDBRANCH  25  26
ENDBRANCH  23  25
ENDBRANCH  20  21
ENDBRANCH   1  20
TORSDOF 6
