REMARK  Name = ZINC55019963
REMARK  8 active torsions:
REMARK  status: ('A' for Active; 'I' for Inactive)
REMARK    1  A    between atoms: C_1  and  C_2
REMARK    2  A    between atoms: C_2  and  C_3
REMARK    3  A    between atoms: C_2  and  C_4
REMARK    4  A    between atoms: C_2  and  N_5
REMARK    5  A    between atoms: C_9  and  C_11
REMARK    6  A    between atoms: C_11  and  N_12
REMARK    7  A    between atoms: N_12  and  C_13
REMARK    8  A    between atoms: N_12  and  C_14
REMARK                            x       y       z     vdW  Elec       q    Type
REMARK                         _______ _______ _______ _____ _____    ______ ____
ROOT
ATOM      1  C   UNL     1       4.591  -0.709  -3.999  0.00  0.00    +0.200 C 
ENDROOT
BRANCH   1   6
ATOM      2  N   UNL     1       0.688  -0.476  -1.203  0.00  0.00    -0.294 N 
ATOM      3  C   UNL     1       1.972  -0.132  -1.427  0.00  0.00    +0.306 C 
ATOM      4  O   UNL     1       2.560   0.570  -0.629  0.00  0.00    -0.252 OA
ATOM      5  N   UNL     1       2.602  -0.567  -2.536  0.00  0.00    -0.239 N 
ATOM      6  C   UNL     1       3.886  -0.223  -2.760  0.00  0.00    +0.238 C 
ATOM      7  O   UNL     1       4.473   0.478  -1.963  0.00  0.00    -0.274 OA
ATOM      8  H   UNL     1       0.218  -1.037  -1.840  0.00  0.00    +0.151 HD
ATOM      9  H   UNL     1       2.132  -1.127  -3.173  0.00  0.00    +0.159 HD
BRANCH   2  11
ATOM     10  C   UNL     1      -0.019   1.526   0.010  0.00  0.00    +0.031 C 
ATOM     11  C   UNL     1       0.002  -0.004   0.002  0.00  0.00    +0.028 C 
ATOM     12  C   UNL     1       0.742  -0.511   1.242  0.00  0.00    +0.031 C 
ATOM     13  C   UNL     1      -1.433  -0.534   0.013  0.00  0.00    +0.031 C 
ENDBRANCH   2  11
ENDBRANCH   1   6
BRANCH   1  14
ATOM     14  N   UNL     1       5.966  -0.202  -4.010  0.00  0.00    -0.324 N 
ATOM     15  C   UNL     1       7.039  -0.982  -3.390  0.00  0.00    +0.130 C 
BRANCH  14  16
ATOM     16  C   UNL     1       6.252   1.023  -4.609  0.00  0.00    +0.038 A 
ATOM     17  C   UNL     1       6.204   2.187  -3.871  0.00  0.00    +0.024 A 
ATOM     18  C   UNL     1       6.489   3.415  -4.460  0.00  0.00    +0.002 A 
ATOM     19  C   UNL     1       6.821   3.502  -5.778  0.00  0.00    +0.008 A 
ATOM     20  C   UNL     1       6.881   2.340  -6.566  0.00  0.00    -0.016 A 
ATOM     21  C   UNL     1       6.599   1.083  -5.976  0.00  0.00    +0.003 A 
ATOM     22  C   UNL     1       6.664  -0.077  -6.763  0.00  0.00    +0.010 A 
ATOM     23  C   UNL     1       7.002   0.018  -8.078  0.00  0.00    +0.001 A 
ATOM     24  C   UNL     1       7.285   1.253  -8.658  0.00  0.00    +0.001 A 
ATOM     25  C   UNL     1       7.221   2.401  -7.928  0.00  0.00    +0.008 A 
ENDBRANCH  14  16
ENDBRANCH   1  14
TORSDOF 4
