REMARK  Name = ZINC09059018
REMARK  11 active torsions:
REMARK  status: ('A' for Active; 'I' for Inactive)
REMARK    1  A    between atoms: CG1_1  and  CB_2
REMARK    2  A    between atoms: CB_2  and  CG2_4
REMARK    3  A    between atoms: CB_2  and  CA_5
REMARK    4  A    between atoms: CA_5  and  C_7
REMARK    5  A    between atoms: CA_5  and  N_9
REMARK    6  A    between atoms: C_10  and  CA_12
REMARK    7  A    between atoms: CA_12  and  CB_14
REMARK    8  A    between atoms: CA_12  and  N_15
REMARK    9  A    between atoms: C_16  and  C_18
REMARK   10  A    between atoms: C_20  and  C_33
REMARK   11  A    between atoms: C_20  and  C_34
REMARK                            x       y       z     vdW  Elec       q    Type
REMARK                         _______ _______ _______ _____ _____    ______ ____
ROOT
ATOM      1  N   ALA A   1       5.008   2.236   3.214  0.00  0.00    -0.303 N 
ATOM      2  C   UNK A   0       6.079   1.791   3.901  0.00  0.00    +0.236 C 
ATOM      3  O   UNK A   0       6.135   0.632   4.251  0.00  0.00    -0.274 OA
ATOM      4  H   ALA A   1       4.963   3.164   2.933  0.00  0.00    +0.149 HD
ENDROOT
BRANCH   2   5
ATOM      5  C   UNK A   0       7.205   2.735   4.234  0.00  0.00    +0.179 C 
ATOM      6  C   UNK A   0       8.106   2.891   2.986  0.00  0.00    +0.040 C 
ATOM      7  S   UNK A   0       9.777   2.545   3.689  0.00  0.00    -0.125 S 
ATOM      8  C   UNK A   0       9.315   2.739   5.463  0.00  0.00    +0.167 C 
ATOM      9  N   UNK A   0       7.915   2.222   5.407  0.00  0.00    -0.269 N 
ATOM     10  C   UNK A   0       7.777   1.414   6.480  0.00  0.00    +0.249 C 
ATOM     11  O   UNK A   0       6.719   1.110   6.996  0.00  0.00    -0.270 OA
ATOM     12  C   UNK A   0       9.105   0.956   6.931  0.00  0.00    +0.043 A 
ATOM     13  C   UNK A   0      10.086   1.768   6.311  0.00  0.00    -0.005 A 
ATOM     14  C   UNK A   0      11.408   1.532   6.543  0.00  0.00    +0.007 A 
ATOM     15  C   UNK A   0      11.802   0.530   7.414  0.00  0.00    +0.000 A 
ATOM     16  C   UNK A   0      10.854  -0.250   8.052  0.00  0.00    +0.001 A 
ATOM     17  C   UNK A   0       9.510  -0.040   7.819  0.00  0.00    +0.013 A 
ATOM     18  C   UNK A   0       8.030   4.314   2.429  0.00  0.00    +0.025 C 
ATOM     19  C   UNK A   0       7.739   1.864   1.913  0.00  0.00    +0.025 C 
ENDBRANCH   2   5
BRANCH   1  20
ATOM     20  CA  ALA A   1       3.912   1.319   2.890  0.00  0.00    +0.156 C 
ATOM     21  CB  ALA A   1       2.941   1.248   4.070  0.00  0.00    +0.038 C 
BRANCH  20  23
ATOM     22  N   ALA A   1       2.131   1.130   1.184  0.00  0.00    -0.301 N 
ATOM     23  C   ALA A   1       3.183   1.819   1.669  0.00  0.00    +0.234 C 
ATOM     24  O   ALA A   1       3.544   2.840   1.123  0.00  0.00    -0.274 OA
ATOM     25  H   ALA A   1       1.843   0.313   1.621  0.00  0.00    +0.150 HD
BRANCH  22  26
ATOM     26  CA  ALA A   1       1.423   1.615  -0.003  0.00  0.00    +0.189 C 
BRANCH  26  28
ATOM     27  CG1 ALA A   1      -0.753   1.593  -1.232  0.00  0.00    +0.009 C 
ATOM     28  CB  ALA A   1      -0.013   1.086   0.008  0.00  0.00    +0.014 C 
ATOM     29  CG2 ALA A   1      -0.729   1.579   1.267  0.00  0.00    +0.009 C 
ENDBRANCH  26  28
BRANCH  26  30
ATOM     30  C   ALA A   1       2.128   1.129  -1.243  0.00  0.00    +0.376 C 
ATOM     31  O   ALA A   1       3.121   0.448  -1.145  0.00  0.00    -0.244 OA
ATOM     32  OXT ALA A   1       1.653   1.454  -2.456  0.00  0.00    -0.244 OA
ENDBRANCH  26  30
ENDBRANCH  22  26
ENDBRANCH  20  23
ENDBRANCH   1  20
TORSDOF 6
