REMARK  Name = ZINC27226324
REMARK  5 active torsions:
REMARK  status: ('A' for Active; 'I' for Inactive)
REMARK    1  A    between atoms: C_1  and  C_2
REMARK    2  A    between atoms: C_7  and  C_8
REMARK    3  A    between atoms: C_11  and  C_12
REMARK    4  A    between atoms: C_12  and  C_13
REMARK    5  A    between atoms: N_15  and  C_16
REMARK                            x       y       z     vdW  Elec       q    Type
REMARK                         _______ _______ _______ _____ _____    ______ ____
ROOT
ATOM      1  C   UNL     1       1.415  -2.659  -4.229  0.00  0.00    +0.222 C 
ATOM      2  O   UNL     1       2.341  -2.684  -3.445  0.00  0.00    -0.275 OA
ATOM      3  N   UNL     1       1.644  -2.427  -5.536  0.00  0.00    -0.284 N 
ATOM      4  H   UNL     1       0.815  -2.478  -6.258  0.00  0.00    +0.155 HD
ENDROOT
BRANCH   3   5
ATOM      5  C   UNL     1       2.939  -2.120  -5.977  0.00  0.00    +0.051 A 
ATOM      6  C   UNL     1       4.038  -2.706  -5.364  0.00  0.00    +0.073 A 
ATOM      7  C   UNL     1       5.318  -2.404  -5.801  0.00  0.00    +0.164 A 
ATOM      8  C   UNL     1       5.500  -1.514  -6.853  0.00  0.00    +0.163 A 
ATOM      9  C   UNL     1       4.400  -0.929  -7.462  0.00  0.00    +0.066 A 
ATOM     10  C   UNL     1       3.123  -1.234  -7.030  0.00  0.00    +0.043 A 
ATOM     11 BR   UNL     1       1.626  -0.439  -7.869  0.00  0.00    -0.048 Br
ATOM     12  O   UNL     1       6.750  -1.209  -7.299  0.00  0.00    -0.485 OA
ATOM     13  C   UNL     1       7.839  -1.522  -6.424  0.00  0.00    +0.270 C 
ATOM     14  C   UNL     1       7.632  -2.947  -5.891  0.00  0.00    +0.270 C 
ATOM     15  O   UNL     1       6.386  -2.985  -5.187  0.00  0.00    -0.485 OA
ENDBRANCH   3   5
BRANCH   1  16
ATOM     16  C   UNL     1       0.008  -2.889  -3.740  0.00  0.00    +0.135 C 
BRANCH  16  27
ATOM     17  C   UNL     1      -0.048   1.474   0.021  0.00  0.00    +0.044 C 
ATOM     18  C   UNL     1      -0.017  -0.032   0.009  0.00  0.00    -0.047 A 
ATOM     19  C   UNL     1      -0.020  -0.708  -1.192  0.00  0.00    +0.015 A 
ATOM     20  C   UNL     1       0.014  -2.102  -1.197  0.00  0.00    +0.024 A 
ATOM     21  C   UNL     1       0.039  -2.812   0.015  0.00  0.00    +0.135 A 
ATOM     22  C   UNL     1       0.036  -2.111   1.214  0.00  0.00    +0.050 A 
ATOM     23  C   UNL     1       0.008  -0.733   1.206  0.00  0.00    -0.044 A 
ATOM     24  C   UNL     1       0.004   0.021   2.511  0.00  0.00    +0.044 C 
ATOM     25  O   UNL     1       0.064  -4.125  -0.291  0.00  0.00    -0.463 OA
ATOM     26  C   UNL     1       0.055  -4.307  -1.623  0.00  0.00    +0.200 A 
ATOM     27  C   UNL     1       0.025  -3.123  -2.251  0.00  0.00    +0.007 A 
ENDBRANCH  16  27
ENDBRANCH   1  16
TORSDOF 3
