REMARK  Name = ZINC51633051
REMARK  2 active torsions:
REMARK  status: ('A' for Active; 'I' for Inactive)
REMARK    1  A    between atoms: C_9  and  N_12
REMARK    2  A    between atoms: CA_17  and  C_19
REMARK                            x       y       z     vdW  Elec       q    Type
REMARK                         _______ _______ _______ _____ _____    ______ ____
ROOT
ATOM      1  N   UNL     1       4.872  -2.834   0.137  0.00  0.00    -0.327 N 
ATOM      2  C   UNL     1       5.875  -2.804   1.098  0.00  0.00    +0.097 A 
ATOM      3  C   UNL     1       5.667  -2.110   2.291  0.00  0.00    +0.041 A 
ATOM      4  C   UNL     1       6.670  -2.084   3.243  0.00  0.00    +0.006 A 
ATOM      5  C   UNL     1       7.856  -2.755   2.976  0.00  0.00    +0.033 A 
ATOM      6  CA  UNL     1       7.999  -3.428   1.766  0.00  0.00    +0.130 A 
ATOM      7  N   UNL     1       7.012  -3.437   0.875  0.00  0.00    -0.338 N 
ATOM      8  H   UNL     1       5.009  -3.318  -0.692  0.00  0.00    +0.148 HD
ATOM      9  H   UNL     1       7.132  -3.916   0.040  0.00  0.00    +0.167 HD
ENDROOT
BRANCH   1  18
ATOM     10  C   UNL     1      -0.017   1.375   0.010  0.00  0.00    +0.000 A 
ATOM     11  C   UNL     1       1.174   2.078   0.002  0.00  0.00    +0.000 A 
ATOM     12  C   UNL     1       2.372   1.395  -0.016  0.00  0.00    +0.004 A 
ATOM     13  C   UNL     1       2.393   0.006  -0.025  0.00  0.00    -0.042 A 
ATOM     14  C   UNL     1       1.208  -0.694  -0.013  0.00  0.00    -0.044 A 
ATOM     15  C   UNL     1       0.002  -0.004   0.002  0.00  0.00    +0.004 A 
ATOM     16  C   UNL     1       1.155  -2.199  -0.005  0.00  0.00    +0.037 C 
ATOM     17  C   UNL     1       2.493  -2.786  -0.452  0.00  0.00    +0.027 C 
ATOM     18  C   UNL     1       3.607  -2.135   0.376  0.00  0.00    +0.076 C 
ATOM     19  C   UNL     1       3.736  -0.675  -0.053  0.00  0.00    +0.057 C 
ENDBRANCH   1  18
BRANCH   6  20
ATOM     20  C   UNL     1       9.259  -4.145   1.471  0.00  0.00    +0.402 C 
ATOM     21  O   UNL     1       9.390  -4.738   0.410  0.00  0.00    -0.239 OA
ATOM     22  OXT UNL     1      10.168  -4.144   2.288  0.00  0.00    -0.239 OA
ENDBRANCH   6  20
TORSDOF 2
