REMARK  Name = ZINC26383347
REMARK  10 active torsions:
REMARK  status: ('A' for Active; 'I' for Inactive)
REMARK    1  A    between atoms: C_1  and  C_2
REMARK    2  A    between atoms: C_5  and  C_34
REMARK    3  A    between atoms: C_5  and  C_35
REMARK    4  A    between atoms: N_11  and  C_15
REMARK    5  A    between atoms: C_15  and  C_16
REMARK    6  A    between atoms: N_18  and  C_19
REMARK    7  A    between atoms: C_19  and  C_21
REMARK    8  A    between atoms: C_19  and  C_31
REMARK    9  A    between atoms: C_31  and  C_32
REMARK   10  A    between atoms: C_31  and  C_33
REMARK                            x       y       z     vdW  Elec       q    Type
REMARK                         _______ _______ _______ _____ _____    ______ ____
ROOT
ATOM      1  C   UNL     1       5.429  -1.889   1.081  0.00  0.00    +0.231 C 
ATOM      2  O   UNL     1       6.569  -1.500   0.936  0.00  0.00    -0.274 OA
ATOM      3  N   UNL     1       4.416  -1.253   0.461  0.00  0.00    -0.307 N 
ATOM      4  H   UNL     1       3.382  -1.606   0.592  0.00  0.00    +0.149 HD
ENDROOT
BRANCH   1   5
ATOM      5  C   UNL     1       5.146  -3.084   1.955  0.00  0.00    +0.213 C 
BRANCH   5  15
ATOM      6  C   UNL     1      12.132  -4.209   2.385  0.00  0.00    +0.007 C 
ATOM      7  C   UNL     1      10.823  -4.552   3.101  0.00  0.00    -0.011 C 
ATOM      8  C   UNL     1      10.869  -6.005   3.579  0.00  0.00    +0.009 C 
ATOM      9  C   UNL     1       9.566  -6.347   4.303  0.00  0.00    -0.032 C 
ATOM     10  C   UNL     1       8.388  -6.173   3.341  0.00  0.00    +0.041 C 
ATOM     11  C   UNL     1       8.348  -4.733   2.840  0.00  0.00    +0.113 C 
ATOM     12  C   UNL     1       9.650  -4.371   2.134  0.00  0.00    +0.038 C 
ATOM     13  C   UNL     1       7.168  -4.532   1.917  0.00  0.00    +0.247 C 
ATOM     14  O   UNL     1       6.956  -5.095   0.864  0.00  0.00    -0.273 OA
ATOM     15  N   UNL     1       6.403  -3.592   2.510  0.00  0.00    -0.215 N 
ATOM     16  C   UNL     1       6.932  -3.186   3.670  0.00  0.00    +0.310 C 
ATOM     17  O   UNL     1       6.423  -2.348   4.388  0.00  0.00    -0.252 OA
ATOM     18  N   UNL     1       8.092  -3.809   3.952  0.00  0.00    -0.285 N 
ATOM     19  C   UNL     1       9.388  -5.414   5.502  0.00  0.00    +0.011 C 
ATOM     20  C   UNL     1       9.617  -7.797   4.788  0.00  0.00    +0.011 C 
ATOM     21  H   UNL     1       8.802  -3.746   4.790  0.00  0.00    +0.151 HD
ENDBRANCH   5  15
ENDBRANCH   1   5
BRANCH   3  22
ATOM     22  C   UNL     1       4.691  -0.091  -0.388  0.00  0.00    +0.106 C 
BRANCH  22  23
ATOM     23  C   UNL     1       3.464   0.782  -0.458  0.00  0.00    -0.023 A 
ATOM     24  C   UNL     1       2.212   0.205  -0.557  0.00  0.00    +0.009 A 
ATOM     25  C   UNL     1       1.085   1.003  -0.621  0.00  0.00    +0.050 A 
ATOM     26  C   UNL     1       1.208   2.384  -0.588  0.00  0.00    +0.162 A 
ATOM     27  C   UNL     1       2.467   2.963  -0.487  0.00  0.00    +0.162 A 
ATOM     28  C   UNL     1       3.594   2.157  -0.423  0.00  0.00    +0.055 A 
ATOM     29  O   UNL     1       2.610   4.316  -0.444  0.00  0.00    -0.485 OA
ATOM     30  C   UNL     1       1.493   5.095  -0.886  0.00  0.00    +0.270 C 
ATOM     31  C   UNL     1       0.222   4.520  -0.245  0.00  0.00    +0.270 C 
ATOM     32  O   UNL     1       0.089   3.156  -0.661  0.00  0.00    -0.485 OA
ENDBRANCH  22  23
BRANCH  22  33
ATOM     33  C   UNL     1       5.061  -0.564  -1.796  0.00  0.00    +0.008 C 
ATOM     34  C   UNL     1       5.348   0.649  -2.683  0.00  0.00    +0.009 C 
ATOM     35  C   UNL     1       6.306  -1.451  -1.725  0.00  0.00    +0.009 C 
ENDBRANCH  22  33
ENDBRANCH   3  22
TORSDOF 5
