REMARK  Name = ZINC65329467
REMARK  10 active torsions:
REMARK  status: ('A' for Active; 'I' for Inactive)
REMARK    1  A    between atoms: C_1  and  O_2
REMARK    2  A    between atoms: O_2  and  C_3
REMARK    3  A    between atoms: N_9  and  C_30
REMARK    4  A    between atoms: C_10  and  C_27
REMARK    5  A    between atoms: C_12  and  C_14
REMARK    6  A    between atoms: C_14  and  N_15
REMARK    7  A    between atoms: N_15  and  C_16
REMARK    8  A    between atoms: C_16  and  C_17
REMARK    9  A    between atoms: C_17  and  C_18
REMARK   10  A    between atoms: C_30  and  C_31
REMARK                            x       y       z     vdW  Elec       q    Type
REMARK                         _______ _______ _______ _____ _____    ______ ____
ROOT
ATOM      1  C   UNL     1      -1.200  -0.637   0.010  0.00  0.00    +0.122 A 
ATOM      2  C   UNL     1      -2.374   0.104   0.020  0.00  0.00    +0.046 A 
ATOM      3  C   UNL     1      -3.594  -0.543   0.028  0.00  0.00    +0.009 A 
ATOM      4  C   UNL     1      -3.649  -1.925   0.027  0.00  0.00    -0.023 A 
ATOM      5  C   UNL     1      -2.484  -2.676   0.018  0.00  0.00    +0.038 A 
ATOM      6  C   UNL     1      -1.253  -2.020   0.003  0.00  0.00    +0.069 A 
ATOM      7  N   UNL     1      -2.755  -4.046   0.018  0.00  0.00    -0.312 N 
ATOM      8  C   UNL     1      -4.203  -4.272   0.028  0.00  0.00    +0.193 C 
ATOM      9  C   UNL     1      -4.830  -2.869   0.035  0.00  0.00    +0.035 C 
ENDROOT
BRANCH   8  10
ATOM     10  C   UNL     1      -4.622  -5.030  -1.205  0.00  0.00    +0.376 C 
ATOM     11  O   UNL     1      -3.785  -5.381  -2.019  0.00  0.00    -0.244 OA
ATOM     12  O   UNL     1      -5.799  -5.291  -1.390  0.00  0.00    -0.244 OA
ENDBRANCH   8  10
BRANCH   1  14
ATOM     13  C   UNL     1      -0.017   1.425   0.010  0.00  0.00    +0.277 C 
ATOM     14  O   UNL     1       0.002  -0.004   0.002  0.00  0.00    -0.495 OA
ENDBRANCH   1  14
BRANCH   9  15
ATOM     15  C   UNL     1      -5.687  -2.662  -1.216  0.00  0.00    -0.072 C 
BRANCH  15  16
ATOM     16  N   UNL     1      -6.306  -1.331  -1.170  0.00  0.00    +0.380 N 
ATOM     17  H   UNL     1      -6.887  -1.258  -0.348  0.00  0.00    -0.086 HD
ATOM     18  H   UNL     1      -5.585  -0.625  -1.136  0.00  0.00    -0.086 HD
BRANCH  16  19
ATOM     19  C   UNL     1      -7.129  -1.132  -2.371  0.00  0.00    -0.078 C 
BRANCH  19  20
ATOM     20  C   UNL     1      -7.774   0.255  -2.323  0.00  0.00    +0.014 C 
BRANCH  20  21
ATOM     21  C   UNL     1      -8.618   0.459  -3.555  0.00  0.00    -0.043 C 
ATOM     22  C   UNL     1      -9.949   0.247  -3.673  0.00  0.00    -0.001 A 
ATOM     23  C   UNL     1     -10.969  -0.220  -2.727  0.00  0.00    +0.010 A 
ATOM     24  C   UNL     1     -12.249  -0.335  -3.147  0.00  0.00    +0.001 A 
ATOM     25  C   UNL     1     -12.626  -0.020  -4.460  0.00  0.00    +0.002 A 
ATOM     26  C   UNL     1     -11.745   0.415  -5.386  0.00  0.00    +0.026 A 
ATOM     27  C   UNL     1     -10.372   0.573  -5.054  0.00  0.00    +0.043 A 
ATOM     28  N   UNL     1      -9.343   0.971  -5.762  0.00  0.00    -0.380 N 
ATOM     29  C   UNL     1      -8.150   0.948  -4.907  0.00  0.00    +0.144 C 
ATOM     30  H   UNL     1      -9.366   1.240  -6.693  0.00  0.00    +0.160 HD
ENDBRANCH  20  21
ENDBRANCH  19  20
ENDBRANCH  16  19
ENDBRANCH  15  16
ENDBRANCH   9  15
BRANCH   7  31
ATOM     31  C   UNL     1      -1.740  -5.102   0.009  0.00  0.00    +0.142 C 
BRANCH  31  32
ATOM     32  C   UNL     1      -1.381  -5.467   1.427  0.00  0.00    -0.012 A 
ATOM     33  C   UNL     1      -0.234  -4.953   2.003  0.00  0.00    +0.009 A 
ATOM     34  C   UNL     1       0.095  -5.287   3.303  0.00  0.00    +0.039 A 
ATOM     35  C   UNL     1      -0.723  -6.135   4.029  0.00  0.00    +0.125 A 
ATOM     36  C   UNL     1      -1.872  -6.649   3.452  0.00  0.00    +0.058 A 
ATOM     37  C   UNL     1      -2.203  -6.310   2.153  0.00  0.00    +0.048 A 
ATOM     38 CL   UNL     1      -3.647  -6.949   1.430  0.00  0.00    -0.083 Cl
ATOM     39  F   UNL     1      -0.401  -6.462   5.300  0.00  0.00    -0.205 F 
ENDBRANCH  31  32
ENDBRANCH   7  31
TORSDOF 9
