REMARK  Name = ZINC01906838
REMARK  4 active torsions:
REMARK  status: ('A' for Active; 'I' for Inactive)
REMARK    1  A    between atoms: C_1  and  C_2
REMARK    2  A    between atoms: C_2  and  C_3
REMARK    3  A    between atoms: C_3  and  N_4
REMARK    4  A    between atoms: C_14  and  C_16
REMARK                            x       y       z     vdW  Elec       q    Type
REMARK                         _______ _______ _______ _____ _____    ______ ____
ROOT
ATOM      1  N   UNL     1       0.762  -1.980   1.234  0.00  0.00    +0.380 N 
ATOM      2  C   UNL     1       1.545  -2.451   0.085  0.00  0.00    -0.074 C 
ATOM      3  C   UNL     1       1.504  -3.979   0.027  0.00  0.00    +0.048 C 
ATOM      4  C   UNL     1       2.102  -4.550   1.318  0.00  0.00    +0.177 C 
ATOM      5  C   UNL     1       1.317  -3.995   2.512  0.00  0.00    +0.048 C 
ATOM      6  C   UNL     1       1.365  -2.466   2.480  0.00  0.00    -0.074 C 
ATOM      7  N   UNL     1       2.049  -5.991   1.304  0.00  0.00    -0.177 NA
ATOM      8  C   UNL     1       2.805  -6.546   2.468  0.00  0.00    +0.138 C 
ATOM      9  C   UNL     1       2.384  -7.989   2.420  0.00  0.00    +0.023 C 
ATOM     10  C   UNL     1       1.241  -8.003   1.706  0.00  0.00    +0.047 C 
ATOM     11  N   UNL     1       0.902  -6.691   1.317  0.00  0.00    -0.273 N 
ATOM     12  C   UNL     1       4.236  -6.265   2.116  0.00  0.00    +0.018 A 
ATOM     13  C   UNL     1       5.258  -7.157   2.300  0.00  0.00    +0.024 A 
ATOM     14  C   UNL     1       6.548  -6.809   1.928  0.00  0.00    +0.018 A 
ATOM     15  C   UNL     1       6.791  -5.565   1.373  0.00  0.00    +0.019 A 
ATOM     16  C   UNL     1       5.762  -4.662   1.193  0.00  0.00    +0.047 A 
ATOM     17  C   UNL     1       4.470  -4.998   1.568  0.00  0.00    +0.128 A 
ATOM     18  O   UNL     1       3.467  -4.120   1.424  0.00  0.00    -0.469 OA
ATOM     19 BR   UNL     1       7.970  -8.030   2.179  0.00  0.00    -0.050 Br
ATOM     20  H   UNL     1       0.016  -6.359   1.102  0.00  0.00    +0.167 HD
ATOM     21  H   UNL     1      -0.182  -2.328   1.160  0.00  0.00    -0.082 HD
ENDROOT
BRANCH  10  22
ATOM     22  C   UNL     1       0.458  -9.216   1.379  0.00  0.00    -0.003 A 
ATOM     23  C   UNL     1       0.887 -10.467   1.822  0.00  0.00    +0.011 A 
ATOM     24  C   UNL     1       0.154 -11.594   1.514  0.00  0.00    +0.016 A 
ATOM     25  C   UNL     1      -1.006 -11.485   0.767  0.00  0.00    +0.018 A 
ATOM     26  C   UNL     1      -1.438 -10.246   0.325  0.00  0.00    +0.016 A 
ATOM     27  C   UNL     1      -0.715  -9.112   0.631  0.00  0.00    +0.011 A 
ATOM     28 BR   UNL     1      -2.006 -13.035   0.348  0.00  0.00    -0.050 Br
ENDBRANCH  10  22
BRANCH   1  29
ATOM     29  C   UNL     1       0.742  -0.511   1.242  0.00  0.00    -0.079 C 
BRANCH  29  31
ATOM     30  C   UNL     1      -0.019   1.526   0.010  0.00  0.00    +0.002 C 
ATOM     31  C   UNL     1       0.002  -0.004   0.002  0.00  0.00    -0.022 C 
ENDBRANCH  29  31
ENDBRANCH   1  29
TORSDOF 3
