REMARK  Name = ZINC35427158
REMARK  7 active torsions:
REMARK  status: ('A' for Active; 'I' for Inactive)
REMARK    1  A    between atoms: C_1  and  C_2
REMARK    2  A    between atoms: C_2  and  C_3
REMARK    3  A    between atoms: C_8  and  N_9
REMARK    4  A    between atoms: C_24  and  C_26
REMARK    5  A    between atoms: C_29  and  O_32
REMARK    6  A    between atoms: O_32  and  C_33
REMARK    7  A    between atoms: N_35  and  C_38
REMARK                            x       y       z     vdW  Elec       q    Type
REMARK                         _______ _______ _______ _____ _____    ______ ____
ROOT
ATOM      1  N   UNL     1       2.843  -0.277  -0.144  0.00  0.00    -0.269 N 
ATOM      2  C   UNL     1       4.175  -0.482  -0.110  0.00  0.00    +0.308 C 
ATOM      3  O   UNL     1       4.755  -0.878  -1.102  0.00  0.00    -0.252 OA
ATOM      4  N   UNL     1       4.864  -0.247   1.025  0.00  0.00    -0.268 N 
ATOM      5  C   UNL     1       4.197   0.227   2.250  0.00  0.00    +0.148 C 
ATOM      6  C   UNL     1       5.008   1.264   2.994  0.00  0.00    +0.004 A 
ATOM      7  C   UNL     1       4.632   2.617   3.084  0.00  0.00    -0.034 A 
ATOM      8  C   UNL     1       5.434   3.454   3.796  0.00  0.00    -0.021 A 
ATOM      9  S   UNL     1       6.740   2.401   4.370  0.00  0.00    -0.077 S 
ATOM     10  C   UNL     1       6.164   0.908   3.620  0.00  0.00    +0.090 A 
ATOM     11  N   UNL     1       6.701  -0.372   3.594  0.00  0.00    -0.312 N 
ATOM     12  C   UNL     1       7.214  -1.150   4.575  0.00  0.00    +0.092 A 
ATOM     13  C   UNL     1       7.538  -2.347   4.035  0.00  0.00    +0.020 A 
ATOM     14  C   UNL     1       7.227  -2.290   2.659  0.00  0.00    +0.025 A 
ATOM     15  C   UNL     1       6.740  -1.067   2.407  0.00  0.00    +0.049 A 
ATOM     16  C   UNL     1       6.330  -0.460   1.102  0.00  0.00    +0.155 C 
ATOM     17  C   UNL     1       5.232   4.917   4.018  0.00  0.00    -0.036 C 
ATOM     18  N   UNL     1       4.232   5.398   3.046  0.00  0.00    +0.381 N 
ATOM     19  C   UNL     1       3.054   4.522   3.081  0.00  0.00    -0.074 C 
ATOM     20  C   UNL     1       3.372   3.175   2.426  0.00  0.00    +0.018 C 
ATOM     21  C   UNL     1       3.834   6.769   3.391  0.00  0.00    -0.096 C 
ATOM     22  H   UNL     1       2.390   0.097   0.628  0.00  0.00    +0.156 HD
ATOM     23  H   UNL     1       4.631   5.387   2.119  0.00  0.00    -0.082 HD
ENDROOT
BRANCH   1  29
ATOM     24  C   UNL     1       0.820  -1.095  -1.178  0.00  0.00    -0.026 A 
ATOM     25  C   UNL     1       0.101  -1.413  -2.314  0.00  0.00    +0.005 A 
ATOM     26  C   UNL     1       0.670  -1.248  -3.563  0.00  0.00    +0.000 A 
ATOM     27  C   UNL     1       1.961  -0.765  -3.680  0.00  0.00    +0.002 A 
ATOM     28  C   UNL     1       2.686  -0.446  -2.548  0.00  0.00    +0.023 A 
ATOM     29  C   UNL     1       2.114  -0.605  -1.292  0.00  0.00    +0.038 A 
BRANCH  24  31
ATOM     30  C   UNL     1      -0.419   0.047   0.640  0.00  0.00    +0.009 C 
ATOM     31  C   UNL     1       0.199  -1.275   0.183  0.00  0.00    +0.033 C 
ENDBRANCH  24  31
ENDBRANCH   1  29
BRANCH  16  32
ATOM     32  C   UNL     1       7.027   0.866   0.940  0.00  0.00    -0.021 A 
ATOM     33  C   UNL     1       8.255   1.077   1.540  0.00  0.00    +0.009 A 
ATOM     34  C   UNL     1       8.897   2.292   1.395  0.00  0.00    +0.046 A 
ATOM     35  C   UNL     1       8.309   3.300   0.644  0.00  0.00    +0.120 A 
ATOM     36  C   UNL     1       7.077   3.085   0.043  0.00  0.00    +0.046 A 
ATOM     37  C   UNL     1       6.442   1.867   0.188  0.00  0.00    +0.009 A 
BRANCH  35  38
ATOM     38  O   UNL     1       8.937   4.496   0.500  0.00  0.00    -0.495 OA
ATOM     39  C   UNL     1       8.273   5.487  -0.286  0.00  0.00    +0.277 C 
ENDBRANCH  35  38
ENDBRANCH  16  32
TORSDOF 4
