REMARK  Name = ZINC41586417
REMARK  9 active torsions:
REMARK  status: ('A' for Active; 'I' for Inactive)
REMARK    1  A    between atoms: C_1  and  C_2
REMARK    2  A    between atoms: C_2  and  O_3
REMARK    3  A    between atoms: O_3  and  C_4
REMARK    4  A    between atoms: C_4  and  C_6
REMARK    5  A    between atoms: N_11  and  C_13
REMARK    6  A    between atoms: C_13  and  C_14
REMARK    7  A    between atoms: C_15  and  O_37
REMARK    8  A    between atoms: C_17  and  C_36
REMARK    9  A    between atoms: C_22  and  C_23
REMARK                            x       y       z     vdW  Elec       q    Type
REMARK                         _______ _______ _______ _____ _____    ______ ____
ROOT
ATOM      1  C   UNL     1       2.890  -5.685   5.231  0.00  0.00    +0.020 A 
ATOM      2  C   UNL     1       4.260  -5.834   5.373  0.00  0.00    +0.122 A 
ATOM      3  C   UNL     1       4.793  -6.433   6.511  0.00  0.00    +0.050 A 
ATOM      4  C   UNL     1       3.967  -6.881   7.502  0.00  0.00    -0.033 A 
ATOM      5  C   UNL     1       2.585  -6.737   7.374  0.00  0.00    +0.071 A 
ATOM      6  C   UNL     1       2.036  -6.130   6.233  0.00  0.00    +0.145 A 
ATOM      7  O   UNL     1       0.689  -6.099   6.337  0.00  0.00    -0.451 OA
ATOM      8  C   UNL     1       0.262  -6.649   7.498  0.00  0.00    +0.176 C 
ATOM      9  C   UNL     1      -1.029  -6.770   7.901  0.00  0.00    +0.061 C 
ATOM     10  C   UNL     1       1.448  -7.103   8.238  0.00  0.00    +0.232 C 
ATOM     11  O   UNL     1       1.485  -7.650   9.327  0.00  0.00    -0.283 OA
ATOM     12  C   UNL     1       4.547  -7.529   8.733  0.00  0.00    +0.045 C 
ENDROOT
BRANCH   9  13
ATOM     13  C   UNL     1      -2.103  -6.143   7.122  0.00  0.00    +0.022 A 
ATOM     14  C   UNL     1      -1.869  -5.732   5.804  0.00  0.00    +0.031 A 
ATOM     15  C   UNL     1      -2.882  -5.142   5.080  0.00  0.00    +0.042 A 
ATOM     16  C   UNL     1      -4.131  -4.951   5.652  0.00  0.00    +0.029 A 
ATOM     17  C   UNL     1      -4.376  -5.352   6.953  0.00  0.00    +0.022 A 
ATOM     18  C   UNL     1      -3.374  -5.956   7.692  0.00  0.00    +0.136 A 
ATOM     19  O   UNL     1      -3.605  -6.368   8.965  0.00  0.00    -0.465 OA
ATOM     20  C   UNL     1      -4.766  -5.842   9.614  0.00  0.00    +0.395 C 
ATOM     21  O   UNL     1      -5.880  -5.956   8.720  0.00  0.00    -0.339 OA
ATOM     22  C   UNL     1      -5.741  -5.131   7.555  0.00  0.00    +0.202 C 
ATOM     23 CL   UNL     1      -2.594  -4.634   3.445  0.00  0.00    -0.084 Cl
ENDBRANCH   9  13
BRANCH   2  24
ATOM     24  O   UNL     1       5.090  -5.393   4.393  0.00  0.00    -0.506 OA
ATOM     25  H   UNL     1       5.375  -4.476   4.503  0.00  0.00    +0.292 HD
ENDBRANCH   2  24
BRANCH   1  26
ATOM     26  C   UNL     1       2.326  -5.035   3.994  0.00  0.00    -0.036 C 
BRANCH  26  31
ATOM     27  C   UNL     1       1.368  -1.472   3.307  0.00  0.00    +0.081 C 
ATOM     28  C   UNL     1       2.738  -0.821   3.514  0.00  0.00    +0.011 C 
ATOM     29  C   UNL     1       3.455  -1.521   4.672  0.00  0.00    -0.018 C 
ATOM     30  C   UNL     1       3.564  -3.017   4.369  0.00  0.00    -0.078 C 
ATOM     31  N   UNL     1       2.220  -3.586   4.208  0.00  0.00    +0.383 N 
ATOM     32  C   UNL     1       1.552  -2.970   3.055  0.00  0.00    -0.064 C 
ATOM     33  H   UNL     1       1.679  -3.409   5.041  0.00  0.00    -0.081 HD
BRANCH  27  34
ATOM     34  C   UNL     1       0.685  -0.842   2.120  0.00  0.00    +0.308 C 
ATOM     35  O   UNL     1       0.377  -1.522   1.170  0.00  0.00    -0.251 OA
BRANCH  34  36
ATOM     36  O   UNL     1       0.420   0.474   2.119  0.00  0.00    -0.465 OA
BRANCH  36  38
ATOM     37  C   UNL     1      -0.445   2.507   1.141  0.00  0.00    +0.048 C 
ATOM     38  C   UNL     1      -0.228   1.004   0.961  0.00  0.00    +0.229 C 
ENDBRANCH  36  38
ENDBRANCH  34  36
ENDBRANCH  27  34
ENDBRANCH  26  31
ENDBRANCH   1  26
TORSDOF 7
