REMARK  Name = ZINC12833531
REMARK  13 active torsions:
REMARK  status: ('A' for Active; 'I' for Inactive)
REMARK    1  A    between atoms: C_1  and  C_2
REMARK    2  A    between atoms: C_2  and  O_3
REMARK    3  A    between atoms: O_3  and  C_4
REMARK    4  A    between atoms: C_11  and  C_16
REMARK    5  A    between atoms: C_16  and  N_68
REMARK    6  A    between atoms: C_17  and  C_18
REMARK    7  A    between atoms: C_17  and  N_68
REMARK    8  A    between atoms: C_21  and  O_24
REMARK    9  A    between atoms: O_24  and  C_25
REMARK   10  A    between atoms: C_26  and  C_27
REMARK   11  A    between atoms: C_26  and  N_68
REMARK   12  A    between atoms: N_31  and  C_32
REMARK   13  A    between atoms: C_32  and  C_33
REMARK                            x       y       z     vdW  Elec       q    Type
REMARK                         _______ _______ _______ _____ _____    ______ ____
ROOT
ATOM      1  N   UNL     1       0.007  -0.769   1.768  0.00  0.00    +0.390 N 
ATOM      2  H   UNL     1       0.266   0.205   1.571  0.00  0.00    -0.080 HD
ENDROOT
BRANCH   1   3
ATOM      3  C   UNL     1       0.843  -1.665   0.941  0.00  0.00    -0.036 C 
BRANCH   3  11
ATOM      4  C   UNL     1       3.170   1.638  -3.761  0.00  0.00    +0.121 A 
ATOM      5  C   UNL     1       2.176   1.309  -4.681  0.00  0.00    +0.047 A 
ATOM      6  C   UNL     1       1.137   0.479  -4.325  0.00  0.00    +0.030 A 
ATOM      7  C   UNL     1       1.073  -0.040  -3.036  0.00  0.00    +0.049 A 
ATOM      8  C   UNL     1       2.074   0.289  -2.103  0.00  0.00    +0.002 A 
ATOM      9  C   UNL     1       3.125   1.134  -2.477  0.00  0.00    +0.055 A 
ATOM     10  C   UNL     1       1.994  -0.265  -0.750  0.00  0.00    +0.017 A 
ATOM     11  C   UNL     1       0.954  -1.078  -0.443  0.00  0.00    +0.001 A 
ATOM     12  C   UNL     1      -0.022  -1.383  -1.416  0.00  0.00    +0.251 A 
ATOM     13  O   UNL     1      -0.946  -2.120  -1.121  0.00  0.00    -0.268 OA
ATOM     14  N   UNL     1       0.040  -0.875  -2.660  0.00  0.00    -0.322 N 
ATOM     15  H   UNL     1      -0.650  -1.101  -3.303  0.00  0.00    +0.169 HD
BRANCH   4  16
ATOM     16  O   UNL     1       4.188   2.460  -4.130  0.00  0.00    -0.492 OA
BRANCH  16  18
ATOM     17  C   UNL     1       5.281   4.009  -5.629  0.00  0.00    +0.048 C 
ATOM     18  C   UNL     1       4.119   3.032  -5.438  0.00  0.00    +0.225 C 
ENDBRANCH  16  18
ENDBRANCH   4  16
ENDBRANCH   3  11
ENDBRANCH   1   3
BRANCH   1  19
ATOM     19  C   UNL     1       0.237  -1.046   3.202  0.00  0.00    -0.042 C 
BRANCH  19  20
ATOM     20  C   UNL     1       1.609  -0.548   3.578  0.00  0.00    -0.064 A 
ATOM     21  C   UNL     1       2.676  -1.426   3.614  0.00  0.00    +0.005 A 
ATOM     22  C   UNL     1       3.936  -0.971   3.953  0.00  0.00    +0.046 A 
ATOM     23  C   UNL     1       4.126   0.367   4.269  0.00  0.00    +0.120 A 
ATOM     24  C   UNL     1       3.053   1.244   4.238  0.00  0.00    +0.046 A 
ATOM     25  C   UNL     1       1.796   0.785   3.893  0.00  0.00    +0.005 A 
BRANCH  23  26
ATOM     26  O   UNL     1       5.363   0.816   4.608  0.00  0.00    -0.495 OA
ATOM     27  C   UNL     1       6.442  -0.117   4.511  0.00  0.00    +0.277 C 
ENDBRANCH  23  26
ENDBRANCH  19  20
ENDBRANCH   1  19
BRANCH   1  28
ATOM     28  C   UNL     1      -1.421  -0.963   1.439  0.00  0.00    +0.001 C 
BRANCH  28  29
ATOM     29  C   UNL     1      -2.233   0.081   2.161  0.00  0.00    +0.135 A 
ATOM     30  N   UNL     1      -2.705  -0.001   3.381  0.00  0.00    -0.115 NA
ATOM     31  N   UNL     1      -3.348   1.087   3.633  0.00  0.00    -0.023 NA
ATOM     32  N   UNL     1      -3.293   1.863   2.607  0.00  0.00    -0.044 NA
ATOM     33  N   UNL     1      -2.611   1.280   1.680  0.00  0.00    -0.227 N 
BRANCH  33  34
ATOM     34  C   UNL     1      -2.311   1.818   0.351  0.00  0.00    +0.182 C 
BRANCH  34  35
ATOM     35  C   UNL     1      -1.126   2.745   0.441  0.00  0.00    -0.026 A 
ATOM     36  C   UNL     1       0.157   2.235   0.389  0.00  0.00    +0.005 A 
ATOM     37  C   UNL     1       1.243   3.086   0.466  0.00  0.00    +0.000 A 
ATOM     38  C   UNL     1       1.046   4.448   0.600  0.00  0.00    +0.000 A 
ATOM     39  C   UNL     1      -0.237   4.958   0.657  0.00  0.00    +0.000 A 
ATOM     40  C   UNL     1      -1.324   4.107   0.580  0.00  0.00    +0.005 A 
ENDBRANCH  34  35
ENDBRANCH  33  34
ENDBRANCH  28  29
ENDBRANCH   1  28
TORSDOF 11
