REMARK  Name = ZINC08595405
REMARK  9 active torsions:
REMARK  status: ('A' for Active; 'I' for Inactive)
REMARK    1  A    between atoms: C_1  and  C_2
REMARK    2  A    between atoms: C_2  and  C_4
REMARK    3  A    between atoms: C_2  and  N_10
REMARK    4  A    between atoms: C_11  and  C_13
REMARK    5  A    between atoms: C_20  and  S_25
REMARK    6  A    between atoms: S_25  and  N_28
REMARK    7  A    between atoms: N_28  and  C_29
REMARK    8  A    between atoms: C_33  and  O_35
REMARK    9  A    between atoms: O_35  and  C_36
REMARK                            x       y       z     vdW  Elec       q    Type
REMARK                         _______ _______ _______ _____ _____    ______ ____
ROOT
ATOM      1  C   UNL     1      -3.229  -1.876  -1.508  0.00  0.00    +0.100 A 
ATOM      2  C   UNL     1      -3.954  -2.117  -2.657  0.00  0.00    +0.100 A 
ATOM      3  N   UNL     1      -5.217  -2.562  -2.625  0.00  0.00    -0.360 N 
ATOM      4  H   UNL     1      -5.677  -2.714  -3.465  0.00  0.00    +0.165 HD
ATOM      5  C   UNL     1      -5.890  -2.814  -1.449  0.00  0.00    +0.050 A 
ATOM      6  C   UNL     1      -7.203  -3.276  -1.470  0.00  0.00    +0.028 A 
ATOM      7  C   UNL     1      -7.864  -3.525  -0.288  0.00  0.00    +0.031 A 
ATOM      8  C   UNL     1      -7.237  -3.318   0.933  0.00  0.00    +0.109 A 
ATOM      9  C   UNL     1      -5.939  -2.860   0.978  0.00  0.00    +0.042 A 
ATOM     10  C   UNL     1      -5.256  -2.606  -0.212  0.00  0.00    +0.048 A 
ATOM     11  C   UNL     1      -3.864  -2.121  -0.203  0.00  0.00    +0.202 A 
ATOM     12  O   UNL     1      -3.265  -1.928   0.840  0.00  0.00    -0.286 OA
ENDROOT
BRANCH   1  14
ATOM     13  N   UNL     1      -1.109  -1.262  -0.464  0.00  0.00    -0.305 N 
ATOM     14  C   UNL     1      -1.844  -1.387  -1.587  0.00  0.00    +0.250 C 
ATOM     15  O   UNL     1      -1.361  -1.096  -2.664  0.00  0.00    -0.270 OA
ATOM     16  H   UNL     1      -1.515  -1.425   0.402  0.00  0.00    +0.150 HD
BRANCH  13  18
ATOM     17  C   UNL     1       0.417   0.642  -0.620  0.00  0.00    +0.033 C 
ATOM     18  C   UNL     1       0.303  -0.882  -0.551  0.00  0.00    +0.100 C 
BRANCH  18  19
ATOM     19  C   UNL     1       1.036  -1.386   0.666  0.00  0.00    -0.027 A 
ATOM     20  C   UNL     1       0.434  -1.325   1.909  0.00  0.00    +0.005 A 
ATOM     21  C   UNL     1       1.106  -1.787   3.025  0.00  0.00    +0.000 A 
ATOM     22  C   UNL     1       2.379  -2.312   2.898  0.00  0.00    +0.000 A 
ATOM     23  C   UNL     1       2.979  -2.374   1.655  0.00  0.00    +0.000 A 
ATOM     24  C   UNL     1       2.306  -1.915   0.538  0.00  0.00    +0.005 A 
ENDBRANCH  18  19
ENDBRANCH  13  18
ENDBRANCH   1  14
BRANCH   8  25
ATOM     25  S   UNL     1      -8.105  -3.642   2.431  0.00  0.00    +0.072 S 
ATOM     26  O   UNL     1      -7.568  -2.763   3.410  0.00  0.00    -0.150 OA
ATOM     27  O   UNL     1      -9.488  -3.664   2.103  0.00  0.00    -0.150 OA
BRANCH  25  28
ATOM     28  N   UNL     1      -7.707  -5.178   2.905  0.00  0.00    -0.216 N 
ATOM     29  H   UNL     1      -7.237  -5.321   3.741  0.00  0.00    +0.174 HD
BRANCH  28  30
ATOM     30  C   UNL     1      -8.050  -6.268   2.101  0.00  0.00    +0.052 A 
ATOM     31  C   UNL     1      -9.321  -6.351   1.547  0.00  0.00    +0.025 A 
ATOM     32  C   UNL     1      -9.659  -7.428   0.752  0.00  0.00    +0.005 A 
ATOM     33  C   UNL     1      -8.735  -8.426   0.505  0.00  0.00    +0.046 A 
ATOM     34  C   UNL     1      -7.464  -8.348   1.056  0.00  0.00    +0.122 A 
ATOM     35  C   UNL     1      -7.119  -7.266   1.851  0.00  0.00    +0.070 A 
BRANCH  34  36
ATOM     36  O   UNL     1      -6.556  -9.330   0.813  0.00  0.00    -0.495 OA
ATOM     37  C   UNL     1      -6.979 -10.413  -0.018  0.00  0.00    +0.277 C 
ENDBRANCH  34  36
ENDBRANCH  28  30
ENDBRANCH  25  28
ENDBRANCH   8  25
TORSDOF 7
