REMARK  Name = ZINC58520671
REMARK  4 active torsions:
REMARK  status: ('A' for Active; 'I' for Inactive)
REMARK    1  A    between atoms: C_1  and  C_2
REMARK    2  A    between atoms: C_2  and  N_3
REMARK    3  A    between atoms: N_14  and  N_15
REMARK    4  A    between atoms: C_16  and  C_18
REMARK                            x       y       z     vdW  Elec       q    Type
REMARK                         _______ _______ _______ _____ _____    ______ ____
ROOT
ATOM      1  N   UNL     1       0.688  -0.476  -1.203  0.00  0.00    -0.280 N 
ATOM      2  C   UNL     1      -0.021  -0.698  -2.335  0.00  0.00    +0.263 A 
ATOM      3  O   UNL     1      -1.223  -0.512  -2.373  0.00  0.00    -0.267 OA
ATOM      4  C   UNL     1       0.715  -1.171  -3.515  0.00  0.00    +0.065 A 
ATOM      5  C   UNL     1       0.077  -1.429  -4.728  0.00  0.00    +0.015 A 
ATOM      6  C   UNL     1       0.810  -1.867  -5.795  0.00  0.00    +0.001 A 
ATOM      7  C   UNL     1       2.182  -2.059  -5.684  0.00  0.00    +0.002 A 
ATOM      8  C   UNL     1       2.832  -1.815  -4.507  0.00  0.00    +0.028 A 
ATOM      9  C   UNL     1       2.111  -1.365  -3.398  0.00  0.00    +0.080 A 
ATOM     10  N   UNL     1       2.714  -1.111  -2.213  0.00  0.00    -0.214 NA
ATOM     11  C   UNL     1       2.036  -0.684  -1.177  0.00  0.00    +0.216 A 
ATOM     12  N   UNL     1       2.713  -0.440  -0.009  0.00  0.00    -0.234 N 
ATOM     13  H   UNL     1       2.232  -0.127   0.774  0.00  0.00    +0.173 HD
ENDROOT
BRANCH  12  14
ATOM     14  N   UNL     1       4.098  -0.642   0.054  0.00  0.00    -0.231 N 
ATOM     15  C   UNL     1       4.762  -0.402   1.202  0.00  0.00    +0.270 C 
ATOM     16  O   UNL     1       4.161  -0.011   2.180  0.00  0.00    -0.270 OA
ATOM     17  H   UNL     1       4.578  -0.954  -0.728  0.00  0.00    +0.173 HD
BRANCH  15  18
ATOM     18  C   UNL     1       6.252  -0.619   1.270  0.00  0.00    +0.264 C 
ATOM     19  C   UNL     1       6.996   0.407   0.383  0.00  0.00    +0.093 C 
ATOM     20  C   UNL     1       7.300   1.515   1.373  0.00  0.00    -0.002 A 
ATOM     21  C   UNL     1       7.692   2.825   1.204  0.00  0.00    +0.007 A 
ATOM     22  C   UNL     1       7.896   3.633   2.308  0.00  0.00    +0.000 A 
ATOM     23  C   UNL     1       7.706   3.121   3.579  0.00  0.00    +0.004 A 
ATOM     24  C   UNL     1       7.317   1.809   3.750  0.00  0.00    +0.046 A 
ATOM     25  C   UNL     1       7.112   0.988   2.644  0.00  0.00    +0.125 A 
ATOM     26  O   UNL     1       6.750  -0.328   2.587  0.00  0.00    -0.479 OA
ENDBRANCH  15  18
ENDBRANCH  12  14
BRANCH   1  28
ATOM     27  C   UNL     1      -0.019   1.526   0.010  0.00  0.00    +0.027 C 
ATOM     28  C   UNL     1       0.002  -0.004   0.002  0.00  0.00    +0.125 C 
ENDBRANCH   1  28
TORSDOF 3
