REMARK  Name = ZINC23654387
REMARK  7 active torsions:
REMARK  status: ('A' for Active; 'I' for Inactive)
REMARK    1  A    between atoms: C_1  and  C_2
REMARK    2  A    between atoms: C_3  and  C_12
REMARK    3  A    between atoms: C_12  and  C_14
REMARK    4  A    between atoms: C_14  and  C_16
REMARK    5  A    between atoms: C_14  and  N_17
REMARK    6  A    between atoms: C_19  and  C_26
REMARK    7  A    between atoms: C_22  and  C_25
REMARK                            x       y       z     vdW  Elec       q    Type
REMARK                         _______ _______ _______ _____ _____    ______ ____
ROOT
ATOM      1  C   UNL     1      -2.567   2.176  -0.118  0.00  0.00    +0.182 C 
ATOM      2  O   UNL     1      -3.083   1.077  -0.091  0.00  0.00    -0.290 OA
ENDROOT
BRANCH   1   5
ATOM      3  C   UNL     1      -0.548   2.432   2.221  0.00  0.00    +0.064 C 
ATOM      4  C   UNL     1      -0.232   2.412   0.748  0.00  0.00    +0.024 A 
ATOM      5  C   UNL     1      -1.162   2.296  -0.263  0.00  0.00    +0.047 A 
ATOM      6  C   UNL     1      -0.401   2.321  -1.528  0.00  0.00    +0.010 A 
ATOM      7  C   UNL     1      -0.755   2.243  -2.871  0.00  0.00    +0.011 A 
ATOM      8  C   UNL     1       0.223   2.304  -3.840  0.00  0.00    +0.001 A 
ATOM      9  C   UNL     1       1.556   2.442  -3.480  0.00  0.00    +0.002 A 
ATOM     10  C   UNL     1       1.920   2.520  -2.153  0.00  0.00    +0.026 A 
ATOM     11  C   UNL     1       0.947   2.460  -1.161  0.00  0.00    +0.047 A 
ATOM     12  N   UNL     1       1.002   2.511   0.217  0.00  0.00    -0.358 N 
ATOM     13  H   UNL     1       1.877   2.616   0.876  0.00  0.00    +0.166 HD
ENDBRANCH   1   5
BRANCH   1  14
ATOM     14  C   UNL     1      -3.420   3.412   0.004  0.00  0.00    +0.125 C 
ATOM     15  C   UNL     1      -3.676   3.994  -1.388  0.00  0.00    +0.032 C 
BRANCH  14  16
ATOM     16  N   UNL     1      -4.701   3.063   0.632  0.00  0.00    -0.288 NA
ATOM     17  C   UNL     1      -5.628   4.204   0.609  0.00  0.00    +0.116 C 
ATOM     18  C   UNL     1      -6.967   3.780   1.218  0.00  0.00    +0.130 C 
ATOM     19  O   UNL     1      -6.748   3.287   2.543  0.00  0.00    -0.371 OA
ATOM     20  C   UNL     1      -5.851   2.175   2.602  0.00  0.00    +0.130 C 
ATOM     21  C   UNL     1      -4.500   2.583   2.007  0.00  0.00    +0.116 C 
ATOM     22  C   UNL     1      -5.659   1.748   4.059  0.00  0.00    +0.039 C 
ATOM     23  C   UNL     1      -7.592   2.678   0.360  0.00  0.00    +0.039 C 
ENDBRANCH  14  16
ENDBRANCH   1  14
TORSDOF 3
