REMARK  Name = ZINC12377051
REMARK  6 active torsions:
REMARK  status: ('A' for Active; 'I' for Inactive)
REMARK    1  A    between atoms: C_4  and  C_7
REMARK    2  A    between atoms: C_17  and  S_20
REMARK    3  A    between atoms: S_20  and  C_21
REMARK    4  A    between atoms: C_21  and  C_22
REMARK    5  A    between atoms: N_24  and  C_25
REMARK    6  A    between atoms: C_25  and  C_26
REMARK                            x       y       z     vdW  Elec       q    Type
REMARK                         _______ _______ _______ _____ _____    ______ ____
ROOT
ATOM      1  C   UNL     1      -7.255   2.363   0.047  0.00  0.00    +0.149 A 
ATOM      2  N   UNL     1      -8.285   2.239  -0.746  0.00  0.00    -0.228 NA
ATOM      3  C   UNL     1      -9.019   1.101  -0.808  0.00  0.00    +0.077 A 
ATOM      4  C   UNL     1     -10.117   0.992  -1.665  0.00  0.00    +0.028 A 
ATOM      5  C   UNL     1     -10.841  -0.179  -1.704  0.00  0.00    +0.002 A 
ATOM      6  C   UNL     1     -10.495  -1.255  -0.900  0.00  0.00    +0.001 A 
ATOM      7  C   UNL     1      -9.415  -1.173  -0.046  0.00  0.00    +0.014 A 
ATOM      8  C   UNL     1      -8.670   0.001   0.010  0.00  0.00    +0.045 A 
ATOM      9  C   UNL     1      -7.511   0.147   0.899  0.00  0.00    +0.173 A 
ATOM     10  N   UNL     1      -6.840   1.356   0.884  0.00  0.00    -0.253 N 
ATOM     11  C   UNL     1      -5.824   1.219   1.784  0.00  0.00    +0.198 A 
ATOM     12  N   UNL     1      -5.912   0.009   2.291  0.00  0.00    -0.122 NA
ATOM     13  N   UNL     1      -6.906  -0.621   1.769  0.00  0.00    -0.128 NA
ENDROOT
BRANCH   1  17
ATOM     14  C   UNL     1      -5.119   6.033   0.056  0.00  0.00    +0.000 A 
ATOM     15  C   UNL     1      -4.445   4.845  -0.162  0.00  0.00    +0.001 A 
ATOM     16  C   UNL     1      -5.132   3.649  -0.166  0.00  0.00    +0.011 A 
ATOM     17  C   UNL     1      -6.512   3.640   0.051  0.00  0.00    +0.018 A 
ATOM     18  C   UNL     1      -7.186   4.843   0.264  0.00  0.00    +0.011 A 
ATOM     19  C   UNL     1      -6.486   6.031   0.271  0.00  0.00    +0.001 A 
ENDBRANCH   1  17
BRANCH  11  20
ATOM     20  S   UNL     1      -4.621   2.439   2.195  0.00  0.00    -0.076 S 
BRANCH  20  21
ATOM     21  C   UNL     1      -3.658   1.529   3.428  0.00  0.00    +0.173 C 
BRANCH  21  22
ATOM     22  C   UNL     1      -2.540   2.401   3.937  0.00  0.00    +0.224 C 
ATOM     23  O   UNL     1      -2.406   3.527   3.508  0.00  0.00    -0.275 OA
ATOM     24  N   UNL     1      -1.688   1.929   4.869  0.00  0.00    -0.308 N 
ATOM     25  H   UNL     1      -1.794   1.028   5.212  0.00  0.00    +0.149 HD
BRANCH  24  26
ATOM     26  C   UNL     1      -0.596   2.775   5.358  0.00  0.00    +0.178 C 
BRANCH  26  27
ATOM     27  C   UNL     1       0.208   2.015   6.381  0.00  0.00    +0.125 A 
ATOM     28  N   UNL     1       1.343   1.313   6.116  0.00  0.00    -0.341 N 
ATOM     29  H   UNL     1       1.782   1.213   5.223  0.00  0.00    +0.167 HD
ATOM     30  C   UNL     1       1.776   0.766   7.307  0.00  0.00    +0.066 A 
ATOM     31  C   UNL     1       2.852  -0.032   7.670  0.00  0.00    +0.028 A 
ATOM     32  C   UNL     1       3.004  -0.418   8.985  0.00  0.00    +0.002 A 
ATOM     33  C   UNL     1       2.088  -0.013   9.946  0.00  0.00    +0.002 A 
ATOM     34  C   UNL     1       1.023   0.773   9.608  0.00  0.00    +0.030 A 
ATOM     35  C   UNL     1       0.849   1.175   8.281  0.00  0.00    +0.089 A 
ATOM     36  N   UNL     1      -0.079   1.939   7.648  0.00  0.00    -0.231 NA
ENDBRANCH  26  27
ENDBRANCH  24  26
ENDBRANCH  21  22
ENDBRANCH  20  21
ENDBRANCH  11  20
TORSDOF 6
