REMARK  Name = ZINC13063941
REMARK  10 active torsions:
REMARK  status: ('A' for Active; 'I' for Inactive)
REMARK    1  A    between atoms: C_1  and  C_2
REMARK    2  A    between atoms: C_2  and  C_3
REMARK    3  A    between atoms: C_3  and  C_5
REMARK    4  A    between atoms: C_3  and  N_69
REMARK    5  A    between atoms: N_9  and  C_10
REMARK    6  A    between atoms: C_10  and  C_11
REMARK    7  A    between atoms: C_18  and  C_19
REMARK    8  A    between atoms: C_18  and  N_69
REMARK    9  A    between atoms: C_24  and  C_31
REMARK   10  A    between atoms: C_32  and  N_69
REMARK                            x       y       z     vdW  Elec       q    Type
REMARK                         _______ _______ _______ _____ _____    ______ ____
ROOT
ATOM      1  N   UNL     1      -0.607  -1.866   0.845  0.00  0.00    +0.391 N 
ATOM      2  H   UNL     1       0.322  -2.292   0.739  0.00  0.00    -0.080 HD
ENDROOT
BRANCH   1   3
ATOM      3  C   UNL     1      -0.723  -1.298   2.204  0.00  0.00    -0.067 C 
ATOM      4  C   UNL     1      -0.123   0.109   2.220  0.00  0.00    -0.015 C 
ATOM      5  C   UNL     1      -0.217   0.688   3.633  0.00  0.00    -0.002 C 
ATOM      6  C   UNL     1       0.556  -0.207   4.603  0.00  0.00    -0.000 C 
ATOM      7  C   UNL     1      -0.044  -1.614   4.588  0.00  0.00    -0.002 C 
ATOM      8  C   UNL     1       0.050  -2.193   3.175  0.00  0.00    -0.015 C 
ENDBRANCH   1   3
BRANCH   1   9
ATOM      9  C   UNL     1      -0.762  -0.797  -0.164  0.00  0.00    +0.003 C 
BRANCH   9  10
ATOM     10  C   UNL     1      -0.130  -1.255  -1.453  0.00  0.00    +0.138 A 
ATOM     11  N   UNL     1      -0.081  -2.484  -1.908  0.00  0.00    -0.115 NA
ATOM     12  N   UNL     1       0.542  -2.466  -3.035  0.00  0.00    -0.023 NA
ATOM     13  N   UNL     1       0.892  -1.259  -3.312  0.00  0.00    -0.044 NA
ATOM     14  N   UNL     1       0.496  -0.483  -2.361  0.00  0.00    -0.226 N 
BRANCH  14  15
ATOM     15  C   UNL     1       0.686   0.968  -2.285  0.00  0.00    +0.182 C 
BRANCH  15  16
ATOM     16  C   UNL     1       2.033   1.267  -1.680  0.00  0.00    -0.026 A 
ATOM     17  C   UNL     1       2.136   1.562  -0.334  0.00  0.00    +0.008 A 
ATOM     18  C   UNL     1       3.372   1.832   0.223  0.00  0.00    +0.038 A 
ATOM     19  C   UNL     1       4.506   1.818  -0.571  0.00  0.00    +0.123 A 
ATOM     20  C   UNL     1       4.401   1.528  -1.921  0.00  0.00    +0.038 A 
ATOM     21  C   UNL     1       3.165   1.253  -2.474  0.00  0.00    +0.008 A 
ATOM     22  F   UNL     1       5.714   2.086  -0.029  0.00  0.00    -0.205 F 
ENDBRANCH  15  16
ENDBRANCH  14  15
ENDBRANCH   9  10
BRANCH   9  24
ATOM     23  C   UNL     1      -2.849   0.114   0.864  0.00  0.00    +0.002 C 
ATOM     24  C   UNL     1      -2.244  -0.497  -0.402  0.00  0.00    -0.011 C 
ENDBRANCH   9  24
ENDBRANCH   1   9
BRANCH   1  25
ATOM     25  C   UNL     1      -1.637  -2.906   0.642  0.00  0.00    -0.036 C 
BRANCH  25  26
ATOM     26  C   UNL     1      -1.233  -4.143   1.401  0.00  0.00    +0.001 A 
ATOM     27  C   UNL     1      -1.800  -4.413   2.603  0.00  0.00    +0.017 A 
ATOM     28  C   UNL     1      -1.389  -5.626   3.313  0.00  0.00    -0.001 A 
ATOM     29  C   UNL     1      -1.942  -5.961   4.554  0.00  0.00    +0.010 A 
ATOM     30  C   UNL     1      -1.533  -7.096   5.193  0.00  0.00    +0.004 A 
ATOM     31  C   UNL     1      -0.572  -7.921   4.623  0.00  0.00    -0.048 A 
ATOM     32  C   UNL     1      -0.015  -7.612   3.402  0.00  0.00    +0.029 A 
ATOM     33  C   UNL     1      -0.415  -6.460   2.732  0.00  0.00    +0.049 A 
ATOM     34  N   UNL     1       0.127  -6.125   1.510  0.00  0.00    -0.322 N 
ATOM     35  H   UNL     1       0.798  -6.701   1.110  0.00  0.00    +0.169 HD
ATOM     36  C   UNL     1      -0.260  -5.013   0.862  0.00  0.00    +0.251 A 
ATOM     37  O   UNL     1       0.241  -4.748  -0.217  0.00  0.00    -0.268 OA
ATOM     38  C   UNL     1      -0.136  -9.169   5.347  0.00  0.00    +0.044 C 
ENDBRANCH  25  26
ENDBRANCH   1  25
TORSDOF 8
