REMARK  Name = ZINC49508646
REMARK  10 active torsions:
REMARK  status: ('A' for Active; 'I' for Inactive)
REMARK    1  A    between atoms: C_1  and  C_2
REMARK    2  A    between atoms: C_2  and  C_3
REMARK    3  A    between atoms: C_2  and  C_4
REMARK    4  A    between atoms: C_13  and  N_16
REMARK    5  A    between atoms: C_17  and  C_19
REMARK    6  A    between atoms: N_21  and  C_22
REMARK    7  A    between atoms: C_22  and  C_23
REMARK    8  A    between atoms: C_23  and  C_25
REMARK    9  A    between atoms: C_23  and  N_36
REMARK   10  A    between atoms: N_34  and  C_35
REMARK                            x       y       z     vdW  Elec       q    Type
REMARK                         _______ _______ _______ _____ _____    ______ ____
ROOT
ATOM      1  C   UNL     1      -6.738  -4.219   3.054  0.00  0.00    +0.299 C 
ATOM      2  O   UNL     1      -5.848  -4.474   3.839  0.00  0.00    -0.265 OA
ATOM      3  N   UNL     1      -7.992  -4.653   3.294  0.00  0.00    -0.309 N 
ATOM      4  H   UNL     1      -8.703  -4.449   2.667  0.00  0.00    +0.149 HD
ENDROOT
BRANCH   1   6
ATOM      5  N   UNL     1      -5.191  -2.992   1.585  0.00  0.00    -0.278 N 
ATOM      6  C   UNL     1      -6.445  -3.425   1.824  0.00  0.00    +0.303 C 
ATOM      7  O   UNL     1      -7.335  -3.171   1.039  0.00  0.00    -0.265 OA
ATOM      8  H   UNL     1      -4.467  -3.253   2.174  0.00  0.00    +0.155 HD
BRANCH   5  18
ATOM      9  C   UNL     1      -1.230  -2.237  -1.400  0.00  0.00    +0.222 C 
ATOM     10  O   UNL     1      -1.379  -2.795  -0.333  0.00  0.00    -0.275 OA
ATOM     11  N   UNL     1      -2.251  -1.552  -1.951  0.00  0.00    -0.271 N 
ATOM     12  C   UNL     1      -2.098  -0.913  -3.265  0.00  0.00    +0.114 C 
ATOM     13  C   UNL     1      -2.697   0.496  -3.174  0.00  0.00    +0.024 C 
ATOM     14  C   UNL     1      -4.193   0.379  -2.881  0.00  0.00    +0.038 C 
ATOM     15  C   UNL     1      -4.430  -0.519  -1.695  0.00  0.00    -0.026 A 
ATOM     16  C   UNL     1      -3.478  -1.440  -1.282  0.00  0.00    +0.041 A 
ATOM     17  C   UNL     1      -3.728  -2.262  -0.191  0.00  0.00    +0.047 A 
ATOM     18  C   UNL     1      -4.935  -2.166   0.487  0.00  0.00    +0.036 A 
ATOM     19  C   UNL     1      -5.889  -1.245   0.070  0.00  0.00    +0.024 A 
ATOM     20  C   UNL     1      -5.631  -0.420  -1.011  0.00  0.00    +0.007 A 
BRANCH   9  22
ATOM     21  C   UNL     1       0.863  -1.002  -1.896  0.00  0.00    +0.017 C 
ATOM     22  C   UNL     1       0.098  -2.311  -2.108  0.00  0.00    +0.069 C 
ATOM     23  C   UNL     1       0.914  -3.475  -1.544  0.00  0.00    +0.017 C 
ENDBRANCH   9  22
ENDBRANCH   5  18
ENDBRANCH   1   6
BRANCH   3  24
ATOM     24  C   UNL     1      -8.279  -5.432   4.501  0.00  0.00    +0.094 C 
BRANCH  24  25
ATOM     25  C   UNL     1      -9.738  -5.892   4.475  0.00  0.00    -0.020 C 
BRANCH  25  26
ATOM     26  C   UNL     1     -10.646  -4.691   4.545  0.00  0.00    -0.059 A 
ATOM     27  C   UNL     1     -10.889  -4.081   5.763  0.00  0.00    +0.004 A 
ATOM     28  C   UNL     1     -11.722  -2.982   5.827  0.00  0.00    +0.023 A 
ATOM     29  C   UNL     1     -12.313  -2.488   4.670  0.00  0.00    +0.033 A 
ATOM     30  C   UNL     1     -12.066  -3.097   3.450  0.00  0.00    -0.026 A 
ATOM     31  C   UNL     1     -11.227  -4.198   3.394  0.00  0.00    +0.007 A 
ATOM     32  C   UNL     1     -12.680  -2.584   2.175  0.00  0.00    +0.038 C 
ATOM     33  C   UNL     1     -13.913  -1.733   2.479  0.00  0.00    +0.024 C 
ATOM     34  C   UNL     1     -13.539  -0.674   3.525  0.00  0.00    +0.105 C 
ATOM     35  N   UNL     1     -13.158  -1.376   4.758  0.00  0.00    -0.333 N 
ATOM     36  C   UNL     1     -13.653  -0.918   6.059  0.00  0.00    +0.129 C 
ENDBRANCH  25  26
BRANCH  25  37
ATOM     37  N   UNL     1      -9.995  -6.769   5.625  0.00  0.00    +0.385 N 
ATOM     38  C   UNL     1     -11.374  -7.316   5.554  0.00  0.00    -0.078 C 
ATOM     39  C   UNL     1     -11.299  -8.585   6.439  0.00  0.00    -0.020 C 
ATOM     40  C   UNL     1      -9.891  -9.142   6.125  0.00  0.00    -0.020 C 
ATOM     41  C   UNL     1      -9.094  -7.941   5.585  0.00  0.00    -0.078 C 
ATOM     42  H   UNL     1      -9.866  -6.260   6.487  0.00  0.00    -0.081 HD
ENDBRANCH  25  37
ENDBRANCH  24  25
ENDBRANCH   3  24
TORSDOF 7
