REMARK  Name = ZINC02109606
REMARK  9 active torsions:
REMARK  status: ('A' for Active; 'I' for Inactive)
REMARK    1  A    between atoms: C_1  and  C_2
REMARK    2  A    between atoms: C_2  and  C_3
REMARK    3  A    between atoms: C_3  and  C_5
REMARK    4  A    between atoms: C_3  and  C_6
REMARK    5  A    between atoms: C_9  and  C_12
REMARK    6  A    between atoms: C_14  and  C_22
REMARK    7  A    between atoms: N_24  and  N_25
REMARK    8  A    between atoms: C_26  and  C_27
REMARK    9  A    between atoms: C_28  and  C_32
REMARK                            x       y       z     vdW  Elec       q    Type
REMARK                         _______ _______ _______ _____ _____    ______ ____
ROOT
ATOM      1  C   UNL     1       3.660   2.163  -0.009  0.00  0.00    +0.072 A 
ATOM      2  C   UNL     1       3.616   3.565  -0.000  0.00  0.00    +0.042 A 
ATOM      3  C   UNL     1       4.803   4.285  -0.022  0.00  0.00    +0.050 A 
ATOM      4  C   UNL     1       6.050   3.520  -0.053  0.00  0.00    +0.013 A 
ATOM      5  C   UNL     1       7.297   4.156  -0.077  0.00  0.00    +0.011 A 
ATOM      6  C   UNL     1       8.435   3.405  -0.106  0.00  0.00    +0.001 A 
ATOM      7  C   UNL     1       8.372   2.014  -0.111  0.00  0.00    +0.002 A 
ATOM      8  C   UNL     1       7.177   1.364  -0.088  0.00  0.00    +0.028 A 
ATOM      9  C   UNL     1       5.980   2.105  -0.059  0.00  0.00    +0.072 A 
ATOM     10  N   UNL     1       4.794   1.495  -0.031  0.00  0.00    -0.247 NA
ENDROOT
BRANCH   1  14
ATOM     11  C   UNL     1       0.003  -0.004   0.060  0.00  0.00    -0.045 A 
ATOM     12  C   UNL     1      -0.016   1.379   0.068  0.00  0.00    +0.004 A 
ATOM     13  C   UNL     1       1.168   2.088   0.046  0.00  0.00    +0.010 A 
ATOM     14  C   UNL     1       2.384   1.407   0.016  0.00  0.00    +0.000 A 
ATOM     15  C   UNL     1       2.397   0.013   0.008  0.00  0.00    +0.010 A 
ATOM     16  C   UNL     1       1.207  -0.685   0.031  0.00  0.00    +0.004 A 
BRANCH  11  17
ATOM     17  C   UNL     1      -1.293  -0.773   0.085  0.00  0.00    +0.016 C 
ATOM     18  C   UNL     1      -1.337  -1.660   1.330  0.00  0.00    +0.012 C 
BRANCH  17  20
ATOM     19  C   UNL     1      -2.759  -2.331  -1.206  0.00  0.00    +0.004 C 
ATOM     20  C   UNL     1      -1.391  -1.647  -1.168  0.00  0.00    +0.004 C 
ENDBRANCH  17  20
ENDBRANCH  11  17
ENDBRANCH   1  14
BRANCH   3  21
ATOM     21  C   UNL     1       4.807   5.763  -0.014  0.00  0.00    +0.264 C 
ATOM     22  O   UNL     1       5.858   6.367   0.071  0.00  0.00    -0.268 OA
ATOM     23  N   UNL     1       3.645   6.440  -0.101  0.00  0.00    -0.203 N 
ATOM     24  H   UNL     1       2.806   5.957  -0.169  0.00  0.00    +0.178 HD
BRANCH  23  25
ATOM     25  N   UNL     1       3.648   7.841  -0.094  0.00  0.00    -0.187 NA
ATOM     26  C   UNL     1       2.526   8.495  -0.178  0.00  0.00    +0.145 C 
BRANCH  26  27
ATOM     27  C   UNL     1       2.530   9.961  -0.170  0.00  0.00    +0.035 A 
ATOM     28  C   UNL     1       1.461  10.837  -0.254  0.00  0.00    -0.035 A 
ATOM     29  C   UNL     1       1.720  12.187  -0.222  0.00  0.00    +0.011 A 
ATOM     30  C   UNL     1       3.005  12.617  -0.120  0.00  0.00    +0.046 A 
ATOM     31  S   UNL     1       3.915  11.082  -0.057  0.00  0.00    -0.095 S 
ATOM     32  C   UNL     1       0.050  10.323  -0.374  0.00  0.00    +0.045 C 
ENDBRANCH  26  27
ENDBRANCH  23  25
ENDBRANCH   3  21
TORSDOF 6
