REMARK  Name = ZINC42873483
REMARK  4 active torsions:
REMARK  status: ('A' for Active; 'I' for Inactive)
REMARK    1  A    between atoms: C_1  and  C_2
REMARK    2  A    between atoms: C_4  and  S_8
REMARK    3  A    between atoms: C_5  and  N_7
REMARK    4  A    between atoms: S_8  and  C_9
REMARK                            x       y       z     vdW  Elec       q    Type
REMARK                         _______ _______ _______ _____ _____    ______ ____
ROOT
ATOM      1  S   UNL     1       0.042  -3.436  -1.784  0.00  0.00    -0.029 S 
ENDROOT
BRANCH   1   2
ATOM      2  C   UNL     1       0.024  -2.716  -3.392  0.00  0.00    +0.174 A 
ATOM      3  N   UNL     1       0.023  -3.415  -4.567  0.00  0.00    -0.333 N 
ATOM      4  H   UNL     1       0.031  -4.380  -4.662  0.00  0.00    +0.168 HD
ATOM      5  C   UNL     1       0.007  -2.488  -5.596  0.00  0.00    +0.067 A 
ATOM      6  C   UNL     1      -0.002  -2.587  -6.979  0.00  0.00    +0.028 A 
ATOM      7  C   UNL     1      -0.018  -1.443  -7.750  0.00  0.00    +0.002 A 
ATOM      8  C   UNL     1      -0.025  -0.192  -7.151  0.00  0.00    +0.002 A 
ATOM      9  C   UNL     1      -0.017  -0.074  -5.779  0.00  0.00    +0.030 A 
ATOM     10  C   UNL     1      -0.001  -1.224  -4.984  0.00  0.00    +0.090 A 
ATOM     11  N   UNL     1       0.005  -1.429  -3.641  0.00  0.00    -0.222 NA
ENDBRANCH   1   2
BRANCH   1  15
ATOM     12  C   UNL     1      -0.018   1.503   0.010  0.00  0.00    +0.086 C 
ATOM     13  C   UNL     1       0.002  -0.004   0.002  0.00  0.00    +0.107 A 
ATOM     14  N   UNL     1       0.008  -0.758  -1.063  0.00  0.00    -0.224 NA
ATOM     15  C   UNL     1       0.028  -2.051  -0.696  0.00  0.00    +0.144 A 
ATOM     16  C   UNL     1       0.035  -2.102   0.661  0.00  0.00    +0.128 A 
ATOM     17  N   UNL     1       0.023  -0.802   1.104  0.00  0.00    -0.330 N 
ATOM     18  H   UNL     1       0.028  -0.508   2.029  0.00  0.00    +0.168 HD
BRANCH  16  19
ATOM     19  N   UNL     1       0.054  -3.255   1.455  0.00  0.00    -0.342 N 
ATOM     20  H   UNL     1       0.065  -4.131   1.037  0.00  0.00    +0.144 HD
ATOM     21  H   UNL     1       0.058  -3.179   2.421  0.00  0.00    +0.144 HD
ENDBRANCH  16  19
ENDBRANCH   1  15
TORSDOF 3
