REMARK  Name = ZINC41009550
REMARK  9 active torsions:
REMARK  status: ('A' for Active; 'I' for Inactive)
REMARK    1  A    between atoms: C_1  and  C_2
REMARK    2  A    between atoms: C_2  and  C_29
REMARK    3  A    between atoms: C_3  and  C_25
REMARK    4  A    between atoms: C_5  and  C_7
REMARK    5  A    between atoms: N_9  and  C_10
REMARK    6  A    between atoms: C_10  and  C_11
REMARK    7  A    between atoms: N_16  and  C_17
REMARK    8  A    between atoms: C_20  and  O_23
REMARK    9  A    between atoms: O_23  and  C_24
REMARK                            x       y       z     vdW  Elec       q    Type
REMARK                         _______ _______ _______ _____ _____    ______ ____
ROOT
ATOM      1  C   UNL     1       2.436  -3.540   1.968  0.00  0.00    +0.158 C 
ENDROOT
BRANCH   1   2
ATOM      2  C   UNL     1       3.235  -4.262   3.021  0.00  0.00    +0.049 A 
ATOM      3  C   UNL     1       2.754  -5.377   3.578  0.00  0.00    +0.071 A 
ATOM      4  S   UNL     1       4.059  -5.806   4.720  0.00  0.00    -0.070 S 
ATOM      5  C   UNL     1       5.154  -4.442   4.355  0.00  0.00    +0.130 A 
ATOM      6  S   UNL     1       6.685  -4.072   5.025  0.00  0.00    -0.024 S 
ATOM      7  N   UNL     1       4.451  -3.782   3.402  0.00  0.00    -0.300 N 
BRANCH   7   8
ATOM      8  C   UNL     1       4.968  -2.616   2.820  0.00  0.00    +0.048 A 
ATOM      9  C   UNL     1       5.072  -1.452   3.570  0.00  0.00    +0.030 A 
ATOM     10  C   UNL     1       5.581  -0.304   2.996  0.00  0.00    +0.047 A 
ATOM     11  C   UNL     1       5.988  -0.313   1.670  0.00  0.00    +0.120 A 
ATOM     12  C   UNL     1       5.883  -1.475   0.919  0.00  0.00    +0.047 A 
ATOM     13  C   UNL     1       5.380  -2.626   1.494  0.00  0.00    +0.030 A 
BRANCH  11  14
ATOM     14  O   UNL     1       6.488   0.818   1.105  0.00  0.00    -0.495 OA
ATOM     15  C   UNL     1       6.887   0.737  -0.265  0.00  0.00    +0.277 C 
ENDBRANCH  11  14
ENDBRANCH   7   8
ENDBRANCH   1   2
BRANCH   1  18
ATOM     16  C   UNL     1       1.298  -1.401   1.704  0.00  0.00    +0.218 C 
ATOM     17  O   UNL     1       0.979  -1.742   0.584  0.00  0.00    -0.275 OA
ATOM     18  N   UNL     1       2.028  -2.228   2.478  0.00  0.00    -0.309 N 
ATOM     19  H   UNL     1       2.283  -1.956   3.373  0.00  0.00    +0.149 HD
BRANCH  16  23
ATOM     20  C   UNL     1       0.289   2.350   1.378  0.00  0.00    +0.012 C 
ATOM     21  C   UNL     1       0.052   0.841   1.301  0.00  0.00    -0.016 C 
ATOM     22  C   UNL     1      -0.610   0.167   2.505  0.00  0.00    +0.033 C 
ATOM     23  C   UNL     1       0.879  -0.052   2.228  0.00  0.00    +0.089 C 
ATOM     24  C   UNL     1      -0.285   0.296  -0.088  0.00  0.00    +0.012 C 
BRANCH  22  25
ATOM     25  C   UNL     1      -0.979   1.041   3.675  0.00  0.00    +0.010 C 
ATOM     26  C   UNL     1      -2.232   1.127   4.061  0.00  0.00    +0.103 C 
ATOM     27 CL   UNL     1      -3.461   0.233   3.223  0.00  0.00    -0.071 Cl
ATOM     28 CL   UNL     1      -2.658   2.134   5.410  0.00  0.00    -0.071 Cl
ENDBRANCH  22  25
ENDBRANCH  16  23
ENDBRANCH   1  18
TORSDOF 6
