REMARK  Name = ZINC21241735
REMARK  12 active torsions:
REMARK  status: ('A' for Active; 'I' for Inactive)
REMARK    1  A    between atoms: C_1  and  C_2
REMARK    2  A    between atoms: C_2  and  C_3
REMARK    3  A    between atoms: C_2  and  O_4
REMARK    4  A    between atoms: O_4  and  C_5
REMARK    5  A    between atoms: C_8  and  C_13
REMARK    6  A    between atoms: C_10  and  O_11
REMARK    7  A    between atoms: O_11  and  C_12
REMARK    8  A    between atoms: C_18  and  C_28
REMARK    9  A    between atoms: C_30  and  O_36
REMARK   10  A    between atoms: C_33  and  O_34
REMARK   11  A    between atoms: O_34  and  C_35
REMARK   12  A    between atoms: O_36  and  C_37
REMARK                            x       y       z     vdW  Elec       q    Type
REMARK                         _______ _______ _______ _____ _____    ______ ____
ROOT
ATOM      1  C   UNL     1       4.530   3.482  -0.633  0.00  0.00    +0.032 C 
ATOM      2  C   UNL     1       5.199   2.756   0.533  0.00  0.00    +0.059 C 
ATOM      3  C   UNL     1       6.665   3.149   0.614  0.00  0.00    +0.017 C 
ATOM      4  C   UNL     1       7.356   3.425  -0.504  0.00  0.00    +0.037 C 
ATOM      5  C   UNL     1       8.817   3.804  -0.572  0.00  0.00    +0.140 C 
ATOM      6  N   UNL     1       9.414   4.118   0.709  0.00  0.00    -0.331 N 
ATOM      7  C   UNL     1       9.539   3.148   1.703  0.00  0.00    +0.049 A 
ATOM      8  C   UNL     1      10.778   2.668   2.094  0.00  0.00    +0.025 A 
ATOM      9  C   UNL     1      10.849   1.629   3.005  0.00  0.00    +0.002 A 
ATOM     10  C   UNL     1       9.694   1.074   3.525  0.00  0.00    +0.002 A 
ATOM     11  C   UNL     1       8.454   1.565   3.152  0.00  0.00    +0.025 A 
ATOM     12  C   UNL     1       8.383   2.615   2.253  0.00  0.00    +0.052 A 
ATOM     13  N   UNL     1       7.173   3.185   1.871  0.00  0.00    -0.316 N 
ATOM     14  C   UNL     1       6.716   3.388  -1.766  0.00  0.00    +0.163 C 
ATOM     15  O   UNL     1       7.372   3.622  -2.762  0.00  0.00    -0.292 OA
ATOM     16  C   UNL     1       5.259   3.071  -1.918  0.00  0.00    +0.088 C 
ATOM     17  H   UNL     1       9.779   5.136   0.911  0.00  0.00    +0.147 HD
ATOM     18  H   UNL     1       6.619   3.693   2.674  0.00  0.00    +0.152 HD
ENDROOT
BRANCH   1  22
ATOM     19  C   UNL     1       0.415   2.347  -0.878  0.00  0.00    +0.162 A 
ATOM     20  C   UNL     1       1.409   1.389  -0.997  0.00  0.00    +0.050 A 
ATOM     21  C   UNL     1       2.738   1.759  -0.917  0.00  0.00    +0.008 A 
ATOM     22  C   UNL     1       3.079   3.084  -0.719  0.00  0.00    -0.040 A 
ATOM     23  C   UNL     1       2.093   4.045  -0.601  0.00  0.00    +0.053 A 
ATOM     24  C   UNL     1       0.758   3.681  -0.685  0.00  0.00    +0.162 A 
BRANCH  24  25
ATOM     25  O   UNL     1      -0.214   4.626  -0.575  0.00  0.00    -0.491 OA
ATOM     26  C   UNL     1       0.212   5.976  -0.378  0.00  0.00    +0.277 C 
ENDBRANCH  24  25
BRANCH  19  27
ATOM     27  O   UNL     1      -0.894   1.984  -0.957  0.00  0.00    -0.486 OA
BRANCH  27  29
ATOM     28  C   UNL     1      -2.498   0.289  -0.332  0.00  0.00    +0.051 C 
ATOM     29  C   UNL     1      -1.176   0.586  -1.041  0.00  0.00    +0.167 C 
ATOM     30  C   UNL     1      -1.281   0.175  -2.511  0.00  0.00    +0.051 C 
ENDBRANCH  27  29
ENDBRANCH  19  27
ENDBRANCH   1  22
BRANCH   5  31
ATOM     31  C   UNL     1       9.577   2.656  -1.185  0.00  0.00    +0.022 A 
ATOM     32  C   UNL     1       9.044   1.382  -1.158  0.00  0.00    +0.055 A 
ATOM     33  C   UNL     1       9.744   0.326  -1.723  0.00  0.00    +0.121 A 
ATOM     34  C   UNL     1      10.978   0.549  -2.314  0.00  0.00    +0.049 A 
ATOM     35  C   UNL     1      11.511   1.823  -2.341  0.00  0.00    +0.049 A 
ATOM     36  C   UNL     1      10.809   2.880  -1.781  0.00  0.00    +0.126 A 
BRANCH  36  37
ATOM     37  O   UNL     1      11.331   4.135  -1.812  0.00  0.00    -0.495 OA
ATOM     38  C   UNL     1      12.604   4.293  -2.442  0.00  0.00    +0.277 C 
ENDBRANCH  36  37
BRANCH  33  39
ATOM     39  O   UNL     1       9.219  -0.929  -1.696  0.00  0.00    -0.495 OA
ATOM     40  C   UNL     1       9.994  -1.969  -2.296  0.00  0.00    +0.277 C 
ENDBRANCH  33  39
ENDBRANCH   5  31
TORSDOF 7
