REMARK  Name = ZINC14972807
REMARK  9 active torsions:
REMARK  status: ('A' for Active; 'I' for Inactive)
REMARK    1  A    between atoms: C_1  and  O_2
REMARK    2  A    between atoms: O_2  and  C_3
REMARK    3  A    between atoms: C_3  and  C_5
REMARK    4  A    between atoms: C_11  and  C_13
REMARK    5  A    between atoms: C_13  and  C_14
REMARK    6  A    between atoms: C_17  and  N_20
REMARK    7  A    between atoms: C_23  and  N_72
REMARK    8  A    between atoms: C_26  and  C_27
REMARK    9  A    between atoms: C_26  and  N_72
REMARK                            x       y       z     vdW  Elec       q    Type
REMARK                         _______ _______ _______ _____ _____    ______ ____
ROOT
ATOM      1  N   UNL     1       2.401   1.108  -0.015  0.00  0.00    -0.330 N 
ATOM      2  C   UNL     1       2.496   0.173   1.114  0.00  0.00    +0.103 C 
ATOM      3  C   UNL     1       3.776  -0.655   0.985  0.00  0.00    +0.003 C 
ATOM      4  C   UNL     1       4.986   0.283   0.972  0.00  0.00    -0.069 C 
ATOM      5  C   UNL     1       4.838   1.278  -0.183  0.00  0.00    +0.003 C 
ATOM      6  C   UNL     1       3.527   2.050  -0.020  0.00  0.00    +0.103 C 
ENDROOT
BRANCH   1  10
ATOM      7  C   UNL     1      -1.237   3.134   0.031  0.00  0.00    -0.039 A 
ATOM      8  C   UNL     1      -1.217   1.751   0.017  0.00  0.00    +0.006 A 
ATOM      9  C   UNL     1      -0.013   1.076   0.008  0.00  0.00    +0.023 A 
ATOM     10  C   UNL     1       1.180   1.788   0.000  0.00  0.00    +0.030 A 
ATOM     11  C   UNL     1       1.157   3.176   0.008  0.00  0.00    +0.023 A 
ATOM     12  C   UNL     1      -0.051   3.845   0.023  0.00  0.00    +0.006 A 
BRANCH   7  13
ATOM     13  C   UNL     1      -2.554   3.866   0.047  0.00  0.00    +0.131 C 
BRANCH  13  19
ATOM     14  C   UNL     1      -4.721   5.080  -2.924  0.00  0.00    +0.185 C 
ATOM     15  C   UNL     1      -6.070   5.795  -2.696  0.00  0.00    +0.035 C 
ATOM     16  C   UNL     1      -6.466   5.346  -1.265  0.00  0.00    +0.021 C 
ATOM     17  C   UNL     1      -5.085   5.277  -0.567  0.00  0.00    +0.109 C 
ATOM     18  N   UNL     1      -4.166   4.764  -1.600  0.00  0.00    -0.288 N 
ATOM     19  C   UNL     1      -3.006   4.119  -1.368  0.00  0.00    +0.221 C 
ATOM     20  O   UNL     1      -2.326   3.740  -2.298  0.00  0.00    -0.275 OA
BRANCH  14  21
ATOM     21  C   UNL     1      -3.778   5.987  -3.672  0.00  0.00    +0.328 C 
ATOM     22  O   UNL     1      -2.743   6.338  -3.158  0.00  0.00    -0.249 OA
BRANCH  21  24
ATOM     23  C   UNL     1      -3.132   7.274  -5.571  0.00  0.00    +0.280 C 
ATOM     24  O   UNL     1      -4.088   6.403  -4.910  0.00  0.00    -0.467 OA
ENDBRANCH  21  24
ENDBRANCH  14  21
ENDBRANCH  13  19
ENDBRANCH   7  13
ENDBRANCH   1  10
BRANCH   4  25
ATOM     25  N   UNL     1       6.220  -0.503   0.780  0.00  0.00    +0.383 N 
ATOM     26  H   UNL     1       6.939   0.094   0.355  0.00  0.00    -0.085 HD
ATOM     27  H   UNL     1       6.023  -1.297   0.160  0.00  0.00    -0.085 HD
BRANCH  25  28
ATOM     28  C   UNL     1       6.711  -1.008   2.076  0.00  0.00    -0.037 C 
BRANCH  28  29
ATOM     29  C   UNL     1       7.989  -1.817   1.847  0.00  0.00    +0.157 C 
ATOM     30  C   UNL     1       8.504  -2.360   3.186  0.00  0.00    +0.047 C 
ATOM     31  C   UNL     1       9.838  -3.068   2.937  0.00  0.00    +0.042 C 
ATOM     32  C   UNL     1       9.704  -4.004   1.762  0.00  0.00    -0.006 A 
ATOM     33  C   UNL     1      10.650  -5.003   1.595  0.00  0.00    +0.007 A 
ATOM     34  C   UNL     1      10.560  -5.876   0.529  0.00  0.00    +0.000 A 
ATOM     35  C   UNL     1       9.523  -5.755  -0.378  0.00  0.00    +0.004 A 
ATOM     36  C   UNL     1       8.578  -4.763  -0.216  0.00  0.00    +0.046 A 
ATOM     37  C   UNL     1       8.664  -3.883   0.858  0.00  0.00    +0.124 A 
ATOM     38  O   UNL     1       7.710  -2.925   0.989  0.00  0.00    -0.490 OA
ENDBRANCH  28  29
ENDBRANCH  25  28
ENDBRANCH   4  25
TORSDOF 8
