REMARK  Name = ZINC09646945
REMARK  7 active torsions:
REMARK  status: ('A' for Active; 'I' for Inactive)
REMARK    1  A    between atoms: C_1  and  C_2
REMARK    2  A    between atoms: C_7  and  C_8
REMARK    3  A    between atoms: C_7  and  N_60
REMARK    4  A    between atoms: C_8  and  C_9
REMARK    5  A    between atoms: C_9  and  N_10
REMARK    6  A    between atoms: N_16  and  S_19
REMARK    7  A    between atoms: S_19  and  C_22
REMARK                            x       y       z     vdW  Elec       q    Type
REMARK                         _______ _______ _______ _____ _____    ______ ____
ROOT
ATOM      1  N   UNL     1       0.019   3.418   3.199  0.00  0.00    -0.299 N 
ATOM      2  C   UNL     1      -0.547   3.887   2.070  0.00  0.00    +0.302 C 
ATOM      3  O   UNL     1      -0.668   5.085   1.902  0.00  0.00    -0.253 OA
ATOM      4  N   UNL     1      -0.980   3.027   1.126  0.00  0.00    -0.283 N 
ATOM      5  C   UNL     1      -1.701   3.521  -0.057  0.00  0.00    +0.126 C 
ATOM      6  C   UNL     1      -3.045   2.788  -0.152  0.00  0.00    +0.128 C 
ATOM      7  N   UNL     1      -2.807   1.344  -0.015  0.00  0.00    -0.174 NA
ATOM      8  C   UNL     1      -2.088   0.854   1.169  0.00  0.00    +0.128 C 
ATOM      9  C   UNL     1      -0.742   1.584   1.263  0.00  0.00    +0.126 C 
ATOM     10  H   UNL     1       0.182   2.467   3.301  0.00  0.00    +0.150 HD
ENDROOT
BRANCH   7  11
ATOM     11  S   UNL     1      -3.338   0.289  -1.175  0.00  0.00    +0.061 S 
ATOM     12  O   UNL     1      -3.476  -0.976  -0.541  0.00  0.00    -0.153 OA
ATOM     13  O   UNL     1      -4.418   0.928  -1.843  0.00  0.00    -0.153 OA
BRANCH  11  14
ATOM     14  C   UNL     1      -2.044   0.120  -2.359  0.00  0.00    +0.107 A 
ATOM     15  C   UNL     1      -1.992   0.965  -3.451  0.00  0.00    +0.028 A 
ATOM     16  C   UNL     1      -0.973   0.837  -4.377  0.00  0.00    +0.003 A 
ATOM     17  C   UNL     1      -0.012  -0.144  -4.216  0.00  0.00    +0.015 A 
ATOM     18  C   UNL     1      -0.067  -0.994  -3.126  0.00  0.00    +0.020 A 
ATOM     19  C   UNL     1      -1.084  -0.861  -2.197  0.00  0.00    +0.043 A 
ATOM     20 BR   UNL     1       1.246  -2.336  -2.906  0.00  0.00    -0.050 Br
ENDBRANCH  11  14
ENDBRANCH   7  11
BRANCH   1  21
ATOM     21  C   UNL     1       0.389   4.344   4.272  0.00  0.00    +0.104 C 
BRANCH  21  22
ATOM     22  C   UNL     1       1.007   3.560   5.431  0.00  0.00    +0.000 C 
BRANCH  22  23
ATOM     23  C   UNL     1       1.393   4.527   6.553  0.00  0.00    -0.077 C 
BRANCH  23  30
ATOM     24  C   UNL     1       3.065   2.054  11.427  0.00  0.00    +0.007 C 
ATOM     25  C   UNL     1       2.326   2.917  10.402  0.00  0.00    -0.018 C 
ATOM     26  C   UNL     1       3.317   3.865   9.721  0.00  0.00    -0.016 C 
ATOM     27  C   UNL     1       2.584   4.682   8.655  0.00  0.00    -0.079 C 
ATOM     28  C   UNL     1       0.997   2.887   8.288  0.00  0.00    -0.079 C 
ATOM     29  C   UNL     1       1.683   2.016   9.343  0.00  0.00    -0.016 C 
ATOM     30  N   UNL     1       2.009   3.758   7.653  0.00  0.00    +0.380 N 
ATOM     31  H   UNL     1       2.760   3.172   7.271  0.00  0.00    -0.082 HD
ENDBRANCH  23  30
ENDBRANCH  22  23
ENDBRANCH  21  22
ENDBRANCH   1  21
TORSDOF 6
