REMARK  Name = ZINC40986491
REMARK  8 active torsions:
REMARK  status: ('A' for Active; 'I' for Inactive)
REMARK    1  A    between atoms: C_1  and  C_2
REMARK    2  A    between atoms: C_2  and  C_3
REMARK    3  A    between atoms: C_6  and  C_9
REMARK    4  A    between atoms: C_9  and  C_11
REMARK    5  A    between atoms: C_9  and  N_28
REMARK    6  A    between atoms: C_11  and  N_12
REMARK    7  A    between atoms: C_13  and  C_15
REMARK    8  A    between atoms: C_17  and  C_20
REMARK                            x       y       z     vdW  Elec       q    Type
REMARK                         _______ _______ _______ _____ _____    ______ ____
ROOT
ATOM      1  C   UNL     1      -6.235  -0.775  -0.258  0.00  0.00    +0.094 C 
ENDROOT
BRANCH   1   2
ATOM      2  N   UNL     1      -6.256   0.105   0.913  0.00  0.00    -0.311 N 
ATOM      3  C   UNL     1      -7.015   1.219   0.906  0.00  0.00    +0.266 C 
ATOM      4  O   UNL     1      -7.683   1.493  -0.072  0.00  0.00    -0.268 OA
ATOM      5  H   UNL     1      -5.723  -0.114   1.694  0.00  0.00    +0.149 HD
BRANCH   3   6
ATOM      6  C   UNL     1      -7.036   2.110   2.092  0.00  0.00    +0.168 A 
ATOM      7  C   UNL     1      -7.786   3.299   2.223  0.00  0.00    +0.086 A 
ATOM      8  C   UNL     1      -7.532   3.819   3.453  0.00  0.00    +0.168 A 
ATOM      9  O   UNL     1      -6.662   3.003   4.077  0.00  0.00    -0.354 OA
ATOM     10  N   UNL     1      -6.366   1.928   3.205  0.00  0.00    -0.073 NA
BRANCH   8  11
ATOM     11  C   UNL     1      -8.108   5.062   4.007  0.00  0.00    +0.023 A 
ATOM     12  C   UNL     1      -9.008   5.815   3.250  0.00  0.00    +0.014 A 
ATOM     13  C   UNL     1      -9.544   6.974   3.771  0.00  0.00    +0.042 A 
ATOM     14  C   UNL     1      -9.191   7.394   5.043  0.00  0.00    +0.158 A 
ATOM     15  C   UNL     1      -8.297   6.650   5.801  0.00  0.00    +0.159 A 
ATOM     16  C   UNL     1      -7.760   5.484   5.291  0.00  0.00    +0.053 A 
ATOM     17  F   UNL     1      -7.957   7.063   7.042  0.00  0.00    -0.202 F 
ATOM     18  F   UNL     1      -9.719   8.530   5.548  0.00  0.00    -0.202 F 
ENDBRANCH   8  11
ENDBRANCH   3   6
ENDBRANCH   1   2
BRANCH   1  19
ATOM     19  C   UNL     1      -5.204  -1.884  -0.044  0.00  0.00    -0.020 C 
BRANCH  19  20
ATOM     20  N   UNL     1      -5.239  -2.812  -1.183  0.00  0.00    +0.385 N 
ATOM     21  C   UNL     1      -6.564  -3.438  -1.261  0.00  0.00    -0.078 C 
ATOM     22  C   UNL     1      -6.633  -4.344  -2.493  0.00  0.00    -0.019 C 
ATOM     23  C   UNL     1      -5.559  -5.430  -2.381  0.00  0.00    -0.004 C 
ATOM     24  C   UNL     1      -4.188  -4.765  -2.225  0.00  0.00    -0.019 C 
ATOM     25  C   UNL     1      -4.210  -3.844  -1.004  0.00  0.00    -0.078 C 
ATOM     26  H   UNL     1      -5.059  -2.303  -2.035  0.00  0.00    -0.081 HD
ENDBRANCH  19  20
BRANCH  19  30
ATOM     27  C   UNL     1      -1.306  -0.166   0.271  0.00  0.00    -0.048 A 
ATOM     28  C   UNL     1      -1.993  -0.535   1.412  0.00  0.00    +0.004 A 
ATOM     29  C   UNL     1      -3.254  -1.091   1.310  0.00  0.00    +0.002 A 
ATOM     30  C   UNL     1      -3.829  -1.277   0.067  0.00  0.00    -0.059 A 
ATOM     31  C   UNL     1      -3.143  -0.907  -1.074  0.00  0.00    +0.002 A 
ATOM     32  C   UNL     1      -1.883  -0.347  -0.972  0.00  0.00    +0.004 A 
BRANCH  27  34
ATOM     33  C   UNL     1      -0.051   1.961   0.500  0.00  0.00    +0.009 C 
ATOM     34  C   UNL     1       0.069   0.440   0.382  0.00  0.00    +0.032 C 
ENDBRANCH  27  34
ENDBRANCH  19  30
ENDBRANCH   1  19
TORSDOF 7
