REMARK  Name = ZINC64423246
REMARK  5 active torsions:
REMARK  status: ('A' for Active; 'I' for Inactive)
REMARK    1  A    between atoms: C_7  and  C_10
REMARK    2  A    between atoms: C_10  and  C_11
REMARK    3  A    between atoms: C_11  and  N_12
REMARK    4  A    between atoms: C_13  and  C_15
REMARK    5  A    between atoms: C_18  and  N_22
REMARK                            x       y       z     vdW  Elec       q    Type
REMARK                         _______ _______ _______ _____ _____    ______ ____
ROOT
ATOM      1  N   UNL     1      -0.274  -4.946  -1.464  0.00  0.00    -0.311 N 
ATOM      2  C   UNL     1      -0.629  -5.555  -2.613  0.00  0.00    +0.238 C 
ATOM      3  O   UNL     1      -0.031  -5.303  -3.644  0.00  0.00    -0.271 OA
ATOM      4  H   UNL     1      -0.750  -5.147  -0.642  0.00  0.00    +0.149 HD
ENDROOT
BRANCH   2   5
ATOM      5  C   UNL     1      -1.694  -6.485  -2.622  0.00  0.00    +0.086 C 
ATOM      6  C   UNL     1      -2.126  -7.005  -3.789  0.00  0.00    +0.021 C 
ATOM      7  N   UNL     1      -1.656  -6.565  -4.975  0.00  0.00    -0.320 N 
ATOM      8  C   UNL     1      -1.752  -7.498  -6.120  0.00  0.00    +0.219 C 
ATOM      9  S   UNL     1      -3.248  -8.463  -5.638  0.00  0.00    -0.114 S 
ATOM     10  C   UNL     1      -3.161  -8.117  -3.830  0.00  0.00    +0.123 C 
ATOM     11  H   UNL     1      -1.274  -5.678  -5.073  0.00  0.00    +0.148 HD
BRANCH   8  12
ATOM     12  N   UNL     1      -0.568  -8.358  -6.203  0.00  0.00    -0.287 N 
ATOM     13  C   UNL     1      -0.313  -9.074  -7.359  0.00  0.00    +0.217 A 
ATOM     14  N   UNL     1      -1.147  -8.966  -8.383  0.00  0.00    -0.223 NA
ATOM     15  C   UNL     1      -0.932  -9.637  -9.503  0.00  0.00    +0.116 A 
ATOM     16  C   UNL     1       0.180 -10.459  -9.596  0.00  0.00    +0.039 A 
ATOM     17  C   UNL     1       1.031 -10.548  -8.506  0.00  0.00    +0.116 A 
ATOM     18  N   UNL     1       0.761  -9.847  -7.417  0.00  0.00    -0.223 NA
ATOM     19  H   UNL     1       0.036  -8.425  -5.447  0.00  0.00    +0.151 HD
ENDBRANCH   8  12
ENDBRANCH   2   5
BRANCH   1  20
ATOM     20  C   UNL     1       0.829  -3.983  -1.455  0.00  0.00    +0.109 C 
BRANCH  20  21
ATOM     21  C   UNL     1       1.024  -3.443  -0.036  0.00  0.00    +0.052 C 
BRANCH  21  28
ATOM     22  C   UNL     1       1.147   1.131  -0.380  0.00  0.00    +0.001 A 
ATOM     23  C   UNL     1       2.443   1.664  -0.324  0.00  0.00    +0.002 A 
ATOM     24  C   UNL     1       3.542   0.894  -0.182  0.00  0.00    +0.026 A 
ATOM     25  C   UNL     1       3.422  -0.520  -0.082  0.00  0.00    +0.043 A 
ATOM     26  N   UNL     1       4.320  -1.464   0.058  0.00  0.00    -0.380 N 
ATOM     27  C   UNL     1       3.633  -2.760   0.107  0.00  0.00    +0.144 C 
ATOM     28  C   UNL     1       2.159  -2.452  -0.027  0.00  0.00    -0.040 C 
ATOM     29  C   UNL     1       2.065  -1.107  -0.138  0.00  0.00    -0.001 A 
ATOM     30  C   UNL     1       0.922  -0.200  -0.294  0.00  0.00    +0.010 A 
ATOM     31  H   UNL     1       5.279  -1.329   0.119  0.00  0.00    +0.160 HD
ENDBRANCH  21  28
ENDBRANCH  20  21
ENDBRANCH   1  20
TORSDOF 5
