REMARK  Name = ZINC34830175
REMARK  7 active torsions:
REMARK  status: ('A' for Active; 'I' for Inactive)
REMARK    1  A    between atoms: C_1  and  C_2
REMARK    2  A    between atoms: C_5  and  C_8
REMARK    3  A    between atoms: N_17  and  C_18
REMARK    4  A    between atoms: C_18  and  C_19
REMARK    5  A    between atoms: C_19  and  C_20
REMARK    6  A    between atoms: C_26  and  C_29
REMARK    7  A    between atoms: C_30  and  C_32
REMARK                            x       y       z     vdW  Elec       q    Type
REMARK                         _______ _______ _______ _____ _____    ______ ____
ROOT
ATOM      1  C   UNL     1      -2.985  -4.016   3.025  0.00  0.00    +0.077 C 
ENDROOT
BRANCH   1   2
ATOM      2  C   UNL     1      -4.397  -3.587   2.723  0.00  0.00    +0.214 C 
ATOM      3  O   UNL     1      -4.609  -2.760   1.862  0.00  0.00    -0.276 OA
ATOM      4  N   UNL     1      -5.426  -4.122   3.410  0.00  0.00    -0.298 N 
ATOM      5  C   UNL     1      -5.185  -5.121   4.461  0.00  0.00    +0.127 C 
ATOM      6  C   UNL     1      -6.006  -6.376   4.142  0.00  0.00    +0.127 C 
ATOM      7  N   UNL     1      -7.390  -5.971   3.854  0.00  0.00    -0.292 N 
ATOM      8  C   UNL     1      -7.631  -4.972   2.803  0.00  0.00    +0.091 C 
ATOM      9  C   UNL     1      -6.809  -3.713   3.126  0.00  0.00    +0.130 C 
ATOM     10  C   UNL     1      -7.204  -5.540   1.448  0.00  0.00    +0.029 C 
ATOM     11  C   UNL     1      -8.418  -6.506   4.541  0.00  0.00    +0.247 C 
ATOM     12  O   UNL     1      -8.214  -7.386   5.354  0.00  0.00    -0.270 OA
BRANCH  11  13
ATOM     13  C   UNL     1      -9.796  -6.024   4.305  0.00  0.00    +0.040 A 
ATOM     14  C   UNL     1     -10.307  -5.971   3.007  0.00  0.00    +0.013 A 
ATOM     15  C   UNL     1     -11.593  -5.521   2.792  0.00  0.00    +0.004 A 
ATOM     16  C   UNL     1     -12.377  -5.120   3.860  0.00  0.00    +0.038 A 
ATOM     17  C   UNL     1     -11.876  -5.168   5.151  0.00  0.00    +0.124 A 
ATOM     18  C   UNL     1     -10.591  -5.624   5.379  0.00  0.00    +0.051 A 
ATOM     19  F   UNL     1     -12.647  -4.775   6.189  0.00  0.00    -0.205 F 
ENDBRANCH  11  13
ENDBRANCH   1   2
BRANCH   1  20
ATOM     20  C   UNL     1      -2.016  -3.263   2.112  0.00  0.00    -0.068 C 
BRANCH  20  29
ATOM     21  C   UNL     1       0.292  -2.870   1.613  0.00  0.00    -0.006 C 
ATOM     22  C   UNL     1       1.711  -3.379   1.846  0.00  0.00    -0.047 A 
ATOM     23  C   UNL     1       2.859  -2.637   1.582  0.00  0.00    +0.010 A 
ATOM     24  C   UNL     1       4.080  -3.169   1.822  0.00  0.00    +0.045 A 
ATOM     25  S   UNL     1       3.660  -4.788   2.451  0.00  0.00    -0.101 S 
ATOM     26  C   UNL     1       1.900  -4.634   2.344  0.00  0.00    -0.010 A 
ATOM     27  C   UNL     1       0.833  -5.617   2.699  0.00  0.00    +0.024 C 
ATOM     28  C   UNL     1      -0.486  -5.109   2.092  0.00  0.00    -0.072 C 
ATOM     29  N   UNL     1      -0.639  -3.681   2.406  0.00  0.00    +0.388 N 
ATOM     30  H   UNL     1      -0.452  -3.537   3.388  0.00  0.00    -0.080 HD
BRANCH  21  35
ATOM     31  C   UNL     1      -0.079   2.660   3.248  0.00  0.00    +0.044 C 
ATOM     32  C   UNL     1       0.018   1.218   2.822  0.00  0.00    -0.050 A 
ATOM     33  C   UNL     1       0.158   0.900   1.483  0.00  0.00    +0.003 A 
ATOM     34  C   UNL     1       0.247  -0.423   1.092  0.00  0.00    +0.002 A 
ATOM     35  C   UNL     1       0.196  -1.428   2.040  0.00  0.00    -0.057 A 
ATOM     36  C   UNL     1       0.057  -1.111   3.378  0.00  0.00    +0.002 A 
ATOM     37  C   UNL     1      -0.027   0.212   3.769  0.00  0.00    +0.003 A 
ENDBRANCH  21  35
ENDBRANCH  20  29
ENDBRANCH   1  20
TORSDOF 5
