REMARK  Name = ZINC66119811
REMARK  4 active torsions:
REMARK  status: ('A' for Active; 'I' for Inactive)
REMARK    1  A    between atoms: C_3  and  C_25
REMARK    2  A    between atoms: C_6  and  N_9
REMARK    3  A    between atoms: C_15  and  N_18
REMARK    4  A    between atoms: C_19  and  C_21
REMARK                            x       y       z     vdW  Elec       q    Type
REMARK                         _______ _______ _______ _____ _____    ______ ____
ROOT
ATOM      1  N   UNL     1       0.007  -0.010  -2.441  0.00  0.00    -0.296 N 
ATOM      2  C   UNL     1      -1.042  -0.701  -2.929  0.00  0.00    +0.302 C 
ATOM      3  O   UNL     1      -1.345  -1.772  -2.441  0.00  0.00    -0.253 OA
ATOM      4  N   UNL     1      -1.756  -0.203  -3.958  0.00  0.00    -0.286 N 
ATOM      5  C   UNL     1      -1.333   1.029  -4.636  0.00  0.00    +0.111 C 
ATOM      6  C   UNL     1      -1.230   0.754  -6.140  0.00  0.00    +0.041 C 
ATOM      7  C   UNL     1      -2.558   0.184  -6.643  0.00  0.00    +0.076 C 
ATOM      8  C   UNL     1      -2.851  -1.137  -5.929  0.00  0.00    +0.041 C 
ATOM      9  C   UNL     1      -2.970  -0.887  -4.427  0.00  0.00    +0.111 C 
ATOM     10  H   UNL     1       0.293   0.809  -2.875  0.00  0.00    +0.151 HD
ENDROOT
BRANCH   1  15
ATOM     11  C   UNL     1      -0.030   1.522   0.017  0.00  0.00    +0.002 C 
ATOM     12  C   UNL     1       1.404   2.056   0.009  0.00  0.00    +0.012 C 
ATOM     13  C   UNL     1       2.123   1.568  -1.250  0.00  0.00    +0.095 C 
ATOM     14  C   UNL     1       2.149   0.038  -1.262  0.00  0.00    +0.034 C 
ATOM     15  C   UNL     1       0.715  -0.496  -1.254  0.00  0.00    +0.075 C 
ATOM     16  C   UNL     1      -0.004  -0.008   0.005  0.00  0.00    +0.022 C 
BRANCH  13  17
ATOM     17  C   UNL     1       3.557   2.102  -1.257  0.00  0.00    +0.393 C 
ATOM     18  F   UNL     1       4.234   1.639  -0.124  0.00  0.00    -0.170 F 
ATOM     19  F   UNL     1       4.215   1.656  -2.408  0.00  0.00    -0.170 F 
ATOM     20  F   UNL     1       3.533   3.501  -1.246  0.00  0.00    -0.170 F 
ENDBRANCH  13  17
ENDBRANCH   1  15
BRANCH   7  21
ATOM     21  N   UNL     1      -2.474  -0.049  -8.087  0.00  0.00    -0.312 N 
ATOM     22  C   UNL     1      -3.595  -0.058  -8.835  0.00  0.00    +0.216 C 
ATOM     23  O   UNL     1      -4.673   0.129  -8.312  0.00  0.00    -0.276 OA
ATOM     24  H   UNL     1      -1.611  -0.198  -8.504  0.00  0.00    +0.149 HD
BRANCH  22  25
ATOM     25  C   UNL     1      -3.508  -0.298 -10.320  0.00  0.00    +0.075 C 
ATOM     26  C   UNL     1      -3.156   0.962 -11.128  0.00  0.00    +0.013 C 
ATOM     27  C   UNL     1      -4.179   0.482 -12.172  0.00  0.00    +0.001 C 
ATOM     28  C   UNL     1      -4.873  -0.276 -11.028  0.00  0.00    +0.013 C 
ENDBRANCH  22  25
ENDBRANCH   7  21
TORSDOF 4
