REMARK  Name = ZINC55281814
REMARK  11 active torsions:
REMARK  status: ('A' for Active; 'I' for Inactive)
REMARK    1  A    between atoms: C_1  and  O_2
REMARK    2  A    between atoms: O_2  and  C_3
REMARK    3  A    between atoms: C_3  and  C_5
REMARK    4  A    between atoms: N_11  and  C_12
REMARK    5  A    between atoms: C_12  and  C_13
REMARK    6  A    between atoms: N_20  and  C_24
REMARK    7  A    between atoms: C_24  and  C_25
REMARK    8  A    between atoms: C_29  and  O_31
REMARK    9  A    between atoms: O_31  and  C_32
REMARK   10  A    between atoms: C_32  and  C_33
REMARK   11  A    between atoms: C_33  and  O_34
REMARK                            x       y       z     vdW  Elec       q    Type
REMARK                         _______ _______ _______ _____ _____    ______ ____
ROOT
ATOM      1  C   UNL     1       1.233  -2.227  -4.817  0.00  0.00    -0.033 A 
ATOM      2  C   UNL     1       2.229  -1.394  -5.294  0.00  0.00    +0.008 A 
ATOM      3  C   UNL     1       2.873  -1.691  -6.480  0.00  0.00    +0.046 A 
ATOM      4  C   UNL     1       2.519  -2.831  -7.187  0.00  0.00    +0.122 A 
ATOM      5  C   UNL     1       1.535  -3.668  -6.699  0.00  0.00    -0.022 A 
ATOM      6  C   UNL     1       0.887  -3.368  -5.518  0.00  0.00    +0.010 A 
ATOM      7  C   UNL     1       1.189  -4.936  -7.454  0.00  0.00    -0.039 C 
ATOM      8  N   UNL     1       0.535  -4.572  -8.716  0.00  0.00    +0.387 N 
ATOM      9  C   UNL     1       1.517  -4.285  -9.756  0.00  0.00    -0.036 C 
ATOM     10  C   UNL     1       2.299  -3.011  -9.530  0.00  0.00    +0.210 C 
ATOM     11  O   UNL     1       3.131  -3.122  -8.369  0.00  0.00    -0.494 OA
ATOM     12  H   UNL     1      -0.037  -3.755  -8.567  0.00  0.00    -0.081 HD
ENDROOT
BRANCH   1  13
ATOM     13  C   UNL     1       0.528  -1.893  -3.528  0.00  0.00    +0.120 C 
BRANCH  13  19
ATOM     14  C   UNL     1       0.829  -1.914  -1.126  0.00  0.00    +0.166 C 
ATOM     15  C   UNL     1       1.698  -2.469   0.004  0.00  0.00    +0.030 C 
ATOM     16  C   UNL     1       1.552  -3.993   0.053  0.00  0.00    +0.003 C 
ATOM     17  C   UNL     1       1.948  -4.579  -1.305  0.00  0.00    +0.015 C 
ATOM     18  C   UNL     1       1.071  -3.963  -2.397  0.00  0.00    +0.085 C 
ATOM     19  N   UNL     1       1.248  -2.505  -2.403  0.00  0.00    -0.286 NA
BRANCH  14  20
ATOM     20  C   UNL     1       0.985  -0.416  -1.190  0.00  0.00    +0.324 C 
ATOM     21  O   UNL     1       1.833   0.072  -1.898  0.00  0.00    -0.249 OA
BRANCH  20  23
ATOM     22  C   UNL     1       0.385   1.784  -0.571  0.00  0.00    +0.280 C 
ATOM     23  O   UNL     1       0.181   0.374  -0.461  0.00  0.00    -0.467 OA
ENDBRANCH  20  23
ENDBRANCH  14  20
ENDBRANCH  13  19
ENDBRANCH   1  13
BRANCH   8  24
ATOM     24  C   UNL     1      -0.320  -5.684  -9.153  0.00  0.00    -0.042 C 
BRANCH  24  25
ATOM     25  C   UNL     1      -1.089  -5.272 -10.382  0.00  0.00    -0.060 A 
ATOM     26  C   UNL     1      -2.327  -4.669 -10.252  0.00  0.00    +0.002 A 
ATOM     27  C   UNL     1      -3.035  -4.290 -11.377  0.00  0.00    +0.004 A 
ATOM     28  C   UNL     1      -2.509  -4.513 -12.634  0.00  0.00    +0.045 A 
ATOM     29  C   UNL     1      -1.268  -5.118 -12.767  0.00  0.00    +0.121 A 
ATOM     30  C   UNL     1      -0.556  -5.492 -11.636  0.00  0.00    +0.047 A 
BRANCH  29  31
ATOM     31  O   UNL     1      -0.747  -5.339 -14.003  0.00  0.00    -0.490 OA
BRANCH  31  32
ATOM     32  C   UNL     1      -1.533  -4.923 -15.122  0.00  0.00    +0.256 C 
BRANCH  32  33
ATOM     33  C   UNL     1      -0.789  -5.252 -16.418  0.00  0.00    +0.196 C 
BRANCH  33  34
ATOM     34  O   UNL     1      -0.665  -6.670 -16.549  0.00  0.00    -0.392 OA
ATOM     35  H   UNL     1      -0.203  -6.951 -17.351  0.00  0.00    +0.210 HD
ENDBRANCH  33  34
ENDBRANCH  32  33
ENDBRANCH  31  32
ENDBRANCH  29  31
ENDBRANCH  24  25
ENDBRANCH   8  24
TORSDOF 10
