REMARK  Name = ZINC01514936
REMARK  6 active torsions:
REMARK  status: ('A' for Active; 'I' for Inactive)
REMARK    1  A    between atoms: C_1  and  C_2
REMARK    2  A    between atoms: C_4  and  C_23
REMARK    3  A    between atoms: C_6  and  S_8
REMARK    4  A    between atoms: S_8  and  C_9
REMARK    5  A    between atoms: C_9  and  C_10
REMARK    6  A    between atoms: C_10  and  C_12
REMARK                            x       y       z     vdW  Elec       q    Type
REMARK                         _______ _______ _______ _____ _____    ______ ____
ROOT
ATOM      1  C   UNL     1       6.404   0.028  -0.059  0.00  0.00    +0.163 C 
ATOM      2  O   UNL     1       6.604  -1.163  -0.067  0.00  0.00    -0.295 OA
ENDROOT
BRANCH   1   3
ATOM      3  C   UNL     1       7.566   0.987  -0.065  0.00  0.00    +0.138 C 
ATOM      4  C   UNL     1       7.821   1.503   1.357  0.00  0.00    +0.034 C 
ATOM      5  C   UNL     1       8.957   2.525   1.315  0.00  0.00    +0.039 C 
ATOM      6  C   UNL     1      10.149   1.959   0.591  0.00  0.00    -0.026 A 
ATOM      7  C   UNL     1      11.395   2.523   0.808  0.00  0.00    +0.005 A 
ATOM      8  C   UNL     1      12.508   2.028   0.156  0.00  0.00    +0.000 A 
ATOM      9  C   UNL     1      12.384   0.964  -0.719  0.00  0.00    +0.002 A 
ATOM     10  C   UNL     1      11.146   0.394  -0.940  0.00  0.00    +0.023 A 
ATOM     11  C   UNL     1      10.025   0.890  -0.283  0.00  0.00    +0.031 A 
ATOM     12  N   UNL     1       8.781   0.294  -0.515  0.00  0.00    -0.334 N 
ATOM     13  H   UNL     1       8.721  -0.563  -0.965  0.00  0.00    +0.147 HD
ENDBRANCH   1   3
BRANCH   1  14
ATOM     14  C   UNL     1       4.992   0.554  -0.043  0.00  0.00    +0.153 C 
BRANCH  14  15
ATOM     15  S   UNL     1       3.830  -0.833  -0.039  0.00  0.00    -0.078 S 
BRANCH  15  21
ATOM     16  C   UNL     1      -1.287  -0.784   0.011  0.00  0.00    +0.066 C 
ATOM     17  C   UNL     1       0.002  -0.004   0.002  0.00  0.00    +0.043 A 
ATOM     18  C   UNL     1      -0.017   1.382   0.010  0.00  0.00    +0.046 A 
ATOM     19  C   UNL     1       1.192   2.061   0.002  0.00  0.00    +0.043 A 
ATOM     20  N   UNL     1       2.320   1.371  -0.012  0.00  0.00    -0.227 NA
ATOM     21  C   UNL     1       2.303   0.046  -0.020  0.00  0.00    +0.189 A 
ATOM     22  N   UNL     1       1.165  -0.634  -0.013  0.00  0.00    -0.227 NA
ATOM     23  C   UNL     1       1.219   3.568   0.009  0.00  0.00    +0.066 C 
ENDBRANCH  15  21
ENDBRANCH  14  15
ENDBRANCH   1  14
TORSDOF 4
