REMARK  Name = ZINC36660387
REMARK  12 active torsions:
REMARK  status: ('A' for Active; 'I' for Inactive)
REMARK    1  A    between atoms: C_1  and  C_2
REMARK    2  A    between atoms: C_2  and  N_3
REMARK    3  A    between atoms: C_9  and  N_16
REMARK    4  A    between atoms: C_10  and  C_11
REMARK    5  A    between atoms: C_11  and  O_13
REMARK    6  A    between atoms: O_13  and  C_14
REMARK    7  A    between atoms: C_14  and  C_15
REMARK    8  A    between atoms: C_17  and  C_19
REMARK    9  A    between atoms: N_24  and  S_25
REMARK   10  A    between atoms: S_25  and  C_28
REMARK   11  A    between atoms: C_31  and  O_34
REMARK   12  A    between atoms: O_34  and  C_35
REMARK                            x       y       z     vdW  Elec       q    Type
REMARK                         _______ _______ _______ _____ _____    ______ ____
ROOT
ATOM      1  N   UNL     1      -7.078  -2.013  -2.252  0.00  0.00    -0.278 N 
ATOM      2  C   UNL     1      -7.639  -1.253  -3.214  0.00  0.00    +0.236 C 
ATOM      3  O   UNL     1      -7.019  -0.329  -3.696  0.00  0.00    -0.274 OA
ATOM      4  H   UNL     1      -7.574  -2.752  -1.867  0.00  0.00    +0.155 HD
ENDROOT
BRANCH   1  11
ATOM      5  N   UNL     1      -1.376  -0.512   0.012  0.00  0.00    +0.383 N 
ATOM      6  C   UNL     1      -1.356  -1.976   0.129  0.00  0.00    -0.074 C 
ATOM      7  C   UNL     1      -2.759  -2.500   0.455  0.00  0.00    +0.018 C 
ATOM      8  C   UNL     1      -3.725  -1.914  -0.566  0.00  0.00    -0.025 A 
ATOM      9  C   UNL     1      -3.362  -0.844  -1.309  0.00  0.00    -0.021 A 
ATOM     10  S   UNL     1      -4.762  -0.518  -2.337  0.00  0.00    -0.079 S 
ATOM     11  C   UNL     1      -5.792  -1.737  -1.814  0.00  0.00    +0.086 A 
ATOM     12  C   UNL     1      -5.061  -2.406  -0.841  0.00  0.00    +0.091 A 
ATOM     13  C   UNL     1      -2.052  -0.124  -1.239  0.00  0.00    -0.035 C 
ATOM     14  H   UNL     1      -1.873  -0.120   0.798  0.00  0.00    -0.081 HD
BRANCH   5  16
ATOM     15  C   UNL     1      -0.019   1.526   0.010  0.00  0.00    -0.017 C 
ATOM     16  C   UNL     1       0.002  -0.004   0.002  0.00  0.00    -0.082 C 
ENDBRANCH   5  16
BRANCH  12  17
ATOM     17  C   UNL     1      -5.614  -3.557  -0.126  0.00  0.00    +0.342 C 
ATOM     18  O   UNL     1      -6.233  -3.391   0.908  0.00  0.00    -0.245 OA
BRANCH  17  19
ATOM     19  O   UNL     1      -5.437  -4.803  -0.613  0.00  0.00    -0.461 OA
BRANCH  19  20
ATOM     20  C   UNL     1      -6.004  -5.879   0.137  0.00  0.00    +0.229 C 
ATOM     21  C   UNL     1      -5.702  -7.204  -0.566  0.00  0.00    +0.048 C 
ENDBRANCH  19  20
ENDBRANCH  17  19
ENDBRANCH  12  17
ENDBRANCH   1  11
BRANCH   2  22
ATOM     22  C   UNL     1      -9.037  -1.552  -3.690  0.00  0.00    +0.166 C 
ATOM     23  C   UNL     1     -10.034  -1.400  -2.522  0.00  0.00    +0.031 C 
ATOM     24  C   UNL     1     -10.591   0.034  -2.725  0.00  0.00    +0.019 C 
ATOM     25  C   UNL     1     -10.631   0.136  -4.270  0.00  0.00    +0.110 C 
ATOM     26  N   UNL     1      -9.428  -0.589  -4.730  0.00  0.00    -0.165 NA
BRANCH  26  27
ATOM     27  S   UNL     1      -8.648  -0.355  -6.172  0.00  0.00    +0.062 S 
ATOM     28  O   UNL     1      -8.965   0.963  -6.596  0.00  0.00    -0.153 OA
ATOM     29  O   UNL     1      -7.309  -0.793  -5.985  0.00  0.00    -0.153 OA
BRANCH  27  30
ATOM     30  C   UNL     1      -9.377  -1.451  -7.342  0.00  0.00    +0.106 A 
ATOM     31  C   UNL     1      -8.870  -2.727  -7.503  0.00  0.00    +0.032 A 
ATOM     32  C   UNL     1      -9.440  -3.588  -8.420  0.00  0.00    +0.047 A 
ATOM     33  C   UNL     1     -10.523  -3.172  -9.181  0.00  0.00    +0.120 A 
ATOM     34  C   UNL     1     -11.030  -1.891  -9.018  0.00  0.00    +0.047 A 
ATOM     35  C   UNL     1     -10.460  -1.036  -8.095  0.00  0.00    +0.032 A 
BRANCH  33  36
ATOM     36  O   UNL     1     -11.085  -4.017 -10.085  0.00  0.00    -0.495 OA
ATOM     37  C   UNL     1     -12.197  -3.520 -10.833  0.00  0.00    +0.277 C 
ENDBRANCH  33  36
ENDBRANCH  27  30
ENDBRANCH  26  27
ENDBRANCH   2  22
TORSDOF 9
