REMARK  Name = ZINC06787714
REMARK  3 active torsions:
REMARK  status: ('A' for Active; 'I' for Inactive)
REMARK    1  A    between atoms: C_1  and  C_2
REMARK    2  A    between atoms: C_7  and  C_23
REMARK    3  A    between atoms: C_10  and  C_13
REMARK                            x       y       z     vdW  Elec       q    Type
REMARK                         _______ _______ _______ _____ _____    ______ ____
ROOT
ATOM      1  C   UNL     1      -1.053  -9.372   2.646  0.00  0.00    +0.067 C 
ATOM      2  C   UNL     1      -0.720  -8.285   1.656  0.00  0.00    +0.062 A 
ATOM      3  C   UNL     1      -0.860  -6.908   1.873  0.00  0.00    +0.067 A 
ATOM      4  C   UNL     1      -0.456  -6.275   0.750  0.00  0.00    +0.118 A 
ATOM      5  N   UNL     1      -0.074  -7.219  -0.149  0.00  0.00    -0.242 N 
ATOM      6  N   UNL     1      -0.243  -8.468   0.448  0.00  0.00    -0.174 NA
ATOM      7  C   UNL     1       0.423  -6.911  -1.493  0.00  0.00    +0.177 C 
ATOM      8  C   UNL     1      -0.008  -5.489  -1.868  0.00  0.00    +0.055 C 
ATOM      9  C   UNL     1       0.352  -4.519  -0.737  0.00  0.00    +0.080 C 
ATOM     10  N   UNL     1      -0.404  -4.907   0.471  0.00  0.00    -0.326 N 
ATOM     11  H   UNL     1      -0.838  -4.250   1.038  0.00  0.00    +0.148 HD
ENDROOT
BRANCH   9  12
ATOM     12  C   UNL     1       1.854  -4.594  -0.454  0.00  0.00    -0.010 C 
ATOM     13  C   UNL     1       2.303  -3.316   0.257  0.00  0.00    +0.012 C 
ATOM     14  C   UNL     1       3.805  -3.390   0.539  0.00  0.00    -0.010 C 
ATOM     15  C   UNL     1       4.565  -3.534  -0.781  0.00  0.00    +0.007 C 
ATOM     16  C   UNL     1       4.116  -4.812  -1.492  0.00  0.00    -0.010 C 
ATOM     17  C   UNL     1       2.614  -4.737  -1.774  0.00  0.00    +0.012 C 
ATOM     18  C   UNL     1       4.408  -6.021  -0.601  0.00  0.00    +0.007 C 
ATOM     19  C   UNL     1       3.648  -5.878   0.719  0.00  0.00    -0.010 C 
ATOM     20  C   UNL     1       4.097  -4.599   1.430  0.00  0.00    +0.007 C 
ATOM     21  C   UNL     1       2.146  -5.803   0.437  0.00  0.00    +0.012 C 
ENDBRANCH   9  12
BRANCH   7  22
ATOM     22  C   UNL     1      -0.161  -7.908  -2.496  0.00  0.00    +0.365 C 
ATOM     23  F   UNL     1       0.226  -9.205  -2.143  0.00  0.00    -0.207 F 
ATOM     24  F   UNL     1      -1.557  -7.817  -2.485  0.00  0.00    -0.207 F 
ENDBRANCH   7  22
TORSDOF 2
