REMARK  Name = ZINC02304893
REMARK  5 active torsions:
REMARK  status: ('A' for Active; 'I' for Inactive)
REMARK    1  A    between atoms: C_4  and  C_7
REMARK    2  A    between atoms: C_7  and  C_8
REMARK    3  A    between atoms: N_10  and  N_11
REMARK    4  A    between atoms: N_19  and  C_22
REMARK    5  A    between atoms: C_22  and  N_23
REMARK                            x       y       z     vdW  Elec       q    Type
REMARK                         _______ _______ _______ _____ _____    ______ ____
ROOT
ATOM      1  N   UNL     1       5.745  -1.842   2.924  0.00  0.00    -0.175 NA
ATOM      2  C   UNL     1       6.872  -2.472   3.148  0.00  0.00    +0.153 C 
ATOM      3  C   UNL     1       7.470  -2.812   4.460  0.00  0.00    +0.029 A 
ATOM      4  C   UNL     1       7.069  -2.595   5.774  0.00  0.00    +0.027 A 
ATOM      5  C   UNL     1       7.860  -3.042   6.814  0.00  0.00    +0.019 A 
ATOM      6  C   UNL     1       9.048  -3.704   6.548  0.00  0.00    +0.017 A 
ATOM      7  C   UNL     1       9.453  -3.923   5.247  0.00  0.00    +0.025 A 
ATOM      8  C   UNL     1       8.670  -3.481   4.187  0.00  0.00    +0.044 A 
ATOM      9  N   UNL     1       8.843  -3.571   2.810  0.00  0.00    -0.282 N 
ATOM     10  C   UNL     1       7.820  -3.004   2.148  0.00  0.00    +0.270 C 
ATOM     11  O   UNL     1       7.698  -2.938   0.939  0.00  0.00    -0.268 OA
ATOM     12 BR   UNL     1       7.322  -2.749   8.604  0.00  0.00    -0.050 Br
ENDROOT
BRANCH   1  15
ATOM     13  C   UNL     1       4.164  -0.959   1.377  0.00  0.00    +0.237 C 
ATOM     14  O   UNL     1       3.486  -0.579   2.308  0.00  0.00    -0.274 OA
ATOM     15  N   UNL     1       5.323  -1.607   1.608  0.00  0.00    -0.206 N 
ATOM     16  H   UNL     1       5.866  -1.911   0.864  0.00  0.00    +0.177 HD
BRANCH  13  17
ATOM     17  C   UNL     1       3.711  -0.707  -0.038  0.00  0.00    +0.132 C 
BRANCH  17  21
ATOM     18  C   UNL     1      -0.017   1.378   0.010  0.00  0.00    +0.000 A 
ATOM     19  C   UNL     1       1.171   2.086   0.002  0.00  0.00    +0.000 A 
ATOM     20  C   UNL     1       2.377   1.411  -0.013  0.00  0.00    +0.004 A 
ATOM     21  C   UNL     1       2.396   0.029  -0.020  0.00  0.00    -0.039 A 
ATOM     22  C   UNL     1       1.208  -0.679  -0.012  0.00  0.00    +0.004 A 
ATOM     23  C   UNL     1       0.002  -0.004   0.002  0.00  0.00    +0.000 A 
ENDBRANCH  17  21
ENDBRANCH  13  17
ENDBRANCH   1  15
BRANCH   9  24
ATOM     24  C   UNL     1       9.992  -4.209   2.163  0.00  0.00    +0.039 C 
BRANCH  24  25
ATOM     25  N   UNL     1       9.702  -5.631   1.941  0.00  0.00    +0.390 N 
ATOM     26  C   UNL     1       9.470  -6.277   3.248  0.00  0.00    -0.077 C 
ATOM     27  C   UNL     1       8.614  -7.499   3.027  0.00  0.00    -0.019 C 
ATOM     28  C   UNL     1       9.470  -8.773   2.909  0.00  0.00    -0.002 C 
ATOM     29  C   UNL     1      10.746  -8.530   2.077  0.00  0.00    -0.002 C 
ATOM     30  C   UNL     1      10.487  -7.673   0.864  0.00  0.00    -0.019 C 
ATOM     31  C   UNL     1      10.757  -6.197   1.223  0.00  0.00    -0.077 C 
ATOM     32  H   UNL     1       8.859  -5.707   1.391  0.00  0.00    -0.080 HD
ENDBRANCH  24  25
ENDBRANCH   9  24
TORSDOF 5
