REMARK  Name = ZINC05105116
REMARK  3 active torsions:
REMARK  status: ('A' for Active; 'I' for Inactive)
REMARK    1  A    between atoms: C_4  and  C_7
REMARK    2  A    between atoms: C_9  and  O_26
REMARK    3  A    between atoms: N_19  and  C_20
REMARK                            x       y       z     vdW  Elec       q    Type
REMARK                         _______ _______ _______ _____ _____    ______ ____
ROOT
ATOM      1  C   UNL     1       2.490   1.048  -0.016  0.00  0.00    +0.166 C 
ATOM      2  C   UNL     1       3.080   1.002  -1.430  0.00  0.00    +0.138 C 
ATOM      3  C   UNL     1       2.055   1.282  -2.535  0.00  0.00    +0.079 C 
ATOM      4  C   UNL     1       2.836   2.155  -3.517  0.00  0.00    -0.035 A 
ATOM      5  C   UNL     1       2.606   2.446  -4.845  0.00  0.00    +0.004 A 
ATOM      6  C   UNL     1       3.545   3.152  -5.575  0.00  0.00    +0.000 A 
ATOM      7  C   UNL     1       4.721   3.572  -4.979  0.00  0.00    +0.001 A 
ATOM      8  C   UNL     1       4.954   3.312  -3.645  0.00  0.00    +0.010 A 
ATOM      9  C   UNL     1       3.999   2.624  -2.893  0.00  0.00    +0.004 A 
ATOM     10  C   UNL     1       3.948   2.260  -1.462  0.00  0.00    +0.101 C 
ATOM     11  N   UNL     1       4.209   2.591  -0.248  0.00  0.00    -0.180 NA
ATOM     12  N   UNL     1       3.539   1.812   0.704  0.00  0.00    -0.214 N 
ENDROOT
BRANCH   1  16
ATOM     13  C   UNL     1      -1.238   3.133   0.029  0.00  0.00    +0.000 A 
ATOM     14  C   UNL     1      -1.219   1.751   0.017  0.00  0.00    +0.000 A 
ATOM     15  C   UNL     1      -0.013   1.076   0.008  0.00  0.00    +0.005 A 
ATOM     16  C   UNL     1       1.175   1.783   0.000  0.00  0.00    -0.022 A 
ATOM     17  C   UNL     1       1.156   3.165   0.008  0.00  0.00    +0.005 A 
ATOM     18  C   UNL     1      -0.050   3.840   0.022  0.00  0.00    +0.000 A 
ENDBRANCH   1  16
BRANCH  12  19
ATOM     19  C   UNL     1       3.808   1.763   2.072  0.00  0.00    +0.052 A 
ATOM     20  C   UNL     1       3.052   0.942   2.902  0.00  0.00    +0.025 A 
ATOM     21  C   UNL     1       3.325   0.892   4.254  0.00  0.00    +0.002 A 
ATOM     22  C   UNL     1       4.340   1.666   4.786  0.00  0.00    +0.000 A 
ATOM     23  C   UNL     1       5.090   2.489   3.965  0.00  0.00    +0.002 A 
ATOM     24  C   UNL     1       4.827   2.539   2.610  0.00  0.00    +0.025 A 
ENDBRANCH  12  19
BRANCH   2  25
ATOM     25  O   UNL     1       3.827  -0.193  -1.670  0.00  0.00    -0.380 OA
ATOM     26  H   UNL     1       4.210  -0.246  -2.556  0.00  0.00    +0.211 HD
ENDBRANCH   2  25
TORSDOF 3
