REMARK  Name = ZINC40021479
REMARK  5 active torsions:
REMARK  status: ('A' for Active; 'I' for Inactive)
REMARK    1  A    between atoms: C_1  and  C_2
REMARK    2  A    between atoms: C_2  and  C_3
REMARK    3  A    between atoms: C_3  and  C_4
REMARK    4  A    between atoms: C_4  and  N_5
REMARK    5  A    between atoms: C_6  and  C_22
REMARK                            x       y       z     vdW  Elec       q    Type
REMARK                         _______ _______ _______ _____ _____    ______ ____
ROOT
ATOM      1  N   UNL     1       1.593  -2.480  -2.437  0.00  0.00    -0.284 N 
ATOM      2  C   UNL     1       1.018  -2.743  -3.767  0.00  0.00    +0.147 C 
ATOM      3  C   UNL     1       2.147  -3.246  -4.606  0.00  0.00    +0.072 A 
ATOM      4  C   UNL     1       2.191  -3.679  -6.006  0.00  0.00    +0.199 A 
ATOM      5  O   UNL     1       1.266  -3.521  -6.783  0.00  0.00    -0.287 OA
ATOM      6  C   UNL     1       3.471  -4.329  -6.387  0.00  0.00    +0.065 A 
ATOM      7  C   UNL     1       3.597  -4.971  -7.619  0.00  0.00    +0.030 A 
ATOM      8  C   UNL     1       4.791  -5.572  -7.953  0.00  0.00    +0.019 A 
ATOM      9  C   UNL     1       5.860  -5.538  -7.067  0.00  0.00    +0.019 A 
ATOM     10  C   UNL     1       5.747  -4.905  -5.851  0.00  0.00    +0.048 A 
ATOM     11  C   UNL     1       4.550  -4.287  -5.489  0.00  0.00    +0.140 A 
ATOM     12  O   UNL     1       4.469  -3.663  -4.291  0.00  0.00    -0.450 OA
ATOM     13  C   UNL     1       3.269  -3.264  -3.827  0.00  0.00    +0.199 A 
ATOM     14  C   UNL     1       2.907  -2.782  -2.483  0.00  0.00    +0.283 C 
ATOM     15  O   UNL     1       3.678  -2.674  -1.551  0.00  0.00    -0.267 OA
ATOM     16 BR   UNL     1       4.973  -6.446  -9.620  0.00  0.00    -0.050 Br
ENDROOT
BRANCH   2  17
ATOM     17  C   UNL     1       0.460  -1.472  -4.352  0.00  0.00    +0.013 A 
ATOM     18  C   UNL     1       0.986  -0.249  -3.979  0.00  0.00    +0.008 A 
ATOM     19  C   UNL     1       0.474   0.917  -4.516  0.00  0.00    +0.001 A 
ATOM     20  C   UNL     1      -0.566   0.862  -5.426  0.00  0.00    +0.003 A 
ATOM     21  C   UNL     1      -1.093  -0.358  -5.801  0.00  0.00    +0.039 A 
ATOM     22  C   UNL     1      -0.577  -1.528  -5.268  0.00  0.00    +0.129 A 
ATOM     23  F   UNL     1      -1.089  -2.723  -5.637  0.00  0.00    -0.205 F 
ENDBRANCH   2  17
BRANCH   1  24
ATOM     24  C   UNL     1       0.866  -1.974  -1.270  0.00  0.00    +0.109 C 
BRANCH  24  25
ATOM     25  C   UNL     1       0.334  -3.151  -0.450  0.00  0.00    +0.019 C 
BRANCH  25  27
ATOM     26  C   UNL     1      -0.919  -3.800   1.611  0.00  0.00    +0.004 C 
ATOM     27  C   UNL     1      -0.387  -2.623   0.792  0.00  0.00    -0.002 C 
ENDBRANCH  25  27
ENDBRANCH  24  25
ENDBRANCH   1  24
TORSDOF 4
