REMARK  Name = ZINC59331565
REMARK  8 active torsions:
REMARK  status: ('A' for Active; 'I' for Inactive)
REMARK    1  A    between atoms: C_8  and  C_10
REMARK    2  A    between atoms: C_13  and  C_16
REMARK    3  A    between atoms: C_16  and  N_17
REMARK    4  A    between atoms: N_17  and  C_18
REMARK    5  A    between atoms: C_18  and  N_20
REMARK    6  A    between atoms: C_21  and  C_23
REMARK    7  A    between atoms: C_26  and  N_32
REMARK    8  A    between atoms: C_27  and  N_29
REMARK                            x       y       z     vdW  Elec       q    Type
REMARK                         _______ _______ _______ _____ _____    ______ ____
ROOT
ATOM      1  C   UNL     1       4.492  -9.908  -1.724  0.00  0.00    +0.137 C 
ATOM      2  S   UNL     1       4.776 -10.995  -0.432  0.00  0.00    -0.018 S 
ENDROOT
BRANCH   1   3
ATOM      3  N   UNL     1       4.597 -10.335  -2.998  0.00  0.00    -0.264 N 
ATOM      4  C   UNL     1       4.926 -11.616  -3.255  0.00  0.00    +0.250 C 
ATOM      5  O   UNL     1       5.128 -12.388  -2.337  0.00  0.00    -0.270 OA
ATOM      6  H   UNL     1       4.436  -9.719  -3.730  0.00  0.00    +0.157 HD
BRANCH   4   7
ATOM      7  C   UNL     1       5.042 -12.083  -4.649  0.00  0.00    +0.039 A 
ATOM      8  C   UNL     1       4.816 -11.195  -5.706  0.00  0.00    +0.015 A 
ATOM      9  C   UNL     1       4.922 -11.628  -6.997  0.00  0.00    +0.026 A 
ATOM     10  C   UNL     1       5.255 -12.952  -7.266  0.00  0.00    +0.060 A 
ATOM     11  C   UNL     1       5.482 -13.843  -6.221  0.00  0.00    +0.148 A 
ATOM     12  C   UNL     1       5.383 -13.412  -4.917  0.00  0.00    +0.047 A 
BRANCH  10  13
ATOM     13  N   UNL     1       5.362 -13.387  -8.583  0.00  0.00    -0.328 N 
ATOM     14  C   UNL     1       4.267 -13.941  -9.393  0.00  0.00    +0.105 C 
ATOM     15  C   UNL     1       4.858 -14.306 -10.772  0.00  0.00    +0.020 C 
ATOM     16  C   UNL     1       6.372 -14.462 -10.471  0.00  0.00    +0.020 C 
ATOM     17  C   UNL     1       6.589 -13.362  -9.399  0.00  0.00    +0.105 C 
ENDBRANCH  10  13
BRANCH  11  18
ATOM     18  N   UNL     1       5.836 -15.251  -6.510  0.00  0.00    +0.058 N 
ATOM     19  O   UNL     1       6.032 -16.024  -5.602  0.00  0.00    -0.126 OA
ATOM     20  O   UNL     1       5.927 -15.628  -7.655  0.00  0.00    -0.126 OA
ENDBRANCH  11  18
ENDBRANCH   4   7
ENDBRANCH   1   3
BRANCH   1  21
ATOM     21  N   UNL     1       4.163  -8.627  -1.467  0.00  0.00    -0.322 N 
ATOM     22  H   UNL     1       4.002  -8.011  -2.199  0.00  0.00    +0.148 HD
BRANCH  21  23
ATOM     23  C   UNL     1       4.048  -8.163  -0.082  0.00  0.00    +0.138 C 
BRANCH  23  27
ATOM     24  C   UNL     1       2.983  -4.022  -0.048  0.00  0.00    +0.007 A 
ATOM     25  C   UNL     1       1.989  -5.002  -0.050  0.00  0.00    +0.011 A 
ATOM     26  C   UNL     1       2.339  -6.336  -0.061  0.00  0.00    +0.006 A 
ATOM     27  C   UNL     1       3.673  -6.704  -0.070  0.00  0.00    -0.030 A 
ATOM     28  C   UNL     1       4.663  -5.738  -0.068  0.00  0.00    +0.006 A 
ATOM     29  C   UNL     1       4.326  -4.400  -0.063  0.00  0.00    +0.011 A 
BRANCH  24  37
ATOM     30  C   UNL     1      -0.016   1.355   0.009  0.00  0.00    +0.002 A 
ATOM     31  C   UNL     1       1.155   2.100   0.002  0.00  0.00    +0.001 A 
ATOM     32  C   UNL     1       2.373   1.448  -0.013  0.00  0.00    +0.017 A 
ATOM     33  C   UNL     1       2.403   0.074  -0.021  0.00  0.00    +0.040 A 
ATOM     34  C   UNL     1       1.227  -0.713  -0.013  0.00  0.00    +0.079 A 
ATOM     35  C   UNL     1       0.002  -0.004   0.002  0.00  0.00    +0.029 A 
ATOM     36  N   UNL     1       1.417  -2.046  -0.022  0.00  0.00    -0.239 NA
ATOM     37  C   UNL     1       2.615  -2.590  -0.037  0.00  0.00    +0.109 A 
ATOM     38  S   UNL     1       3.683  -1.157  -0.039  0.00  0.00    -0.067 S 
ENDBRANCH  24  37
ENDBRANCH  23  27
ENDBRANCH  21  23
ENDBRANCH   1  21
TORSDOF 8
