REMARK  Name = ZINC65314803
REMARK  10 active torsions:
REMARK  status: ('A' for Active; 'I' for Inactive)
REMARK    1  A    between atoms: C_1  and  C_2
REMARK    2  A    between atoms: C_2  and  C_3
REMARK    3  A    between atoms: C_8  and  N_9
REMARK    4  A    between atoms: C_10  and  C_12
REMARK    5  A    between atoms: C_12  and  N_13
REMARK    6  A    between atoms: C_17  and  S_25
REMARK    7  A    between atoms: C_20  and  C_23
REMARK    8  A    between atoms: C_20  and  C_24
REMARK    9  A    between atoms: S_25  and  N_28
REMARK   10  A    between atoms: C_32  and  C_35
REMARK                            x       y       z     vdW  Elec       q    Type
REMARK                         _______ _______ _______ _____ _____    ______ ____
ROOT
ATOM      1  N   UNL     1       6.362  -0.515   0.938  0.00  0.00    -0.262 N 
ATOM      2  C   UNL     1       6.938  -1.770   1.139  0.00  0.00    +0.041 A 
ATOM      3  C   UNL     1       6.378  -2.970   1.575  0.00  0.00    +0.026 A 
ATOM      4  C   UNL     1       7.164  -4.097   1.696  0.00  0.00    +0.030 A 
ATOM      5  C   UNL     1       8.511  -4.047   1.387  0.00  0.00    +0.106 A 
ATOM      6  C   UNL     1       9.074  -2.859   0.953  0.00  0.00    +0.035 A 
ATOM      7  C   UNL     1       8.291  -1.733   0.831  0.00  0.00    -0.010 A 
ATOM      8  C   UNL     1       8.589  -0.316   0.395  0.00  0.00    +0.069 C 
ATOM      9  C   UNL     1       7.254   0.389   0.500  0.00  0.00    +0.230 C 
ATOM     10  O   UNL     1       7.032   1.553   0.239  0.00  0.00    -0.274 OA
ATOM     11  C   UNL     1       9.091  -0.294  -1.050  0.00  0.00    +0.025 C 
ATOM     12  C   UNL     1       9.615   0.327   1.330  0.00  0.00    +0.025 C 
ENDROOT
BRANCH   5  13
ATOM     13  S   UNL     1       9.508  -5.491   1.545  0.00  0.00    +0.061 S 
ATOM     14  O   UNL     1      10.846  -5.044   1.715  0.00  0.00    -0.153 OA
ATOM     15  O   UNL     1       8.859  -6.331   2.489  0.00  0.00    -0.153 OA
BRANCH  13  16
ATOM     16  N   UNL     1       9.455  -6.284   0.092  0.00  0.00    -0.176 NA
ATOM     17  C   UNL     1       8.419  -7.291  -0.174  0.00  0.00    +0.109 C 
ATOM     18  C   UNL     1       9.097  -8.590  -0.621  0.00  0.00    +0.017 C 
ATOM     19  C   UNL     1      10.012  -8.299  -1.813  0.00  0.00    +0.006 C 
ATOM     20  C   UNL     1      11.099  -7.306  -1.394  0.00  0.00    +0.002 C 
ATOM     21  C   UNL     1      10.440  -5.989  -0.958  0.00  0.00    +0.112 C 
ATOM     22  C   UNL     1      12.033  -7.042  -2.576  0.00  0.00    +0.009 C 
ENDBRANCH  13  16
ENDBRANCH   5  13
BRANCH   1  23
ATOM     23  C   UNL     1       4.947  -0.219   1.171  0.00  0.00    +0.209 C 
BRANCH  23  25
ATOM     24  N   UNL     1       2.833  -0.268  -0.113  0.00  0.00    -0.284 N 
ATOM     25  C   UNL     1       4.165  -0.474  -0.091  0.00  0.00    +0.235 C 
ATOM     26  O   UNL     1       4.734  -0.865  -1.088  0.00  0.00    -0.274 OA
ATOM     27  H   UNL     1       2.388   0.106   0.663  0.00  0.00    +0.155 HD
BRANCH  24  33
ATOM     28  C   UNL     1       0.800  -1.084  -1.129  0.00  0.00    -0.026 A 
ATOM     29  C   UNL     1       0.070  -1.399  -2.258  0.00  0.00    +0.005 A 
ATOM     30  C   UNL     1       0.627  -1.234  -3.513  0.00  0.00    +0.000 A 
ATOM     31  C   UNL     1       1.917  -0.751  -3.641  0.00  0.00    +0.002 A 
ATOM     32  C   UNL     1       2.652  -0.433  -2.516  0.00  0.00    +0.023 A 
ATOM     33  C   UNL     1       2.093  -0.594  -1.255  0.00  0.00    +0.037 A 
BRANCH  28  35
ATOM     34  C   UNL     1      -0.422   0.058   0.702  0.00  0.00    +0.009 C 
ATOM     35  C   UNL     1       0.191  -1.265   0.238  0.00  0.00    +0.033 C 
ENDBRANCH  28  35
ENDBRANCH  24  33
ENDBRANCH  23  25
ENDBRANCH   1  23
TORSDOF 6
