REMARK  Name = ZINC58994668
REMARK  8 active torsions:
REMARK  status: ('A' for Active; 'I' for Inactive)
REMARK    1  A    between atoms: C_4  and  O_7
REMARK    2  A    between atoms: O_7  and  C_8
REMARK    3  A    between atoms: C_12  and  C_14
REMARK    4  A    between atoms: N_15  and  N_16
REMARK    5  A    between atoms: C_19  and  S_22
REMARK    6  A    between atoms: S_22  and  C_23
REMARK    7  A    between atoms: C_23  and  C_24
REMARK    8  A    between atoms: N_26  and  C_27
REMARK                            x       y       z     vdW  Elec       q    Type
REMARK                         _______ _______ _______ _____ _____    ______ ____
ROOT
ATOM      1  N   UNL     1       6.644  -7.143  -0.076  0.00  0.00    -0.205 N 
ATOM      2  C   UNL     1       6.509  -8.519  -0.121  0.00  0.00    +0.232 A 
ATOM      3  N   UNL     1       5.374  -9.184  -0.164  0.00  0.00    -0.186 NA
ATOM      4  C   UNL     1       5.624 -10.498  -0.199  0.00  0.00    +0.211 A 
ATOM      5  N   UNL     1       6.922 -10.685  -0.180  0.00  0.00    -0.144 NA
ATOM      6  N   UNL     1       7.519  -9.415  -0.135  0.00  0.00    -0.245 N 
ATOM      7  H   UNL     1       7.527  -6.743  -0.051  0.00  0.00    +0.177 HD
ATOM      8  H   UNL     1       8.469  -9.220  -0.116  0.00  0.00    +0.192 HD
ENDROOT
BRANCH   1  10
ATOM      9  C   UNL     1       5.632  -5.036  -0.025  0.00  0.00    +0.138 C 
ATOM     10  N   UNL     1       5.505  -6.328  -0.067  0.00  0.00    -0.188 NA
BRANCH   9  15
ATOM     11  C   UNL     1       3.435  -1.990   0.039  0.00  0.00    +0.129 A 
ATOM     12  C   UNL     1       2.174  -2.569   0.003  0.00  0.00    +0.046 A 
ATOM     13  C   UNL     1       2.040  -3.945  -0.042  0.00  0.00    +0.004 A 
ATOM     14  C   UNL     1       3.159  -4.751  -0.051  0.00  0.00    +0.010 A 
ATOM     15  C   UNL     1       4.433  -4.178  -0.015  0.00  0.00    -0.002 A 
ATOM     16  C   UNL     1       4.566  -2.788   0.025  0.00  0.00    +0.055 A 
BRANCH  11  17
ATOM     17  O   UNL     1       3.560  -0.637   0.083  0.00  0.00    -0.456 OA
BRANCH  17  21
ATOM     18  C   UNL     1       4.690   1.316  -3.371  0.00  0.00    +0.000 A 
ATOM     19  C   UNL     1       4.650  -0.066  -3.341  0.00  0.00    +0.004 A 
ATOM     20  C   UNL     1       4.272  -0.722  -2.186  0.00  0.00    +0.046 A 
ATOM     21  C   UNL     1       3.933   0.006  -1.055  0.00  0.00    +0.128 A 
ATOM     22  C   UNL     1       3.975   1.393  -1.087  0.00  0.00    +0.046 A 
ATOM     23  C   UNL     1       4.353   2.044  -2.245  0.00  0.00    +0.004 A 
ENDBRANCH  17  21
ENDBRANCH  11  17
ENDBRANCH   9  15
ENDBRANCH   1  10
BRANCH   4  24
ATOM     24  S   UNL     1       4.406 -11.770  -0.262  0.00  0.00    -0.075 S 
BRANCH  24  25
ATOM     25  C   UNL     1       5.375 -13.303  -0.290  0.00  0.00    +0.173 C 
BRANCH  25  26
ATOM     26  C   UNL     1       4.442 -14.485  -0.344  0.00  0.00    +0.227 C 
ATOM     27  O   UNL     1       3.241 -14.311  -0.362  0.00  0.00    -0.275 OA
ATOM     28  N   UNL     1       4.941 -15.737  -0.373  0.00  0.00    -0.285 N 
ATOM     29  H   UNL     1       5.895 -15.881  -0.273  0.00  0.00    +0.155 HD
BRANCH  28  30
ATOM     30  C   UNL     1       4.082 -16.829  -0.546  0.00  0.00    +0.036 A 
ATOM     31  C   UNL     1       4.438 -18.078  -0.054  0.00  0.00    +0.026 A 
ATOM     32  C   UNL     1       3.591 -19.155  -0.226  0.00  0.00    +0.043 A 
ATOM     33  C   UNL     1       2.386 -18.992  -0.888  0.00  0.00    +0.159 A 
ATOM     34  C   UNL     1       2.028 -17.746  -1.381  0.00  0.00    +0.160 A 
ATOM     35  C   UNL     1       2.872 -16.664  -1.206  0.00  0.00    +0.064 A 
ATOM     36  F   UNL     1       0.852 -17.588  -2.027  0.00  0.00    -0.202 F 
ATOM     37  F   UNL     1       1.559 -20.047  -1.055  0.00  0.00    -0.202 F 
ENDBRANCH  28  30
ENDBRANCH  25  26
ENDBRANCH  24  25
ENDBRANCH   4  24
TORSDOF 8
