REMARK  Name = ZINC36027363
REMARK  6 active torsions:
REMARK  status: ('A' for Active; 'I' for Inactive)
REMARK    1  A    between atoms: C_4  and  C_7
REMARK    2  A    between atoms: C_7  and  C_8
REMARK    3  A    between atoms: N_12  and  C_33
REMARK    4  A    between atoms: N_17  and  S_20
REMARK    5  A    between atoms: S_20  and  C_23
REMARK    6  A    between atoms: C_33  and  C_34
REMARK                            x       y       z     vdW  Elec       q    Type
REMARK                         _______ _______ _______ _____ _____    ______ ____
ROOT
ATOM      1  C   UNL     1       4.241  -0.301   1.837  0.00  0.00    +0.023 C 
ATOM      2  C   UNL     1       5.407  -1.236   1.599  0.00  0.00    +0.201 C 
ATOM      3  O   UNL     1       5.471  -2.084   0.734  0.00  0.00    -0.277 OA
ATOM      4  N   UNL     1       6.365  -0.966   2.510  0.00  0.00    -0.311 N 
ATOM      5  C   UNL     1       5.915   0.119   3.386  0.00  0.00    +0.006 C 
ATOM      6  N   UNL     1       4.788   0.780   2.691  0.00  0.00    +0.401 N 
ATOM      7  C   UNL     1       5.434  -0.445   4.722  0.00  0.00    +0.023 C 
ATOM      8  C   UNL     1       6.596  -1.163   5.417  0.00  0.00    +0.109 C 
ATOM      9  N   UNL     1       7.732  -0.237   5.517  0.00  0.00    -0.177 NA
ATOM     10  C   UNL     1       8.221   0.417   4.295  0.00  0.00    +0.109 C 
ATOM     11  C   UNL     1       7.045   1.122   3.609  0.00  0.00    +0.023 C 
ATOM     12  H   UNL     1       5.120   1.548   2.126  0.00  0.00    -0.082 HD
ATOM     13  H   UNL     1       4.096   1.097   3.353  0.00  0.00    -0.082 HD
ENDROOT
BRANCH   9  14
ATOM     14  S   UNL     1       8.447   0.065   6.979  0.00  0.00    +0.063 S 
ATOM     15  O   UNL     1       9.075   1.336   6.870  0.00  0.00    -0.153 OA
ATOM     16  O   UNL     1       7.474  -0.220   7.975  0.00  0.00    -0.153 OA
BRANCH  14  17
ATOM     17  C   UNL     1       9.738  -1.117   7.182  0.00  0.00    +0.131 A 
ATOM     18  C   UNL     1      11.035  -0.711   7.235  0.00  0.00    +0.031 A 
ATOM     19  C   UNL     1      12.071  -1.629   7.395  0.00  0.00    +0.003 A 
ATOM     20  C   UNL     1      11.812  -2.962   7.503  0.00  0.00    +0.010 A 
ATOM     21  C   UNL     1      10.485  -3.417   7.453  0.00  0.00    +0.002 A 
ATOM     22  C   UNL     1       9.430  -2.484   7.295  0.00  0.00    +0.097 A 
ATOM     23  N   UNL     1       8.164  -2.913   7.251  0.00  0.00    -0.253 NA
ATOM     24  C   UNL     1       7.872  -4.186   7.356  0.00  0.00    +0.111 A 
ATOM     25  C   UNL     1       8.861  -5.155   7.518  0.00  0.00    +0.020 A 
ATOM     26  C   UNL     1      10.175  -4.786   7.560  0.00  0.00    +0.011 A 
ENDBRANCH  14  17
ENDBRANCH   9  14
BRANCH   1  27
ATOM     27  C   UNL     1       3.737   0.270   0.511  0.00  0.00    +0.028 C 
BRANCH  27  31
ATOM     28  C   UNL     1       0.360   2.785   1.234  0.00  0.00    +0.000 A 
ATOM     29  C   UNL     1       1.635   3.319   1.246  0.00  0.00    +0.000 A 
ATOM     30  C   UNL     1       2.728   2.505   1.013  0.00  0.00    +0.003 A 
ATOM     31  C   UNL     1       2.546   1.157   0.766  0.00  0.00    -0.048 A 
ATOM     32  C   UNL     1       1.271   0.623   0.755  0.00  0.00    +0.003 A 
ATOM     33  C   UNL     1       0.178   1.437   0.987  0.00  0.00    +0.000 A 
ENDBRANCH  27  31
ENDBRANCH   1  27
BRANCH   4  34
ATOM     34  C   UNL     1       7.656  -1.652   2.609  0.00  0.00    +0.137 C 
BRANCH  34  35
ATOM     35  C   UNL     1       8.638  -1.038   1.611  0.00  0.00    +0.136 C 
ATOM     36  C   UNL     1      10.022  -1.705   1.759  0.00  0.00    +0.035 C 
ATOM     37  C   UNL     1      10.989  -0.503   1.582  0.00  0.00    +0.031 C 
ATOM     38  C   UNL     1      10.165   0.635   2.235  0.00  0.00    +0.160 C 
ATOM     39  O   UNL     1       8.798   0.359   1.883  0.00  0.00    -0.375 OA
ENDBRANCH  34  35
ENDBRANCH   4  34
TORSDOF 6
