REMARK  Name = ZINC20733052
REMARK  5 active torsions:
REMARK  status: ('A' for Active; 'I' for Inactive)
REMARK    1  A    between atoms: C_1  and  O_2
REMARK    2  A    between atoms: O_2  and  C_3
REMARK    3  A    between atoms: C_3  and  C_5
REMARK    4  A    between atoms: C_8  and  N_11
REMARK    5  A    between atoms: C_23  and  C_25
REMARK                            x       y       z     vdW  Elec       q    Type
REMARK                         _______ _______ _______ _____ _____    ______ ____
ROOT
ATOM      1  N   UNL     1      -0.901  -6.866  -0.097  0.00  0.00    -0.269 N 
ATOM      2  C   UNL     1      -2.188  -7.229   0.073  0.00  0.00    +0.307 C 
ATOM      3  O   UNL     1      -3.049  -6.380   0.190  0.00  0.00    -0.252 OA
ATOM      4  N   UNL     1      -2.519  -8.535   0.114  0.00  0.00    -0.272 N 
ATOM      5  C   UNL     1      -1.482  -9.578   0.092  0.00  0.00    +0.116 C 
ATOM      6  C   UNL     1      -1.627 -10.405  -1.191  0.00  0.00    +0.076 C 
ATOM      7  C   UNL     1      -3.083 -10.741  -1.393  0.00  0.00    +0.066 A 
ATOM      8  C   UNL     1      -4.105 -10.096  -0.789  0.00  0.00    +0.064 A 
ATOM      9  N   UNL     1      -5.258 -10.675  -1.220  0.00  0.00    -0.346 N 
ATOM     10  H   UNL     1      -6.160 -10.426  -0.963  0.00  0.00    +0.167 HD
ATOM     11  C   UNL     1      -4.908 -11.662  -2.077  0.00  0.00    +0.197 A 
ATOM     12  N   UNL     1      -3.604 -11.693  -2.172  0.00  0.00    -0.240 NA
ATOM     13  C   UNL     1      -3.931  -8.955   0.188  0.00  0.00    +0.159 C 
ATOM     14  H   UNL     1      -0.226  -7.540  -0.276  0.00  0.00    +0.156 HD
ENDROOT
BRANCH  13  15
ATOM     15  C   UNL     1      -4.256  -9.416   1.585  0.00  0.00    +0.014 A 
ATOM     16  C   UNL     1      -4.218 -10.762   1.896  0.00  0.00    +0.010 A 
ATOM     17  C   UNL     1      -4.516 -11.186   3.177  0.00  0.00    +0.016 A 
ATOM     18  C   UNL     1      -4.854 -10.262   4.151  0.00  0.00    +0.021 A 
ATOM     19  C   UNL     1      -4.893  -8.915   3.842  0.00  0.00    +0.054 A 
ATOM     20  C   UNL     1      -4.589  -8.490   2.560  0.00  0.00    +0.130 A 
ATOM     21  F   UNL     1      -4.622  -7.174   2.258  0.00  0.00    -0.205 F 
ATOM     22 BR   UNL     1      -5.262 -10.843   5.904  0.00  0.00    -0.050 Br
ENDBRANCH  13  15
BRANCH   1  26
ATOM     23  C   UNL     1       0.178  -2.850   0.142  0.00  0.00    +0.059 A 
ATOM     24  C   UNL     1       1.047  -3.838   0.613  0.00  0.00    +0.017 A 
ATOM     25  C   UNL     1       0.687  -5.165   0.533  0.00  0.00    +0.024 A 
ATOM     26  C   UNL     1      -0.540  -5.522  -0.017  0.00  0.00    +0.035 A 
ATOM     27  C   UNL     1      -1.407  -4.541  -0.488  0.00  0.00    +0.024 A 
ATOM     28  C   UNL     1      -1.057  -3.213  -0.405  0.00  0.00    +0.017 A 
BRANCH  23  29
ATOM     29  C   UNL     1       0.559  -1.428   0.227  0.00  0.00    +0.339 C 
ATOM     30  O   UNL     1      -0.199  -0.570  -0.179  0.00  0.00    -0.245 OA
BRANCH  29  32
ATOM     31  C   UNL     1       2.054   0.315   0.805  0.00  0.00    +0.280 C 
ATOM     32  O   UNL     1       1.750  -1.081   0.754  0.00  0.00    -0.464 OA
ENDBRANCH  29  32
ENDBRANCH  23  29
ENDBRANCH   1  26
TORSDOF 4
