REMARK  Name = ZINC14651121
REMARK  13 active torsions:
REMARK  status: ('A' for Active; 'I' for Inactive)
REMARK    1  A    between atoms: C_1  and  C_2
REMARK    2  A    between atoms: C_2  and  C_3
REMARK    3  A    between atoms: C_2  and  C_4
REMARK    4  A    between atoms: C_4  and  C_5
REMARK    5  A    between atoms: C_5  and  O_6
REMARK    6  A    between atoms: O_6  and  C_7
REMARK    7  A    between atoms: C_12  and  C_13
REMARK    8  A    between atoms: N_15  and  C_16
REMARK    9  A    between atoms: C_16  and  N_18
REMARK   10  A    between atoms: N_18  and  C_19
REMARK   11  A    between atoms: C_22  and  O_28
REMARK   12  A    between atoms: C_24  and  N_25
REMARK   13  A    between atoms: O_28  and  C_29
REMARK                            x       y       z     vdW  Elec       q    Type
REMARK                         _______ _______ _______ _____ _____    ______ ____
ROOT
ATOM      1  C   UNL     1       2.326   4.018   0.451  0.00  0.00    +0.253 C 
ATOM      2  O   UNL     1       3.369   3.432   0.664  0.00  0.00    -0.270 OA
ATOM      3  N   UNL     1       2.335   5.346   0.219  0.00  0.00    -0.263 N 
ATOM      4  H   UNL     1       1.502   5.814   0.049  0.00  0.00    +0.157 HD
ENDROOT
BRANCH   1  10
ATOM      5  C   UNL     1       1.038   1.896   0.686  0.00  0.00    +0.133 A 
ATOM      6  C   UNL     1      -0.167   1.209   0.677  0.00  0.00    +0.047 A 
ATOM      7  C   UNL     1      -1.347   1.882   0.428  0.00  0.00    +0.019 A 
ATOM      8  C   UNL     1      -1.338   3.248   0.195  0.00  0.00    +0.019 A 
ATOM      9  C   UNL     1      -0.150   3.947   0.200  0.00  0.00    +0.032 A 
ATOM     10  C   UNL     1       1.051   3.277   0.445  0.00  0.00    +0.080 A 
ATOM     11 BR   UNL     1      -2.963   4.156  -0.138  0.00  0.00    -0.050 Br
BRANCH   5  12
ATOM     12  O   UNL     1       2.197   1.235   0.925  0.00  0.00    -0.491 OA
BRANCH  12  13
ATOM     13  C   UNL     1       2.106  -0.172   1.161  0.00  0.00    +0.229 C 
BRANCH  13  14
ATOM     14  C   UNL     1       3.505  -0.739   1.409  0.00  0.00    +0.044 C 
BRANCH  14  16
ATOM     15  C   UNL     1       4.813  -2.834   1.786  0.00  0.00    +0.007 C 
ATOM     16  C   UNL     1       3.406  -2.245   1.662  0.00  0.00    -0.014 C 
ATOM     17  C   UNL     1       2.632  -2.495   2.958  0.00  0.00    +0.007 C 
ENDBRANCH  14  16
ENDBRANCH  13  14
ENDBRANCH  12  13
ENDBRANCH   5  12
ENDBRANCH   1  10
BRANCH   3  18
ATOM     18  C   UNL     1       3.500   6.023   0.224  0.00  0.00    +0.141 C 
ATOM     19  S   UNL     1       4.969   5.197   0.525  0.00  0.00    -0.018 S 
BRANCH  18  20
ATOM     20  N   UNL     1       3.509   7.351  -0.007  0.00  0.00    -0.295 N 
ATOM     21  H   UNL     1       2.687   7.807  -0.246  0.00  0.00    +0.154 HD
BRANCH  20  22
ATOM     22  C   UNL     1       4.705   8.072   0.097  0.00  0.00    +0.063 A 
ATOM     23  C   UNL     1       5.860   7.594  -0.508  0.00  0.00    +0.029 A 
ATOM     24  C   UNL     1       7.038   8.305  -0.405  0.00  0.00    +0.047 A 
ATOM     25  C   UNL     1       7.069   9.498   0.303  0.00  0.00    +0.122 A 
ATOM     26  C   UNL     1       5.917   9.976   0.908  0.00  0.00    +0.080 A 
ATOM     27  C   UNL     1       4.735   9.268   0.801  0.00  0.00    +0.151 A 
BRANCH  27  28
ATOM     28  N   UNL     1       3.504   9.783   1.441  0.00  0.00    +0.058 N 
ATOM     29  O   UNL     1       3.506  10.878   1.974  0.00  0.00    -0.126 OA
ATOM     30  O   UNL     1       2.488   9.111   1.434  0.00  0.00    -0.126 OA
ENDBRANCH  27  28
BRANCH  25  31
ATOM     31  O   UNL     1       8.231  10.198   0.404  0.00  0.00    -0.495 OA
ATOM     32  C   UNL     1       9.379   9.647  -0.244  0.00  0.00    +0.277 C 
ENDBRANCH  25  31
ENDBRANCH  20  22
ENDBRANCH  18  20
ENDBRANCH   3  18
TORSDOF 10
