REMARK  Name = ZINC33271966
REMARK  6 active torsions:
REMARK  status: ('A' for Active; 'I' for Inactive)
REMARK    1  A    between atoms: C_1  and  C_2
REMARK    2  A    between atoms: C_4  and  C_19
REMARK    3  A    between atoms: N_8  and  C_18
REMARK    4  A    between atoms: N_21  and  C_22
REMARK    5  A    between atoms: C_22  and  C_24
REMARK    6  A    between atoms: C_22  and  C_25
REMARK                            x       y       z     vdW  Elec       q    Type
REMARK                         _______ _______ _______ _____ _____    ______ ____
ROOT
ATOM      1  C   UNL     1       1.296   6.398  -0.026  0.00  0.00    +0.046 C 
ATOM      2  C   UNL     1      -0.037   5.696   0.042  0.00  0.00    -0.027 A 
ATOM      3  C   UNL     1      -0.019   4.314  -0.001  0.00  0.00    +0.018 A 
ATOM      4  C   UNL     1      -1.214   3.594   0.027  0.00  0.00    +0.038 A 
ATOM      5  C   UNL     1      -2.429   4.276   0.037  0.00  0.00    +0.023 A 
ATOM      6  C   UNL     1      -2.454   5.667   0.081  0.00  0.00    +0.008 A 
ATOM      7  C   UNL     1      -1.237   6.377   0.153  0.00  0.00    +0.062 A 
ATOM      8  N   UNL     1      -1.296   7.759   0.337  0.00  0.00    -0.205 N 
ATOM      9  S   UNL     1      -2.386   8.562  -0.649  0.00  0.00    +0.075 S 
ATOM     10  O   UNL     1      -2.018   8.284  -1.988  0.00  0.00    -0.150 OA
ATOM     11  O   UNL     1      -2.537   9.868  -0.122  0.00  0.00    -0.150 OA
ATOM     12  C   UNL     1      -3.889   7.686  -0.323  0.00  0.00    +0.116 A 
ATOM     13  C   UNL     1      -3.776   6.338   0.025  0.00  0.00    +0.011 A 
ATOM     14  C   UNL     1      -4.939   5.629   0.328  0.00  0.00    +0.010 A 
ATOM     15  C   UNL     1      -6.167   6.257   0.259  0.00  0.00    +0.001 A 
ATOM     16  C   UNL     1      -6.260   7.587  -0.109  0.00  0.00    +0.002 A 
ATOM     17  C   UNL     1      -5.110   8.305  -0.403  0.00  0.00    +0.029 A 
ATOM     18  C   UNL     1      -0.535   8.493   1.342  0.00  0.00    +0.157 C 
ENDROOT
BRANCH   4  19
ATOM     19  C   UNL     1      -1.194   2.119   0.019  0.00  0.00    +0.245 C 
ATOM     20  O   UNL     1      -2.239   1.496   0.021  0.00  0.00    -0.270 OA
ATOM     21  N   UNL     1      -0.018   1.461   0.010  0.00  0.00    -0.305 N 
ATOM     22  H   UNL     1       0.927   2.024   0.009  0.00  0.00    +0.150 HD
BRANCH  21  23
ATOM     23  C   UNL     1       0.002  -0.004   0.002  0.00  0.00    +0.100 C 
ATOM     24  C   UNL     1      -0.103  -0.523   1.437  0.00  0.00    +0.033 C 
BRANCH  23  25
ATOM     25  C   UNL     1       1.291  -0.486  -0.613  0.00  0.00    -0.027 A 
ATOM     26  C   UNL     1       2.477   0.167  -0.333  0.00  0.00    +0.005 A 
ATOM     27  C   UNL     1       3.659  -0.278  -0.894  0.00  0.00    +0.000 A 
ATOM     28  C   UNL     1       3.655  -1.369  -1.743  0.00  0.00    +0.000 A 
ATOM     29  C   UNL     1       2.468  -2.018  -2.027  0.00  0.00    +0.000 A 
ATOM     30  C   UNL     1       1.286  -1.576  -1.463  0.00  0.00    +0.005 A 
ENDBRANCH  23  25
ENDBRANCH  21  23
ENDBRANCH   4  19
TORSDOF 3
