REMARK  Name = ZINC55844144
REMARK  6 active torsions:
REMARK  status: ('A' for Active; 'I' for Inactive)
REMARK    1  A    between atoms: C_1  and  C_2
REMARK    2  A    between atoms: C_2  and  C_4
REMARK    3  A    between atoms: C_2  and  N_11
REMARK    4  A    between atoms: C_12  and  C_14
REMARK    5  A    between atoms: C_14  and  N_15
REMARK    6  A    between atoms: N_15  and  C_16
REMARK                            x       y       z     vdW  Elec       q    Type
REMARK                         _______ _______ _______ _____ _____    ______ ____
ROOT
ATOM      1  N   UNL     1      -0.240  -1.150  -4.711  0.00  0.00    -0.335 N 
ATOM      2  H   UNL     1      -1.165  -0.893  -4.572  0.00  0.00    +0.147 HD
ENDROOT
BRANCH   1   3
ATOM      3  C   UNL     1       0.185  -1.575  -5.973  0.00  0.00    +0.028 A 
ATOM      4  C   UNL     1       1.515  -1.949  -6.168  0.00  0.00    +0.025 A 
ATOM      5  C   UNL     1       1.954  -2.368  -7.391  0.00  0.00    +0.030 A 
ATOM      6  C   UNL     1       1.066  -2.425  -8.468  0.00  0.00    +0.078 A 
ATOM      7  C   UNL     1      -0.281  -2.046  -8.277  0.00  0.00    +0.067 A 
ATOM      8  C   UNL     1      -0.717  -1.626  -7.022  0.00  0.00    +0.038 A 
ATOM      9  C   UNL     1      -1.183  -2.119  -9.432  0.00  0.00    +0.262 A 
ATOM     10  O   UNL     1      -2.356  -1.806  -9.335  0.00  0.00    -0.267 OA
ATOM     11  N   UNL     1      -0.669  -2.546 -10.615  0.00  0.00    -0.296 N 
ATOM     12  C   UNL     1       0.642  -2.897 -10.712  0.00  0.00    +0.113 A 
ATOM     13  N   UNL     1       1.461  -2.837  -9.696  0.00  0.00    -0.234 NA
ATOM     14  C   UNL     1       0.944  -3.342 -12.134  0.00  0.00    +0.076 C 
ATOM     15  C   UNL     1      -0.444  -3.619 -12.752  0.00  0.00    +0.029 C 
ATOM     16  C   UNL     1      -1.354  -2.703 -11.909  0.00  0.00    +0.127 C 
ENDBRANCH   1   3
BRANCH   1  17
ATOM     17  C   UNL     1       0.712  -1.094  -3.598  0.00  0.00    +0.197 C 
BRANCH  17  19
ATOM     18  N   UNL     1       0.688  -0.476  -1.203  0.00  0.00    -0.307 N 
ATOM     19  C   UNL     1       0.006  -0.608  -2.358  0.00  0.00    +0.231 C 
ATOM     20  O   UNL     1      -1.175  -0.336  -2.400  0.00  0.00    -0.274 OA
ATOM     21  H   UNL     1       1.632  -0.695  -1.170  0.00  0.00    +0.149 HD
BRANCH  18  23
ATOM     22  C   UNL     1      -0.019   1.526   0.010  0.00  0.00    +0.033 C 
ATOM     23  C   UNL     1       0.002  -0.004   0.002  0.00  0.00    +0.100 C 
BRANCH  23  24
ATOM     24  C   UNL     1       0.731  -0.503   1.223  0.00  0.00    -0.027 A 
ATOM     25  C   UNL     1       2.113  -0.513   1.246  0.00  0.00    +0.008 A 
ATOM     26  C   UNL     1       2.783  -0.971   2.365  0.00  0.00    +0.038 A 
ATOM     27  C   UNL     1       2.068  -1.419   3.464  0.00  0.00    +0.123 A 
ATOM     28  C   UNL     1       0.684  -1.408   3.439  0.00  0.00    +0.038 A 
ATOM     29  C   UNL     1       0.017  -0.945   2.321  0.00  0.00    +0.008 A 
ATOM     30  F   UNL     1       2.722  -1.866   4.558  0.00  0.00    -0.205 F 
ENDBRANCH  23  24
ENDBRANCH  18  23
ENDBRANCH  17  19
ENDBRANCH   1  17
TORSDOF 5
