REMARK  Name = ZINC35665358
REMARK  8 active torsions:
REMARK  status: ('A' for Active; 'I' for Inactive)
REMARK    1  A    between atoms: C_1  and  C_2
REMARK    2  A    between atoms: C_2  and  C_3
REMARK    3  A    between atoms: C_2  and  C_4
REMARK    4  A    between atoms: C_2  and  N_5
REMARK    5  A    between atoms: C_15  and  C_27
REMARK    6  A    between atoms: N_19  and  C_20
REMARK    7  A    between atoms: C_20  and  C_21
REMARK    8  A    between atoms: C_27  and  C_28
REMARK                            x       y       z     vdW  Elec       q    Type
REMARK                         _______ _______ _______ _____ _____    ______ ____
ROOT
ATOM      1  N   UNL     1       1.401  -0.557  -0.303  0.00  0.00    -0.294 N 
ATOM      2  C   UNL     1       2.694  -0.353  -0.622  0.00  0.00    +0.303 C 
ATOM      3  O   UNL     1       3.446   0.161   0.184  0.00  0.00    -0.253 OA
ATOM      4  N   UNL     1       3.155  -0.718  -1.835  0.00  0.00    -0.286 N 
ATOM      5  C   UNL     1       2.236  -1.228  -2.862  0.00  0.00    +0.109 C 
ATOM      6  C   UNL     1       2.415  -0.398  -4.138  0.00  0.00    +0.025 C 
ATOM      7  C   UNL     1       3.888  -0.402  -4.543  0.00  0.00    +0.006 C 
ATOM      8  C   UNL     1       4.744   0.211  -3.437  0.00  0.00    +0.025 C 
ATOM      9  C   UNL     1       4.584  -0.608  -2.157  0.00  0.00    +0.109 C 
ATOM     10  N   UNL     1       4.063   0.365  -5.794  0.00  0.00    +0.401 N 
ATOM     11  C   UNL     1       3.951  -0.675  -6.845  0.00  0.00    +0.023 C 
ATOM     12  C   UNL     1       4.374  -1.959  -6.165  0.00  0.00    +0.201 C 
ATOM     13  O   UNL     1       4.697  -2.985  -6.725  0.00  0.00    -0.277 OA
ATOM     14  N   UNL     1       4.331  -1.769  -4.829  0.00  0.00    -0.309 N 
ATOM     15  H   UNL     1       0.786  -0.903  -0.968  0.00  0.00    +0.151 HD
ATOM     16  H   UNL     1       3.333   1.054  -5.895  0.00  0.00    -0.082 HD
ATOM     17  H   UNL     1       4.973   0.801  -5.820  0.00  0.00    -0.082 HD
ENDROOT
BRANCH   1  19
ATOM     18  C   UNL     1       1.150   1.226   1.352  0.00  0.00    +0.031 C 
ATOM     19  C   UNL     1       0.924  -0.257   1.049  0.00  0.00    +0.028 C 
ATOM     20  C   UNL     1       1.693  -1.107   2.062  0.00  0.00    +0.031 C 
ATOM     21  C   UNL     1      -0.569  -0.576   1.146  0.00  0.00    +0.031 C 
ENDBRANCH   1  19
BRANCH  14  22
ATOM     22  C   UNL     1       4.674  -2.775  -3.821  0.00  0.00    +0.141 C 
BRANCH  22  23
ATOM     23  C   UNL     1       6.173  -2.882  -3.709  0.00  0.00    -0.030 A 
ATOM     24  C   UNL     1       6.822  -4.014  -4.167  0.00  0.00    +0.005 A 
ATOM     25  C   UNL     1       8.197  -4.112  -4.064  0.00  0.00    +0.000 A 
ATOM     26  C   UNL     1       8.923  -3.078  -3.503  0.00  0.00    +0.000 A 
ATOM     27  C   UNL     1       8.275  -1.946  -3.045  0.00  0.00    +0.000 A 
ATOM     28  C   UNL     1       6.900  -1.847  -3.152  0.00  0.00    +0.005 A 
ENDBRANCH  22  23
ENDBRANCH  14  22
BRANCH  11  29
ATOM     29  C   UNL     1       4.887  -0.355  -8.013  0.00  0.00    +0.028 C 
BRANCH  29  30
ATOM     30  C   UNL     1       4.440   0.920  -8.680  0.00  0.00    -0.048 A 
ATOM     31  C   UNL     1       3.529   0.875  -9.718  0.00  0.00    +0.003 A 
ATOM     32  C   UNL     1       3.119   2.045 -10.329  0.00  0.00    +0.000 A 
ATOM     33  C   UNL     1       3.620   3.260  -9.903  0.00  0.00    +0.000 A 
ATOM     34  C   UNL     1       4.532   3.306  -8.864  0.00  0.00    +0.000 A 
ATOM     35  C   UNL     1       4.938   2.136  -8.250  0.00  0.00    +0.003 A 
ENDBRANCH  29  30
ENDBRANCH  11  29
TORSDOF 5
