REMARK  Name = ZINC19793070
REMARK  6 active torsions:
REMARK  status: ('A' for Active; 'I' for Inactive)
REMARK    1  A    between atoms: C_4  and  C_7
REMARK    2  A    between atoms: C_7  and  N_8
REMARK    3  A    between atoms: N_11  and  C_14
REMARK    4  A    between atoms: C_14  and  C_15
REMARK    5  A    between atoms: C_16  and  O_33
REMARK    6  A    between atoms: C_23  and  C_26
REMARK                            x       y       z     vdW  Elec       q    Type
REMARK                         _______ _______ _______ _____ _____    ______ ____
ROOT
ATOM      1  C   UNL     1       1.203  -0.693  -0.013  0.00  0.00    +0.051 A 
ATOM      2  C   UNL     1       0.002  -0.004   0.002  0.00  0.00    +0.125 A 
ATOM      3  C   UNL     1      -0.017   1.389   0.010  0.00  0.00    +0.046 A 
ATOM      4  C   UNL     1       1.153   2.094   0.002  0.00  0.00    +0.019 A 
ATOM      5  C   UNL     1       2.371   1.414  -0.013  0.00  0.00    +0.065 A 
ATOM      6  C   UNL     1       2.401   0.009  -0.021  0.00  0.00    +0.146 A 
ATOM      7  O   UNL     1       3.579  -0.646  -0.035  0.00  0.00    -0.462 OA
ATOM      8  C   UNL     1       4.762  -0.027  -0.043  0.00  0.00    +0.208 A 
ATOM      9  C   UNL     1       4.879   1.326  -0.036  0.00  0.00    +0.064 A 
ATOM     10  C   UNL     1       3.653   2.142  -0.021  0.00  0.00    +0.200 A 
ATOM     11  O   UNL     1       3.696   3.361  -0.015  0.00  0.00    -0.286 OA
ENDROOT
BRANCH   9  12
ATOM     12  C   UNL     1       6.215   1.970  -0.046  0.00  0.00    -0.011 A 
ATOM     13  C   UNL     1       6.502   2.972  -0.970  0.00  0.00    +0.010 A 
ATOM     14  C   UNL     1       7.746   3.571  -0.972  0.00  0.00    +0.020 A 
ATOM     15  C   UNL     1       8.711   3.170  -0.064  0.00  0.00    +0.041 A 
ATOM     16  C   UNL     1       8.432   2.171   0.854  0.00  0.00    +0.020 A 
ATOM     17  C   UNL     1       7.190   1.570   0.867  0.00  0.00    +0.010 A 
ATOM     18 CL   UNL     1      10.275   3.922  -0.075  0.00  0.00    -0.084 Cl
ENDBRANCH   9  12
BRANCH   2  19
ATOM     19  O   UNL     1      -1.168  -0.693   0.009  0.00  0.00    -0.506 OA
ATOM     20  H   UNL     1      -2.125  -0.150   0.021  0.00  0.00    +0.292 HD
ENDBRANCH   2  19
BRANCH   1  21
ATOM     21  C   UNL     1       1.210  -2.200  -0.022  0.00  0.00    +0.126 C 
BRANCH  21  25
ATOM     22  N   UNL     1       0.241  -4.233  -3.596  0.00  0.00    +0.384 N 
ATOM     23  C   UNL     1       1.504  -4.577  -2.929  0.00  0.00    -0.063 C 
ATOM     24  C   UNL     1       1.444  -4.130  -1.466  0.00  0.00    +0.066 C 
ATOM     25  N   UNL     1       1.199  -2.682  -1.409  0.00  0.00    -0.301 NA
ATOM     26  C   UNL     1      -0.064  -2.337  -2.077  0.00  0.00    +0.066 C 
ATOM     27  C   UNL     1      -0.004  -2.785  -3.539  0.00  0.00    -0.063 C 
ATOM     28  H   UNL     1      -0.576  -4.736  -3.058  0.00  0.00    -0.081 HD
BRANCH  22  29
ATOM     29  C   UNL     1       0.230  -4.714  -4.984  0.00  0.00    -0.043 C 
BRANCH  29  33
ATOM     30  C   UNL     1      -3.143  -3.080  -7.032  0.00  0.00    +0.000 A 
ATOM     31  C   UNL     1      -1.939  -2.402  -7.034  0.00  0.00    +0.000 A 
ATOM     32  C   UNL     1      -0.848  -2.931  -6.370  0.00  0.00    +0.002 A 
ATOM     33  C   UNL     1      -0.960  -4.138  -5.706  0.00  0.00    -0.064 A 
ATOM     34  C   UNL     1      -2.163  -4.819  -5.710  0.00  0.00    +0.002 A 
ATOM     35  C   UNL     1      -3.256  -4.288  -6.369  0.00  0.00    +0.000 A 
ENDBRANCH  29  33
ENDBRANCH  22  29
ENDBRANCH  21  25
ENDBRANCH   1  21
TORSDOF 6
