REMARK  Name = ZINC38003279
REMARK  6 active torsions:
REMARK  status: ('A' for Active; 'I' for Inactive)
REMARK    1  A    between atoms: C_1  and  C_2
REMARK    2  A    between atoms: C_2  and  C_4
REMARK    3  A    between atoms: C_2  and  N_10
REMARK    4  A    between atoms: N_10  and  C_11
REMARK    5  A    between atoms: C_14  and  O_20
REMARK    6  A    between atoms: C_16  and  N_17
REMARK                            x       y       z     vdW  Elec       q    Type
REMARK                         _______ _______ _______ _____ _____    ______ ____
ROOT
ATOM      1  C   UNL     1       0.104  -0.412   2.501  0.00  0.00    +0.058 A 
ATOM      2  C   UNL     1      -1.221  -0.008   2.603  0.00  0.00    +0.029 A 
ATOM      3  C   UNL     1      -1.974  -0.383   3.699  0.00  0.00    +0.047 A 
ATOM      4  C   UNL     1      -1.407  -1.162   4.697  0.00  0.00    +0.119 A 
ATOM      5  C   UNL     1      -0.084  -1.565   4.595  0.00  0.00    +0.080 A 
ATOM      6  C   UNL     1       0.669  -1.196   3.497  0.00  0.00    +0.150 A 
ENDROOT
BRANCH   6   7
ATOM      7  N   UNL     1       2.079  -1.631   3.386  0.00  0.00    +0.058 N 
ATOM      8  O   UNL     1       2.534  -1.938   2.309  0.00  0.00    -0.126 OA
ATOM      9  O   UNL     1       2.776  -1.680   4.373  0.00  0.00    -0.126 OA
ENDBRANCH   6   7
BRANCH   1  10
ATOM     10  N   UNL     1       0.867  -0.033   1.391  0.00  0.00    -0.335 N 
ATOM     11  H   UNL     1       1.814  -0.242   1.359  0.00  0.00    +0.147 HD
BRANCH  10  13
ATOM     12  C   UNL     1       0.203   2.177   0.580  0.00  0.00    +0.033 C 
ATOM     13  C   UNL     1       0.236   0.678   0.276  0.00  0.00    +0.104 C 
BRANCH  13  14
ATOM     14  C   UNL     1       1.027   0.438  -0.985  0.00  0.00    +0.011 A 
ATOM     15  C   UNL     1       0.579   0.224  -2.245  0.00  0.00    +0.014 A 
ATOM     16  C   UNL     1       1.498   0.025  -3.259  0.00  0.00    +0.023 A 
ATOM     17  C   UNL     1       2.821   0.052  -2.962  0.00  0.00    +0.055 A 
ATOM     18  S   UNL     1       2.797   0.372  -1.205  0.00  0.00    -0.085 S 
ATOM     19 BR   UNL     1       4.304  -0.182  -4.110  0.00  0.00    -0.043 Br
ENDBRANCH  13  14
ENDBRANCH  10  13
ENDBRANCH   1  10
BRANCH   4  20
ATOM     20  O   UNL     1      -2.149  -1.530   5.775  0.00  0.00    -0.507 OA
ATOM     21  H   UNL     1      -2.619  -2.368   5.662  0.00  0.00    +0.292 HD
ENDBRANCH   4  20
TORSDOF 5
