REMARK  Name = ZINC08792523
REMARK  10 active torsions:
REMARK  status: ('A' for Active; 'I' for Inactive)
REMARK    1  A    between atoms: C_1  and  C_2
REMARK    2  A    between atoms: C_2  and  N_70
REMARK    3  A    between atoms: C_6  and  C_8
REMARK    4  A    between atoms: C_8  and  N_9
REMARK    5  A    between atoms: C_10  and  C_12
REMARK    6  A    between atoms: C_12  and  O_13
REMARK    7  A    between atoms: O_13  and  C_14
REMARK    8  A    between atoms: C_19  and  C_20
REMARK    9  A    between atoms: C_20  and  C_21
REMARK   10  A    between atoms: C_21  and  C_23
REMARK                            x       y       z     vdW  Elec       q    Type
REMARK                         _______ _______ _______ _____ _____    ______ ____
ROOT
ATOM      1  C   UNL     1       3.596   6.459   0.746  0.00  0.00    +0.125 A 
ATOM      2  C   UNL     1       4.861   5.884   0.727  0.00  0.00    +0.048 A 
ATOM      3  C   UNL     1       5.986   6.667   0.877  0.00  0.00    +0.030 A 
ATOM      4  C   UNL     1       5.866   8.040   1.049  0.00  0.00    +0.058 A 
ATOM      5  C   UNL     1       4.585   8.625   1.067  0.00  0.00    +0.015 A 
ATOM      6  C   UNL     1       3.457   7.825   0.910  0.00  0.00    +0.008 A 
ATOM      7  C   UNL     1       4.785  10.069   1.260  0.00  0.00    +0.012 A 
ATOM      8  C   UNL     1       4.012  11.221   1.372  0.00  0.00    +0.030 A 
ATOM      9  C   UNL     1       4.656  12.435   1.555  0.00  0.00    +0.112 A 
ATOM     10  N   UNL     1       5.973  12.544   1.627  0.00  0.00    -0.253 NA
ATOM     11  C   UNL     1       6.753  11.477   1.528  0.00  0.00    +0.096 A 
ATOM     12  C   UNL     1       6.166  10.233   1.343  0.00  0.00    +0.084 A 
ATOM     13  N   UNL     1       6.820   9.044   1.222  0.00  0.00    -0.274 N 
ATOM     14  C   UNL     1       8.171   9.031   1.284  0.00  0.00    +0.264 A 
ATOM     15  O   UNL     1       8.773   7.979   1.180  0.00  0.00    -0.267 OA
ATOM     16  C   UNL     1       8.917  10.287   1.480  0.00  0.00    +0.049 A 
ATOM     17  C   UNL     1       8.226  11.514   1.601  0.00  0.00    +0.015 A 
ATOM     18  C   UNL     1       8.929  12.697   1.781  0.00  0.00    +0.011 A 
ATOM     19  C   UNL     1      10.308  12.669   1.844  0.00  0.00    +0.001 A 
ATOM     20  C   UNL     1      10.992  11.469   1.729  0.00  0.00    +0.001 A 
ATOM     21  C   UNL     1      10.311  10.284   1.548  0.00  0.00    +0.014 A 
ENDROOT
BRANCH   1  22
ATOM     22  O   UNL     1       2.493   5.677   0.597  0.00  0.00    -0.482 OA
BRANCH  22  23
ATOM     23  C   UNL     1       2.710   4.275   0.425  0.00  0.00    +0.324 C 
BRANCH  23  25
ATOM     24  N   UNL     1       1.341   2.241   0.102  0.00  0.00    -0.314 N 
ATOM     25  C   UNL     1       1.383   3.576   0.277  0.00  0.00    +0.251 C 
ATOM     26  O   UNL     1       0.353   4.216   0.314  0.00  0.00    -0.272 OA
ATOM     27  H   UNL     1       2.164   1.729   0.072  0.00  0.00    +0.149 HD
BRANCH  24  28
ATOM     28  C   UNL     1       0.051   1.561  -0.042  0.00  0.00    +0.089 C 
BRANCH  28  32
ATOM     29  C   UNL     1       0.426  -1.201  -2.406  0.00  0.00    -0.078 C 
ATOM     30  C   UNL     1      -0.656  -1.823  -1.500  0.00  0.00    -0.020 C 
ATOM     31  C   UNL     1      -1.067  -0.642  -0.580  0.00  0.00    -0.016 C 
ATOM     32  C   UNL     1       0.286   0.090  -0.391  0.00  0.00    -0.051 C 
ATOM     33  N   UNL     1       0.950  -0.018  -1.705  0.00  0.00    +0.382 N 
ATOM     34  H   UNL     1       0.747   0.823  -2.259  0.00  0.00    -0.081 HD
BRANCH  33  36
ATOM     35  C   UNL     1       3.079  -0.373  -2.888  0.00  0.00    -0.017 C 
ATOM     36  C   UNL     1       2.421  -0.137  -1.527  0.00  0.00    -0.082 C 
ENDBRANCH  33  36
ENDBRANCH  28  32
ENDBRANCH  24  28
ENDBRANCH  23  25
ENDBRANCH  22  23
ENDBRANCH   1  22
BRANCH   6  37
ATOM     37  C   UNL     1       2.084   8.446   0.925  0.00  0.00    +0.069 C 
BRANCH  37  38
ATOM     38  C   UNL     1       1.561   8.477   2.338  0.00  0.00    -0.075 C 
ATOM     39  C   UNL     1       1.714   9.553   3.070  0.00  0.00    +0.007 C 
ATOM     40  C   UNL     1       0.863   7.270   2.910  0.00  0.00    +0.039 C 
ENDBRANCH  37  38
ENDBRANCH   6  37
TORSDOF 8
