REMARK  Name = ZINC66993302
REMARK  9 active torsions:
REMARK  status: ('A' for Active; 'I' for Inactive)
REMARK    1  A    between atoms: C_1  and  C_2
REMARK    2  A    between atoms: C_5  and  C_8
REMARK    3  A    between atoms: C_13  and  N_16
REMARK    4  A    between atoms: N_16  and  C_17
REMARK    5  A    between atoms: C_17  and  C_18
REMARK    6  A    between atoms: C_21  and  C_27
REMARK    7  A    between atoms: C_22  and  N_24
REMARK    8  A    between atoms: C_27  and  C_28
REMARK    9  A    between atoms: C_27  and  C_29
REMARK                            x       y       z     vdW  Elec       q    Type
REMARK                         _______ _______ _______ _____ _____    ______ ____
ROOT
ATOM      1  N   UNL     1      -1.324  -7.178   4.356  0.00  0.00    +0.384 N 
ATOM      2  H   UNL     1      -1.423  -6.617   5.189  0.00  0.00    -0.085 HD
ATOM      3  H   UNL     1      -2.164  -7.108   3.802  0.00  0.00    -0.085 HD
ENDROOT
BRANCH   1   9
ATOM      4  C   UNL     1       1.101  -4.959   0.077  0.00  0.00    +0.247 C 
ATOM      5  O   UNL     1       1.137  -5.660  -0.916  0.00  0.00    -0.270 OA
ATOM      6  N   UNL     1       1.028  -5.525   1.298  0.00  0.00    -0.298 N 
ATOM      7  C   UNL     1       0.862  -4.694   2.499  0.00  0.00    +0.106 C 
ATOM      8  C   UNL     1      -0.351  -5.202   3.286  0.00  0.00    +0.003 C 
ATOM      9  C   UNL     1      -0.178  -6.695   3.573  0.00  0.00    -0.068 C 
ATOM     10  C   UNL     1      -0.103  -7.465   2.253  0.00  0.00    +0.003 C 
ATOM     11  C   UNL     1       1.107  -6.984   1.454  0.00  0.00    +0.106 C 
BRANCH   4  16
ATOM     12  C   UNL     1       1.246   0.771  -0.437  0.00  0.00    +0.044 C 
ATOM     13  C   UNL     1       1.208  -0.730  -0.302  0.00  0.00    -0.050 A 
ATOM     14  C   UNL     1       1.800  -1.339   0.790  0.00  0.00    +0.004 A 
ATOM     15  C   UNL     1       1.769  -2.712   0.919  0.00  0.00    +0.013 A 
ATOM     16  C   UNL     1       1.138  -3.487  -0.055  0.00  0.00    +0.037 A 
ATOM     17  C   UNL     1       0.543  -2.867  -1.154  0.00  0.00    +0.013 A 
ATOM     18  C   UNL     1       0.576  -1.492  -1.269  0.00  0.00    +0.004 A 
ENDBRANCH   4  16
ENDBRANCH   1   9
BRANCH   1  19
ATOM     19  C   UNL     1      -1.102  -8.581   4.734  0.00  0.00    -0.046 C 
BRANCH  19  20
ATOM     20  C   UNL     1      -2.277  -9.076   5.537  0.00  0.00    -0.062 A 
ATOM     21  C   UNL     1      -2.280  -8.941   6.913  0.00  0.00    +0.002 A 
ATOM     22  C   UNL     1      -3.357  -9.396   7.650  0.00  0.00    +0.006 A 
ATOM     23  C   UNL     1      -4.433  -9.984   7.011  0.00  0.00    -0.015 A 
ATOM     24  C   UNL     1      -4.430 -10.118   5.635  0.00  0.00    +0.130 A 
ATOM     25  C   UNL     1      -3.354  -9.660   4.898  0.00  0.00    +0.034 A 
BRANCH  24  26
ATOM     26  N   UNL     1      -5.581 -10.749   4.951  0.00  0.00    +0.057 N 
ATOM     27  O   UNL     1      -6.094 -11.739   5.419  0.00  0.00    -0.126 OA
ATOM     28  O   UNL     1      -6.008 -10.275   3.925  0.00  0.00    -0.126 OA
ENDBRANCH  24  26
BRANCH  23  29
ATOM     29  C   UNL     1      -5.607 -10.481   7.814  0.00  0.00    +0.015 C 
ATOM     30  C   UNL     1      -5.125 -11.509   8.840  0.00  0.00    +0.012 C 
ATOM     31  C   UNL     1      -6.262  -9.304   8.541  0.00  0.00    +0.012 C 
ENDBRANCH  23  29
ENDBRANCH  19  20
ENDBRANCH   1  19
TORSDOF 6
