REMARK  Name = ZINC22627346
REMARK  6 active torsions:
REMARK  status: ('A' for Active; 'I' for Inactive)
REMARK    1  A    between atoms: C_1  and  C_2
REMARK    2  A    between atoms: C_7  and  O_32
REMARK    3  A    between atoms: C_8  and  C_10
REMARK    4  A    between atoms: C_10  and  C_12
REMARK    5  A    between atoms: C_10  and  N_19
REMARK    6  A    between atoms: C_25  and  C_27
REMARK                            x       y       z     vdW  Elec       q    Type
REMARK                         _______ _______ _______ _____ _____    ______ ____
ROOT
ATOM      1  C   UNL     1      -1.262   2.001  -0.024  0.00  0.00    +0.129 C 
ENDROOT
BRANCH   1   9
ATOM      2  C   UNL     1      -3.122   1.079   7.140  0.00  0.00    +0.090 C 
ATOM      3  C   UNL     1      -2.656   1.391   5.742  0.00  0.00    +0.150 A 
ATOM      4  N   UNL     1      -1.830   2.381   5.407  0.00  0.00    -0.205 NA
ATOM      5  C   UNL     1      -1.638   2.364   4.117  0.00  0.00    +0.199 A 
ATOM      6  N   UNL     1      -2.347   1.343   3.562  0.00  0.00    -0.173 N 
ATOM      7  N   UNL     1      -2.998   0.734   4.666  0.00  0.00    -0.147 NA
ATOM      8  C   UNL     1      -2.256   1.181   2.200  0.00  0.00    +0.228 A 
ATOM      9  C   UNL     1      -1.498   2.002   1.465  0.00  0.00    +0.076 A 
ATOM     10  S   UNL     1      -0.833   3.096   2.711  0.00  0.00    -0.047 S 
BRANCH   8  11
ATOM     11  O   UNL     1      -2.944   0.176   1.594  0.00  0.00    -0.492 OA
ATOM     12  H   UNL     1      -2.876   0.041   0.505  0.00  0.00    +0.294 HD
ENDBRANCH   8  11
ENDBRANCH   1   9
BRANCH   1  13
ATOM     13  N   UNL     1      -1.320   3.379  -0.530  0.00  0.00    -0.288 NA
ATOM     14  C   UNL     1      -2.576   4.031  -0.137  0.00  0.00    +0.104 C 
ATOM     15  C   UNL     1      -2.522   5.513  -0.524  0.00  0.00    +0.123 C 
ATOM     16  N   UNL     1      -2.191   5.610  -1.954  0.00  0.00    -0.293 N 
ATOM     17  C   UNL     1      -1.021   4.869  -2.450  0.00  0.00    +0.123 C 
ATOM     18  C   UNL     1      -1.135   3.413  -1.987  0.00  0.00    +0.104 C 
ATOM     19  C   UNL     1      -2.941   6.358  -2.788  0.00  0.00    +0.282 C 
ATOM     20  O   UNL     1      -2.622   6.470  -3.957  0.00  0.00    -0.267 OA
BRANCH  19  21
ATOM     21  C   UNL     1      -4.140   7.038  -2.286  0.00  0.00    +0.189 A 
ATOM     22  C   UNL     1      -5.049   7.722  -3.041  0.00  0.00    +0.054 A 
ATOM     23  C   UNL     1      -6.026   8.204  -2.156  0.00  0.00    +0.042 A 
ATOM     24  C   UNL     1      -5.675   7.798  -0.916  0.00  0.00    +0.196 A 
ATOM     25  O   UNL     1      -4.540   7.091  -0.999  0.00  0.00    -0.458 OA
ENDBRANCH  19  21
ENDBRANCH   1  13
BRANCH   1  26
ATOM     26  C   UNL     1       0.096   1.416  -0.316  0.00  0.00    -0.024 A 
ATOM     27  C   UNL     1       0.209   0.095  -0.710  0.00  0.00    +0.005 A 
ATOM     28  C   UNL     1       1.453  -0.441  -0.984  0.00  0.00    +0.001 A 
ATOM     29  C   UNL     1       2.585   0.344  -0.865  0.00  0.00    +0.015 A 
ATOM     30  C   UNL     1       2.473   1.665  -0.471  0.00  0.00    +0.018 A 
ATOM     31  C   UNL     1       1.227   2.201  -0.197  0.00  0.00    +0.020 A 
ATOM     32 BR   UNL     1       4.021   2.738  -0.308  0.00  0.00    -0.050 Br
ENDBRANCH   1  26
TORSDOF 5
