REMARK  Name = ZINC01206898
REMARK  10 active torsions:
REMARK  status: ('A' for Active; 'I' for Inactive)
REMARK    1  A    between atoms: C_1  and  C_2
REMARK    2  A    between atoms: C_5  and  N_8
REMARK    3  A    between atoms: N_8  and  C_9
REMARK    4  A    between atoms: N_8  and  S_22
REMARK    5  A    between atoms: C_9  and  C_10
REMARK    6  A    between atoms: N_12  and  C_13
REMARK    7  A    between atoms: C_16  and  C_19
REMARK    8  A    between atoms: C_19  and  C_20
REMARK    9  A    between atoms: C_19  and  C_21
REMARK   10  A    between atoms: S_22  and  C_25
REMARK                            x       y       z     vdW  Elec       q    Type
REMARK                         _______ _______ _______ _____ _____    ______ ____
ROOT
ATOM      1  N   UNL     1       1.431  -2.722  -1.344  0.00  0.00    -0.194 N 
ENDROOT
BRANCH   1   6
ATOM      2  C   UNL     1      -4.065  -3.090  -2.692  0.00  0.00    +0.044 C 
ATOM      3  C   UNL     1      -2.604  -2.992  -2.334  0.00  0.00    -0.050 A 
ATOM      4  C   UNL     1      -2.122  -3.651  -1.218  0.00  0.00    +0.005 A 
ATOM      5  C   UNL     1      -0.784  -3.564  -0.887  0.00  0.00    +0.025 A 
ATOM      6  C   UNL     1       0.077  -2.813  -1.677  0.00  0.00    +0.052 A 
ATOM      7  C   UNL     1      -0.411  -2.148  -2.794  0.00  0.00    +0.025 A 
ATOM      8  C   UNL     1      -1.750  -2.244  -3.122  0.00  0.00    +0.005 A 
ENDBRANCH   1   6
BRANCH   1   9
ATOM      9  S   UNL     1       1.884  -2.099   0.122  0.00  0.00    +0.075 S 
ATOM     10  O   UNL     1       3.113  -2.724   0.466  0.00  0.00    -0.150 OA
ATOM     11  O   UNL     1       0.738  -2.158   0.960  0.00  0.00    -0.150 OA
BRANCH   9  12
ATOM     12  C   UNL     1       2.240  -0.392  -0.126  0.00  0.00    +0.109 A 
ATOM     13  C   UNL     1       1.238   0.550   0.015  0.00  0.00    +0.031 A 
ATOM     14  C   UNL     1       1.515   1.890  -0.179  0.00  0.00    +0.040 A 
ATOM     15  C   UNL     1       2.798   2.289  -0.514  0.00  0.00    +0.124 A 
ATOM     16  C   UNL     1       3.801   1.345  -0.655  0.00  0.00    +0.040 A 
ATOM     17  C   UNL     1       3.521   0.006  -0.460  0.00  0.00    +0.031 A 
ATOM     18  F   UNL     1       3.071   3.599  -0.704  0.00  0.00    -0.205 F 
ENDBRANCH   9  12
ENDBRANCH   1   9
BRANCH   1  19
ATOM     19  C   UNL     1       2.450  -3.178  -2.293  0.00  0.00    +0.227 C 
BRANCH  19  20
ATOM     20  C   UNL     1       2.659  -4.662  -2.132  0.00  0.00    +0.236 C 
ATOM     21  O   UNL     1       2.019  -5.278  -1.306  0.00  0.00    -0.274 OA
ATOM     22  N   UNL     1       3.556  -5.304  -2.905  0.00  0.00    -0.284 N 
ATOM     23  H   UNL     1       4.117  -4.802  -3.517  0.00  0.00    +0.155 HD
BRANCH  22  24
ATOM     24  C   UNL     1       3.678  -6.696  -2.827  0.00  0.00    +0.033 A 
ATOM     25  C   UNL     1       4.913  -7.299  -3.026  0.00  0.00    +0.023 A 
ATOM     26  C   UNL     1       5.031  -8.672  -2.942  0.00  0.00    +0.006 A 
ATOM     27  C   UNL     1       3.919  -9.448  -2.672  0.00  0.00    -0.045 A 
ATOM     28  C   UNL     1       2.686  -8.852  -2.479  0.00  0.00    +0.006 A 
ATOM     29  C   UNL     1       2.563  -7.478  -2.556  0.00  0.00    +0.023 A 
BRANCH  27  30
ATOM     30  C   UNL     1       4.050 -10.947  -2.587  0.00  0.00    +0.013 C 
ATOM     31  C   UNL     1       4.565 -11.490  -3.921  0.00  0.00    +0.012 C 
ATOM     32  C   UNL     1       5.035 -11.310  -1.474  0.00  0.00    +0.012 C 
ENDBRANCH  27  30
ENDBRANCH  22  24
ENDBRANCH  19  20
ENDBRANCH   1  19
TORSDOF 7
