REMARK  Name = ZINC04210946
REMARK  6 active torsions:
REMARK  status: ('A' for Active; 'I' for Inactive)
REMARK    1  A    between atoms: C_9  and  C_11
REMARK    2  A    between atoms: N_13  and  N_14
REMARK    3  A    between atoms: C_15  and  C_16
REMARK    4  A    between atoms: C_21  and  O_22
REMARK    5  A    between atoms: O_22  and  C_23
REMARK    6  A    between atoms: C_23  and  C_25
REMARK                            x       y       z     vdW  Elec       q    Type
REMARK                         _______ _______ _______ _____ _____    ______ ____
ROOT
ATOM      1  C   UNL     1       1.194  -0.297  -0.019  0.00  0.00    +0.037 A 
ATOM      2  C   UNL     1       2.253   0.614   0.006  0.00  0.00    +0.013 A 
ATOM      3  C   UNL     1       1.996   1.966   0.083  0.00  0.00    +0.001 A 
ATOM      4  C   UNL     1       0.691   2.426   0.134  0.00  0.00    +0.004 A 
ATOM      5  C   UNL     1      -0.366   1.536   0.110  0.00  0.00    +0.047 A 
ATOM      6  C   UNL     1      -0.125   0.174   0.033  0.00  0.00    +0.141 A 
ENDROOT
BRANCH   1   8
ATOM      7  N   UNL     1       0.475  -2.586  -0.125  0.00  0.00    -0.187 NA
ATOM      8  C   UNL     1       1.462  -1.743  -0.101  0.00  0.00    +0.142 C 
BRANCH   7  11
ATOM      9  C   UNL     1      -0.295  -4.837  -0.228  0.00  0.00    +0.282 C 
ATOM     10  O   UNL     1      -1.440  -4.432  -0.182  0.00  0.00    -0.267 OA
ATOM     11  N   UNL     1       0.730  -3.962  -0.203  0.00  0.00    -0.202 N 
ATOM     12  H   UNL     1       1.644  -4.284  -0.239  0.00  0.00    +0.178 HD
BRANCH   9  21
ATOM     13  C   UNL     1       2.084 -10.727  -0.591  0.00  0.00    +0.001 A 
ATOM     14  C   UNL     1       3.114  -9.787  -0.564  0.00  0.00    +0.002 A 
ATOM     15  C   UNL     1       2.848  -8.456  -0.487  0.00  0.00    +0.028 A 
ATOM     16  C   UNL     1       1.513  -8.012  -0.434  0.00  0.00    +0.072 A 
ATOM     17  C   UNL     1       0.467  -8.971  -0.463  0.00  0.00    +0.000 A 
ATOM     18  C   UNL     1       0.781 -10.337  -0.542  0.00  0.00    +0.010 A 
ATOM     19  C   UNL     1      -0.869  -8.530  -0.411  0.00  0.00    +0.012 A 
ATOM     20  C   UNL     1      -1.104  -7.188  -0.335  0.00  0.00    +0.034 A 
ATOM     21  C   UNL     1      -0.025  -6.291  -0.310  0.00  0.00    +0.128 A 
ATOM     22  N   UNL     1       1.224  -6.713  -0.364  0.00  0.00    -0.242 NA
ENDBRANCH   9  21
ENDBRANCH   7  11
ENDBRANCH   1   8
BRANCH   6  23
ATOM     23  O   UNL     1      -1.163  -0.702   0.010  0.00  0.00    -0.421 OA
BRANCH  23  24
ATOM     24  C   UNL     1      -1.569  -1.202   1.195  0.00  0.00    +0.353 C 
ATOM     25  O   UNL     1      -0.950  -0.943   2.209  0.00  0.00    -0.244 OA
BRANCH  24  26
ATOM     26  C   UNL     1      -2.758  -2.058   1.260  0.00  0.00    +0.116 A 
ATOM     27  C   UNL     1      -3.315  -2.655   2.351  0.00  0.00    +0.070 A 
ATOM     28  C   UNL     1      -4.471  -3.443   2.204  0.00  0.00    +0.008 A 
ATOM     29  C   UNL     1      -5.195  -4.137   3.208  0.00  0.00    +0.010 A 
ATOM     30  C   UNL     1      -6.297  -4.864   2.893  0.00  0.00    +0.001 A 
ATOM     31  C   UNL     1      -6.758  -4.959   1.585  0.00  0.00    +0.001 A 
ATOM     32  C   UNL     1      -6.085  -4.300   0.577  0.00  0.00    +0.016 A 
ATOM     33  C   UNL     1      -4.964  -3.557   0.882  0.00  0.00    +0.022 A 
ATOM     34  S   UNL     1      -3.827  -2.580  -0.069  0.00  0.00    -0.080 S 
ATOM     35 CL   UNL     1      -2.603  -2.439   3.919  0.00  0.00    -0.082 Cl
ENDBRANCH  24  26
ENDBRANCH  23  24
ENDBRANCH   6  23
TORSDOF 6
