REMARK  Name = ZINC59446652
REMARK  6 active torsions:
REMARK  status: ('A' for Active; 'I' for Inactive)
REMARK    1  A    between atoms: C_1  and  C_2
REMARK    2  A    between atoms: C_2  and  N_3
REMARK    3  A    between atoms: C_4  and  S_14
REMARK    4  A    between atoms: N_5  and  C_6
REMARK    5  A    between atoms: S_14  and  C_15
REMARK    6  A    between atoms: N_20  and  C_23
REMARK                            x       y       z     vdW  Elec       q    Type
REMARK                         _______ _______ _______ _____ _____    ______ ____
ROOT
ATOM      1  S   UNL     1      -0.413  -3.272  -0.125  0.00  0.00    -0.077 S 
ENDROOT
BRANCH   1   2
ATOM      2  C   UNL     1       0.416  -4.646   0.722  0.00  0.00    +0.149 C 
ATOM      3  C   UNL     1      -0.127  -6.000   0.221  0.00  0.00    +0.120 C 
ATOM      4  C   UNL     1       1.089  -6.669  -0.381  0.00  0.00    +0.228 C 
ATOM      5  O   UNL     1       1.104  -7.767  -0.896  0.00  0.00    -0.275 OA
ATOM      6  N   UNL     1       2.146  -5.858  -0.255  0.00  0.00    -0.209 N 
ATOM      7  C   UNL     1       1.883  -4.690   0.353  0.00  0.00    +0.240 C 
ATOM      8  O   UNL     1       2.689  -3.812   0.572  0.00  0.00    -0.274 OA
BRANCH   6   9
ATOM      9  C   UNL     1       3.425  -6.199  -0.719  0.00  0.00    +0.045 A 
ATOM     10  C   UNL     1       4.451  -6.441   0.185  0.00  0.00    +0.025 A 
ATOM     11  C   UNL     1       5.709  -6.778  -0.273  0.00  0.00    +0.023 A 
ATOM     12  C   UNL     1       5.949  -6.875  -1.632  0.00  0.00    +0.059 A 
ATOM     13  C   UNL     1       4.928  -6.634  -2.536  0.00  0.00    +0.061 A 
ATOM     14  C   UNL     1       3.665  -6.302  -2.082  0.00  0.00    +0.045 A 
ATOM     15 CL   UNL     1       5.232  -6.756  -4.241  0.00  0.00    -0.082 Cl
ATOM     16 CL   UNL     1       7.532  -7.298  -2.205  0.00  0.00    -0.082 Cl
ENDBRANCH   6   9
ENDBRANCH   1   2
BRANCH   1  18
ATOM     17  N   UNL     1      -0.141  -0.587   0.224  0.00  0.00    -0.324 N 
ATOM     18  C   UNL     1       0.269  -1.833   0.629  0.00  0.00    +0.155 C 
ATOM     19  N   UNL     1       1.169  -1.953   1.579  0.00  0.00    -0.226 NA
ATOM     20  H   UNL     1       0.222   0.206   0.650  0.00  0.00    +0.148 HD
BRANCH  19  21
ATOM     21  C   UNL     1       1.622  -0.840   2.236  0.00  0.00    +0.069 A 
ATOM     22  C   UNL     1       0.720   0.012   2.876  0.00  0.00    +0.048 A 
ATOM     23  C   UNL     1       1.184   1.132   3.537  0.00  0.00    +0.044 A 
ATOM     24  C   UNL     1       2.540   1.411   3.566  0.00  0.00    +0.040 A 
ATOM     25  C   UNL     1       3.439   0.569   2.934  0.00  0.00    +0.044 A 
ATOM     26  C   UNL     1       2.989  -0.557   2.274  0.00  0.00    +0.048 A 
ATOM     27 CL   UNL     1       5.137   0.927   2.977  0.00  0.00    -0.083 Cl
ATOM     28 CL   UNL     1       0.064   2.194   4.332  0.00  0.00    -0.083 Cl
ENDBRANCH  19  21
BRANCH  17  30
ATOM     29  C   UNL     1      -1.405   1.030  -1.107  0.00  0.00    +0.024 C 
ATOM     30  C   UNL     1      -1.125  -0.453  -0.853  0.00  0.00    +0.100 C 
ENDBRANCH  17  30
ENDBRANCH   1  18
TORSDOF 5
