REMARK  Name = ZINC04517209
REMARK  9 active torsions:
REMARK  status: ('A' for Active; 'I' for Inactive)
REMARK    1  A    between atoms: C_1  and  C_2
REMARK    2  A    between atoms: C_3  and  C_20
REMARK    3  A    between atoms: C_12  and  N_16
REMARK    4  A    between atoms: C_13  and  C_14
REMARK    5  A    between atoms: C_20  and  O_22
REMARK    6  A    between atoms: O_22  and  C_23
REMARK    7  A    between atoms: C_23  and  C_24
REMARK    8  A    between atoms: C_23  and  C_25
REMARK    9  A    between atoms: C_23  and  C_26
REMARK                            x       y       z     vdW  Elec       q    Type
REMARK                         _______ _______ _______ _____ _____    ______ ____
ROOT
ATOM      1  C   UNL     1       4.232  -3.662  -2.304  0.00  0.00    +0.061 C 
ATOM      2  C   UNL     1       4.003  -2.660  -1.203  0.00  0.00    +0.019 C 
ATOM      3  C   UNL     1       3.948  -1.328  -1.398  0.00  0.00    +0.078 C 
ATOM      4  C   UNL     1       3.704  -0.719  -0.036  0.00  0.00    +0.148 C 
ATOM      5  C   UNL     1       2.399   0.023  -0.021  0.00  0.00    +0.020 A 
ATOM      6  C   UNL     1       1.208  -0.679  -0.013  0.00  0.00    +0.009 A 
ATOM      7  C   UNL     1       0.002  -0.004   0.002  0.00  0.00    +0.001 A 
ATOM      8  C   UNL     1      -0.017   1.379   0.010  0.00  0.00    +0.004 A 
ATOM      9  C   UNL     1       1.169   2.086   0.002  0.00  0.00    +0.046 A 
ATOM     10  C   UNL     1       2.383   1.410  -0.013  0.00  0.00    +0.135 A 
ATOM     11  O   UNL     1       3.540   2.117  -0.021  0.00  0.00    -0.441 OA
ATOM     12  C   UNL     1       4.695   1.530   0.334  0.00  0.00    +0.199 C 
ATOM     13  C   UNL     1       4.839   0.182   0.347  0.00  0.00    +0.110 C 
ATOM     14  C   UNL     1       3.641  -1.913   0.889  0.00  0.00    +0.238 C 
ATOM     15  O   UNL     1       3.459  -1.901   2.088  0.00  0.00    -0.274 OA
ATOM     16  N   UNL     1       3.827  -2.995   0.107  0.00  0.00    -0.288 N 
ATOM     17  H   UNL     1       3.836  -3.907   0.438  0.00  0.00    +0.155 HD
ENDROOT
BRANCH  12  18
ATOM     18  N   UNL     1       5.759   2.318   0.696  0.00  0.00    -0.328 N 
ATOM     19  H   UNL     1       5.671   3.284   0.692  0.00  0.00    +0.145 HD
ATOM     20  H   UNL     1       6.599   1.909   0.955  0.00  0.00    +0.145 HD
ENDBRANCH  12  18
BRANCH  13  21
ATOM     21  C   UNL     1       6.094  -0.389   0.733  0.00  0.00    +0.102 C 
ATOM     22  N   UNL     1       7.090  -0.842   1.038  0.00  0.00    -0.191 NA
ENDBRANCH  13  21
BRANCH   3  23
ATOM     23  C   UNL     1       4.088  -0.639  -2.626  0.00  0.00    +0.339 C 
ATOM     24  O   UNL     1       4.282  -1.262  -3.654  0.00  0.00    -0.245 OA
BRANCH  23  25
ATOM     25  O   UNL     1       4.007   0.707  -2.659  0.00  0.00    -0.456 OA
BRANCH  25  26
ATOM     26  C   UNL     1       4.158   1.336  -3.933  0.00  0.00    +0.106 C 
ATOM     27  C   UNL     1       3.067   0.835  -4.881  0.00  0.00    +0.055 C 
ATOM     28  C   UNL     1       4.036   2.852  -3.771  0.00  0.00    +0.055 C 
ATOM     29  C   UNL     1       5.533   0.993  -4.511  0.00  0.00    +0.055 C 
ENDBRANCH  25  26
ENDBRANCH  23  25
ENDBRANCH   3  23
TORSDOF 5
