REMARK  Name = ZINC39697935
REMARK  11 active torsions:
REMARK  status: ('A' for Active; 'I' for Inactive)
REMARK    1  A    between atoms: C_1  and  C_2
REMARK    2  A    between atoms: C_7  and  N_12
REMARK    3  A    between atoms: C_9  and  C_11
REMARK    4  A    between atoms: C_13  and  C_15
REMARK    5  A    between atoms: C_15  and  S_16
REMARK    6  A    between atoms: S_16  and  C_17
REMARK    7  A    between atoms: C_21  and  C_33
REMARK    8  A    between atoms: N_27  and  C_28
REMARK    9  A    between atoms: C_28  and  C_29
REMARK   10  A    between atoms: C_29  and  C_31
REMARK   11  A    between atoms: C_29  and  O_32
REMARK                            x       y       z     vdW  Elec       q    Type
REMARK                         _______ _______ _______ _____ _____    ______ ____
ROOT
ATOM      1  C   UNL     1       2.296  -6.363   5.962  0.00  0.00    +0.173 A 
ATOM      2  N   UNL     1       3.150  -5.492   6.440  0.00  0.00    -0.223 NA
ATOM      3  C   UNL     1       3.900  -5.761   7.535  0.00  0.00    +0.080 A 
ATOM      4  C   UNL     1       4.810  -4.830   8.044  0.00  0.00    +0.043 A 
ATOM      5  C   UNL     1       5.557  -5.151   9.171  0.00  0.00    +0.065 A 
ATOM      6  C   UNL     1       5.403  -6.397   9.794  0.00  0.00    +0.016 A 
ATOM      7  C   UNL     1       4.518  -7.314   9.306  0.00  0.00    +0.016 A 
ATOM      8  C   UNL     1       3.757  -7.012   8.177  0.00  0.00    +0.065 A 
ATOM      9  C   UNL     1       2.790  -7.971   7.618  0.00  0.00    +0.262 A 
ATOM     10  O   UNL     1       2.621  -9.065   8.125  0.00  0.00    -0.267 OA
ATOM     11  N   UNL     1       2.092  -7.591   6.523  0.00  0.00    -0.285 N 
ENDROOT
BRANCH   5  12
ATOM     12  C   UNL     1       6.522  -4.172   9.715  0.00  0.00    +0.387 C 
ATOM     13  O   UNL     1       6.660  -3.084   9.174  0.00  0.00    -0.241 OA
ATOM     14  O   UNL     1       7.181  -4.450  10.706  0.00  0.00    -0.241 OA
ENDBRANCH   5  12
BRANCH   1  15
ATOM     15  S   UNL     1       1.363  -5.927   4.532  0.00  0.00    -0.078 S 
BRANCH  15  16
ATOM     16  C   UNL     1       1.936  -4.254   4.128  0.00  0.00    +0.173 C 
BRANCH  16  18
ATOM     17  N   UNL     1       1.471  -2.526   2.420  0.00  0.00    -0.312 N 
ATOM     18  C   UNL     1       1.207  -3.754   2.907  0.00  0.00    +0.224 C 
ATOM     19  O   UNL     1       0.382  -4.458   2.364  0.00  0.00    -0.275 OA
ATOM     20  H   UNL     1       2.131  -1.963   2.855  0.00  0.00    +0.149 HD
BRANCH  17  26
ATOM     21  C   UNL     1      -0.019   1.526   0.010  0.00  0.00    +0.008 C 
ATOM     22  C   UNL     1       0.002  -0.004   0.002  0.00  0.00    -0.009 C 
ATOM     23  C   UNL     1       0.718  -0.497  -1.257  0.00  0.00    +0.003 C 
ATOM     24  C   UNL     1       0.739  -2.027  -1.265  0.00  0.00    +0.002 C 
ATOM     25  C   UNL     1       1.479  -2.534  -0.026  0.00  0.00    +0.022 C 
ATOM     26  C   UNL     1       0.763  -2.041   1.233  0.00  0.00    +0.076 C 
ATOM     27  C   UNL     1       0.742  -0.511   1.242  0.00  0.00    +0.009 C 
ATOM     28  C   UNL     1       0.026  -0.018   2.500  0.00  0.00    +0.009 C 
ENDBRANCH  17  26
ENDBRANCH  16  18
ENDBRANCH  15  16
ENDBRANCH   1  15
BRANCH  11  29
ATOM     29  C   UNL     1       1.113  -8.507   5.931  0.00  0.00    +0.158 C 
BRANCH  29  30
ATOM     30  C   UNL     1       1.802  -9.382   4.882  0.00  0.00    +0.131 C 
ATOM     31  C   UNL     1       0.780 -10.338   4.264  0.00  0.00    +0.039 C 
BRANCH  30  32
ATOM     32  O   UNL     1       2.357  -8.552   3.860  0.00  0.00    -0.390 OA
ATOM     33  H   UNL     1       2.811  -9.040   3.159  0.00  0.00    +0.210 HD
ENDBRANCH  30  32
ENDBRANCH  29  30
ENDBRANCH  11  29
TORSDOF 8
