REMARK  Name = ZINC02421661
REMARK  12 active torsions:
REMARK  status: ('A' for Active; 'I' for Inactive)
REMARK    1  A    between atoms: C_1  and  C_2
REMARK    2  A    between atoms: C_5  and  C_32
REMARK    3  A    between atoms: C_6  and  S_8
REMARK    4  A    between atoms: S_8  and  C_11
REMARK    5  A    between atoms: N_22  and  C_25
REMARK    6  A    between atoms: C_23  and  N_24
REMARK    7  A    between atoms: C_25  and  C_26
REMARK    8  A    between atoms: C_26  and  C_27
REMARK    9  A    between atoms: C_27  and  O_28
REMARK   10  A    between atoms: O_28  and  C_29
REMARK   11  A    between atoms: C_29  and  C_30
REMARK   12  A    between atoms: C_29  and  C_31
REMARK                            x       y       z     vdW  Elec       q    Type
REMARK                         _______ _______ _______ _____ _____    ______ ____
ROOT
ATOM      1  C   UNL     1      -5.303   1.930   3.216  0.00  0.00    +0.160 A 
ATOM      2  C   UNL     1      -5.677   2.241   4.545  0.00  0.00    +0.135 A 
ATOM      3  C   UNL     1      -6.466   1.098   5.020  0.00  0.00    +0.163 A 
ATOM      4  N   UNL     1      -6.955   1.106   6.240  0.00  0.00    -0.226 NA
ATOM      5  C   UNL     1      -6.730   2.156   7.041  0.00  0.00    +0.092 A 
ATOM      6  C   UNL     1      -7.250   2.172   8.349  0.00  0.00    +0.030 A 
ATOM      7  C   UNL     1      -7.017   3.242   9.156  0.00  0.00    +0.002 A 
ATOM      8  C   UNL     1      -6.269   4.330   8.708  0.00  0.00    +0.002 A 
ATOM      9  C   UNL     1      -5.750   4.350   7.451  0.00  0.00    +0.030 A 
ATOM     10  C   UNL     1      -5.969   3.261   6.585  0.00  0.00    +0.090 A 
ATOM     11  N   UNL     1      -5.462   3.272   5.348  0.00  0.00    -0.240 NA
ATOM     12  N   UNL     1      -6.513   0.201   3.975  0.00  0.00    -0.311 N 
ATOM     13  C   UNL     1      -5.820   0.717   2.909  0.00  0.00    +0.126 A 
ENDROOT
BRANCH   1  14
ATOM     14  S   UNL     1      -4.341   2.946   2.146  0.00  0.00    +0.031 S 
ATOM     15  O   UNL     1      -4.206   4.204   2.793  0.00  0.00    -0.164 OA
ATOM     16  O   UNL     1      -4.902   2.814   0.847  0.00  0.00    -0.164 OA
BRANCH  14  22
ATOM     17  C   UNL     1      -0.515   0.502  -0.444  0.00  0.00    +0.044 C 
ATOM     18  C   UNL     1      -1.009   1.122   0.838  0.00  0.00    -0.049 A 
ATOM     19  C   UNL     1      -0.195   1.139   1.955  0.00  0.00    +0.004 A 
ATOM     20  C   UNL     1      -0.647   1.708   3.131  0.00  0.00    +0.005 A 
ATOM     21  C   UNL     1      -1.914   2.260   3.189  0.00  0.00    -0.025 A 
ATOM     22  C   UNL     1      -2.727   2.243   2.072  0.00  0.00    +0.097 A 
ATOM     23  C   UNL     1      -2.273   1.678   0.895  0.00  0.00    +0.031 A 
ATOM     24  C   UNL     1      -2.407   2.880   4.471  0.00  0.00    +0.046 C 
ENDBRANCH  14  22
ENDBRANCH   1  14
BRANCH  13  25
ATOM     25  N   UNL     1      -5.667   0.083   1.689  0.00  0.00    -0.343 N 
ATOM     26  H   UNL     1      -5.159   0.510   0.981  0.00  0.00    +0.144 HD
ATOM     27  H   UNL     1      -6.067  -0.788   1.541  0.00  0.00    +0.144 HD
ENDBRANCH  13  25
BRANCH  12  28
ATOM     28  C   UNL     1      -7.199  -1.094   3.996  0.00  0.00    +0.127 C 
BRANCH  28  29
ATOM     29  C   UNL     1      -8.641  -0.915   3.518  0.00  0.00    +0.050 C 
BRANCH  29  30
ATOM     30  C   UNL     1      -9.357  -2.267   3.541  0.00  0.00    +0.162 C 
BRANCH  30  31
ATOM     31  O   UNL     1     -10.704  -2.100   3.095  0.00  0.00    -0.377 OA
BRANCH  31  32
ATOM     32  C   UNL     1     -11.465  -3.310   3.077  0.00  0.00    +0.112 C 
ATOM     33  C   UNL     1     -12.939  -2.989   3.330  0.00  0.00    +0.037 C 
ATOM     34  C   UNL     1     -11.317  -3.986   1.713  0.00  0.00    +0.037 C 
ENDBRANCH  31  32
ENDBRANCH  30  31
ENDBRANCH  29  30
ENDBRANCH  28  29
ENDBRANCH  12  28
TORSDOF 8
