REMARK  Name = ZINC14468565
REMARK  11 active torsions:
REMARK  status: ('A' for Active; 'I' for Inactive)
REMARK    1  A    between atoms: C_1  and  C_2
REMARK    2  A    between atoms: C_5  and  N_9
REMARK    3  A    between atoms: C_6  and  C_8
REMARK    4  A    between atoms: N_9  and  S_10
REMARK    5  A    between atoms: S_10  and  C_13
REMARK    6  A    between atoms: C_26  and  C_29
REMARK    7  A    between atoms: C_32  and  O_37
REMARK    8  A    between atoms: C_33  and  O_35
REMARK    9  A    between atoms: O_35  and  C_36
REMARK   10  A    between atoms: O_37  and  C_38
REMARK   11  A    between atoms: C_38  and  C_40
REMARK                            x       y       z     vdW  Elec       q    Type
REMARK                         _______ _______ _______ _____ _____    ______ ____
ROOT
ATOM      1  C   UNL     1      -3.562   4.034  -0.684  0.00  0.00    +0.109 A 
ATOM      2  C   UNL     1      -3.393   4.934   0.352  0.00  0.00    +0.030 A 
ATOM      3  C   UNL     1      -2.989   6.226   0.078  0.00  0.00    +0.025 A 
ATOM      4  C   UNL     1      -2.766   6.620  -1.235  0.00  0.00    +0.031 A 
ATOM      5  C   UNL     1      -2.938   5.723  -2.278  0.00  0.00    -0.018 A 
ATOM      6  C   UNL     1      -3.339   4.425  -1.988  0.00  0.00    +0.034 A 
ATOM      7  C   UNL     1      -2.706   6.101  -3.706  0.00  0.00    +0.049 C 
ATOM      8  C   UNL     1      -4.010   6.282  -4.447  0.00  0.00    -0.023 C 
ATOM      9  C   UNL     1      -3.918   7.243  -5.318  0.00  0.00    -0.030 C 
ATOM     10  C   UNL     1      -2.536   7.866  -5.271  0.00  0.00    +0.033 C 
ATOM     11  C   UNL     1      -2.009   7.466  -3.861  0.00  0.00    +0.029 C 
ATOM     12  C   UNL     1      -2.590   8.466  -2.857  0.00  0.00    +0.105 C 
ATOM     13  N   UNL     1      -2.398   7.944  -1.501  0.00  0.00    -0.336 N 
ATOM     14  H   UNL     1      -2.014   8.499  -0.804  0.00  0.00    +0.147 HD
ENDROOT
BRANCH  12  15
ATOM     15  C   UNL     1      -1.880   9.789  -2.994  0.00  0.00    -0.023 A 
ATOM     16  C   UNL     1      -0.642   9.971  -2.406  0.00  0.00    +0.009 A 
ATOM     17  C   UNL     1       0.013  11.182  -2.528  0.00  0.00    +0.050 A 
ATOM     18  C   UNL     1      -0.571  12.217  -3.242  0.00  0.00    +0.173 A 
ATOM     19  C   UNL     1      -1.817  12.033  -3.834  0.00  0.00    +0.163 A 
ATOM     20  C   UNL     1      -2.466  10.815  -3.712  0.00  0.00    +0.055 A 
BRANCH  19  21
ATOM     21  O   UNL     1      -2.393  13.045  -4.536  0.00  0.00    -0.491 OA
ATOM     22  C   UNL     1      -3.673  12.785  -5.117  0.00  0.00    +0.277 C 
ENDBRANCH  19  21
BRANCH  18  23
ATOM     23  O   UNL     1       0.073  13.408  -3.364  0.00  0.00    -0.422 OA
BRANCH  23  24
ATOM     24  C   UNL     1      -0.220  14.355  -2.459  0.00  0.00    +0.309 C 
ATOM     25  O   UNL     1      -1.090  14.162  -1.643  0.00  0.00    -0.251 OA
ATOM     26  C   UNL     1       0.535  15.659  -2.460  0.00  0.00    +0.136 C 
ENDBRANCH  23  24
ENDBRANCH  18  23
ENDBRANCH  12  15
BRANCH   1  27
ATOM     27  S   UNL     1      -4.072   2.384  -0.338  0.00  0.00    +0.072 S 
ATOM     28  O   UNL     1      -4.691   1.894  -1.520  0.00  0.00    -0.150 OA
ATOM     29  O   UNL     1      -4.743   2.420   0.914  0.00  0.00    -0.150 OA
BRANCH  27  30
ATOM     30  N   UNL     1      -2.700   1.484  -0.115  0.00  0.00    -0.216 N 
ATOM     31  H   UNL     1      -2.518   0.726  -0.692  0.00  0.00    +0.174 HD
BRANCH  30  36
ATOM     32  C   UNL     1       0.935   2.846   4.019  0.00  0.00    +0.044 C 
ATOM     33  C   UNL     1      -0.031   2.482   2.921  0.00  0.00    -0.050 A 
ATOM     34  C   UNL     1      -1.391   2.644   3.117  0.00  0.00    +0.005 A 
ATOM     35  C   UNL     1      -2.279   2.311   2.113  0.00  0.00    +0.025 A 
ATOM     36  C   UNL     1      -1.805   1.817   0.904  0.00  0.00    +0.051 A 
ATOM     37  C   UNL     1      -0.439   1.650   0.713  0.00  0.00    -0.028 A 
ATOM     38  C   UNL     1       0.443   1.985   1.721  0.00  0.00    +0.008 A 
ATOM     39  C   UNL     1       0.079   1.110  -0.595  0.00  0.00    +0.046 C 
ENDBRANCH  30  36
ENDBRANCH  27  30
ENDBRANCH   1  27
TORSDOF 7
