REMARK  Name = ZINC22107368
REMARK  8 active torsions:
REMARK  status: ('A' for Active; 'I' for Inactive)
REMARK    1  A    between atoms: C_1  and  C_2
REMARK    2  A    between atoms: C_2  and  C_3
REMARK    3  A    between atoms: C_3  and  N_4
REMARK    4  A    between atoms: C_14  and  S_15
REMARK    5  A    between atoms: S_15  and  C_16
REMARK    6  A    between atoms: C_16  and  C_17
REMARK    7  A    between atoms: C_19  and  O_20
REMARK    8  A    between atoms: C_29  and  C_31
REMARK                            x       y       z     vdW  Elec       q    Type
REMARK                         _______ _______ _______ _____ _____    ______ ____
ROOT
ATOM      1  C   UNL     1      -0.369  -7.024   0.344  0.00  0.00    +0.113 C 
ENDROOT
BRANCH   1   2
ATOM      2  C   UNL     1      -0.286  -6.287  -0.968  0.00  0.00    -0.020 A 
ATOM      3  C   UNL     1      -0.279  -6.960  -2.147  0.00  0.00    +0.092 A 
ATOM      4  C   UNL     1      -0.200  -6.248  -3.361  0.00  0.00    +0.285 A 
ATOM      5  O   UNL     1      -0.132  -4.908  -3.389  0.00  0.00    -0.425 OA
ATOM      6  C   UNL     1      -0.136  -4.178  -2.253  0.00  0.00    +0.141 A 
ATOM      7  C   UNL     1      -0.211  -4.825  -1.005  0.00  0.00    +0.022 A 
ATOM      8  C   UNL     1      -0.215  -4.073   0.175  0.00  0.00    +0.013 A 
ATOM      9  C   UNL     1      -0.140  -2.712   0.112  0.00  0.00    +0.024 A 
ATOM     10  C   UNL     1      -0.071  -2.064  -1.121  0.00  0.00    +0.037 A 
ATOM     11  C   UNL     1      -0.065  -2.794  -2.300  0.00  0.00    +0.070 A 
ATOM     12  N   UNL     1       0.000  -0.672  -1.169  0.00  0.00    -0.286 N 
ATOM     13  C   UNL     1      -0.605  -0.000  -2.168  0.00  0.00    +0.214 C 
ATOM     14  O   UNL     1      -1.141  -0.609  -3.070  0.00  0.00    -0.276 OA
ATOM     15  C   UNL     1      -0.617   1.507  -2.165  0.00  0.00    +0.109 C 
ATOM     16  H   UNL     1       0.550  -0.122  -0.391  0.00  0.00    +0.155 HD
BRANCH   4  17
ATOM     17  O   UNL     1      -0.194  -6.865  -4.412  0.00  0.00    -0.480 OA
ATOM     18  H   UNL     1      -0.133  -6.323  -5.367  0.00  0.00    +0.295 HD
ENDBRANCH   4  17
ENDBRANCH   1   2
BRANCH   1  19
ATOM     19  S   UNL     1       1.302  -7.404   0.929  0.00  0.00    -0.083 S 
BRANCH  19  30
ATOM     20  N   UNL     1       1.946  -8.708   3.198  0.00  0.00    -0.287 N 
ATOM     21  C   UNL     1       1.698  -9.352   4.362  0.00  0.00    +0.262 A 
ATOM     22  O   UNL     1       2.606  -9.771   5.056  0.00  0.00    -0.267 OA
ATOM     23  C   UNL     1       0.294  -9.531   4.755  0.00  0.00    +0.065 A 
ATOM     24  C   UNL     1      -0.062 -10.185   5.934  0.00  0.00    +0.017 A 
ATOM     25  C   UNL     1      -1.382 -10.327   6.257  0.00  0.00    +0.021 A 
ATOM     26  C   UNL     1      -2.376  -9.826   5.423  0.00  0.00    +0.043 A 
ATOM     27  C   UNL     1      -2.052  -9.175   4.252  0.00  0.00    +0.048 A 
ATOM     28  C   UNL     1      -0.708  -9.018   3.900  0.00  0.00    +0.080 A 
ATOM     29  N   UNL     1      -0.343  -8.386   2.760  0.00  0.00    -0.223 NA
ATOM     30  C   UNL     1       0.917  -8.239   2.432  0.00  0.00    +0.172 A 
ATOM     31 CL   UNL     1      -4.044 -10.022   5.861  0.00  0.00    -0.083 Cl
BRANCH  20  32
ATOM     32  C   UNL     1       3.329  -8.509   2.758  0.00  0.00    +0.127 C 
BRANCH  32  34
ATOM     33  C   UNL     1       5.299  -6.976   2.854  0.00  0.00    +0.005 C 
ATOM     34  C   UNL     1       3.855  -7.184   3.314  0.00  0.00    +0.018 C 
ENDBRANCH  32  34
ENDBRANCH  20  32
ENDBRANCH  19  30
ENDBRANCH   1  19
TORSDOF 6
