REMARK  Name = ZINC35033982
REMARK  8 active torsions:
REMARK  status: ('A' for Active; 'I' for Inactive)
REMARK    1  A    between atoms: C_1  and  C_2
REMARK    2  A    between atoms: C_2  and  C_3
REMARK    3  A    between atoms: C_3  and  C_5
REMARK    4  A    between atoms: C_3  and  N_18
REMARK    5  A    between atoms: N_15  and  C_16
REMARK    6  A    between atoms: C_16  and  C_17
REMARK    7  A    between atoms: C_22  and  C_25
REMARK    8  A    between atoms: N_28  and  C_29
REMARK                            x       y       z     vdW  Elec       q    Type
REMARK                         _______ _______ _______ _____ _____    ______ ____
ROOT
ATOM      1  N   UNL     1      -2.202  -0.606  -1.885  0.00  0.00    +0.388 N 
ATOM      2  C   UNL     1      -2.506   0.829  -1.815  0.00  0.00    -0.058 C 
ATOM      3  C   UNL     1      -2.863   1.343  -3.214  0.00  0.00    +0.091 C 
ATOM      4  N   UNL     1      -3.956   0.517  -3.749  0.00  0.00    -0.286 N 
ATOM      5  C   UNL     1      -3.803  -0.946  -3.708  0.00  0.00    +0.058 C 
ATOM      6  C   UNL     1      -3.402  -1.352  -2.286  0.00  0.00    -0.055 C 
ATOM      7  C   UNL     1      -5.129  -1.612  -4.082  0.00  0.00    +0.026 C 
ATOM      8  C   UNL     1      -5.065   1.084  -4.263  0.00  0.00    +0.307 C 
ATOM      9  O   UNL     1      -5.994   0.386  -4.623  0.00  0.00    -0.252 OA
ATOM     10  N   UNL     1      -5.146   2.424  -4.379  0.00  0.00    -0.268 N 
ATOM     11  H   UNL     1      -4.380   2.977  -4.157  0.00  0.00    +0.156 HD
ATOM     12  H   UNL     1      -1.470  -0.759  -2.562  0.00  0.00    -0.081 HD
ENDROOT
BRANCH  10  13
ATOM     13  C   UNL     1      -6.334   3.019  -4.820  0.00  0.00    +0.053 A 
ATOM     14  C   UNL     1      -7.523   2.302  -4.791  0.00  0.00    +0.026 A 
ATOM     15  C   UNL     1      -8.694   2.891  -5.226  0.00  0.00    +0.022 A 
ATOM     16  C   UNL     1      -8.684   4.194  -5.691  0.00  0.00    +0.042 A 
ATOM     17  C   UNL     1      -7.501   4.911  -5.722  0.00  0.00    +0.041 A 
ATOM     18  C   UNL     1      -6.327   4.329  -5.282  0.00  0.00    +0.064 A 
ATOM     19 CL   UNL     1      -4.845   5.232  -5.313  0.00  0.00    -0.082 Cl
ATOM     20 CL   UNL     1     -10.158   4.931  -6.238  0.00  0.00    -0.083 Cl
ENDBRANCH  10  13
BRANCH   1  21
ATOM     21  C   UNL     1      -1.754  -1.074  -0.567  0.00  0.00    -0.001 C 
BRANCH  21  22
ATOM     22  C   UNL     1      -1.497  -2.558  -0.622  0.00  0.00    +0.099 A 
ATOM     23  N   UNL     1      -1.026  -3.061  -1.722  0.00  0.00    -0.235 NA
ATOM     24  C   UNL     1      -0.770  -4.388  -1.845  0.00  0.00    +0.078 A 
ATOM     25  C   UNL     1      -0.263  -4.930  -3.027  0.00  0.00    +0.028 A 
ATOM     26  C   UNL     1      -0.018  -6.282  -3.108  0.00  0.00    +0.002 A 
ATOM     27  C   UNL     1      -0.269  -7.116  -2.026  0.00  0.00    +0.001 A 
ATOM     28  C   UNL     1      -0.770  -6.605  -0.849  0.00  0.00    +0.015 A 
ATOM     29  C   UNL     1      -1.025  -5.239  -0.747  0.00  0.00    +0.065 A 
ATOM     30  C   UNL     1      -1.558  -4.637   0.484  0.00  0.00    +0.262 A 
ATOM     31  O   UNL     1      -1.800  -5.315   1.466  0.00  0.00    -0.267 OA
ATOM     32  N   UNL     1      -1.766  -3.300   0.484  0.00  0.00    -0.298 N 
BRANCH  32  33
ATOM     33  C   UNL     1      -2.291  -2.647   1.686  0.00  0.00    +0.123 C 
ATOM     34  C   UNL     1      -3.820  -2.707   1.673  0.00  0.00    +0.027 C 
ENDBRANCH  32  33
ENDBRANCH  21  22
BRANCH  21  36
ATOM     35  C   UNL     1       0.603  -0.599  -1.246  0.00  0.00    +0.002 C 
ATOM     36  C   UNL     1      -0.464  -0.348  -0.179  0.00  0.00    -0.011 C 
ENDBRANCH  21  36
ENDBRANCH   1  21
TORSDOF 5
