REMARK  Name = ZINC03614615
REMARK  7 active torsions:
REMARK  status: ('A' for Active; 'I' for Inactive)
REMARK    1  A    between atoms: C_1  and  C_2
REMARK    2  A    between atoms: N_4  and  C_5
REMARK    3  A    between atoms: C_5  and  C_6
REMARK    4  A    between atoms: N_8  and  C_9
REMARK    5  A    between atoms: C_9  and  C_11
REMARK    6  A    between atoms: C_9  and  C_17
REMARK    7  A    between atoms: N_19  and  C_20
REMARK                            x       y       z     vdW  Elec       q    Type
REMARK                         _______ _______ _______ _____ _____    ______ ____
ROOT
ATOM      1  C   UNL     1       6.731  -1.854   3.535  0.00  0.00    +0.190 C 
ENDROOT
BRANCH   1   2
ATOM      2  C   UNL     1       7.827  -1.603   2.531  0.00  0.00    -0.018 A 
ATOM      3  C   UNL     1       8.248  -2.622   1.698  0.00  0.00    +0.006 A 
ATOM      4  C   UNL     1       9.249  -2.390   0.774  0.00  0.00    +0.000 A 
ATOM      5  C   UNL     1       9.837  -1.141   0.690  0.00  0.00    +0.000 A 
ATOM      6  C   UNL     1       9.419  -0.123   1.528  0.00  0.00    +0.000 A 
ATOM      7  C   UNL     1       8.414  -0.354   2.449  0.00  0.00    +0.006 A 
ENDBRANCH   1   2
BRANCH   1  10
ATOM      8  C   UNL     1       7.732  -3.348   5.180  0.00  0.00    +0.231 C 
ATOM      9  O   UNL     1       8.329  -2.396   5.637  0.00  0.00    -0.274 OA
ATOM     10  N   UNL     1       6.907  -3.183   4.127  0.00  0.00    -0.299 N 
ATOM     11  H   UNL     1       6.429  -3.944   3.761  0.00  0.00    +0.150 HD
BRANCH   8  12
ATOM     12  C   UNL     1       7.913  -4.714   5.789  0.00  0.00    +0.200 C 
BRANCH  12  16
ATOM     13  C   UNL     1      10.135  -5.649   8.763  0.00  0.00    +0.109 C 
ATOM     14  C   UNL     1       9.169  -5.736   7.610  0.00  0.00    +0.210 C 
ATOM     15  O   UNL     1       8.675  -6.804   7.312  0.00  0.00    -0.276 OA
ATOM     16  N   UNL     1       8.853  -4.629   6.910  0.00  0.00    -0.307 N 
ATOM     17  H   UNL     1       9.247  -3.776   7.148  0.00  0.00    +0.149 HD
ENDBRANCH  12  16
ENDBRANCH   8  12
ENDBRANCH   1  10
BRANCH   1  18
ATOM     18  C   UNL     1       5.393  -1.785   2.846  0.00  0.00    +0.242 C 
ATOM     19  O   UNL     1       4.658  -2.750   2.849  0.00  0.00    -0.273 OA
ATOM     20  N   UNL     1       5.012  -0.650   2.226  0.00  0.00    -0.284 N 
ATOM     21  H   UNL     1       5.629   0.095   2.158  0.00  0.00    +0.155 HD
BRANCH  20  22
ATOM     22  C   UNL     1       3.725  -0.547   1.682  0.00  0.00    +0.037 A 
ATOM     23  C   UNL     1       3.517   0.200   0.530  0.00  0.00    +0.027 A 
ATOM     24  C   UNL     1       2.248   0.303  -0.008  0.00  0.00    +0.051 A 
ATOM     25  C   UNL     1       1.181  -0.339   0.599  0.00  0.00    +0.166 A 
ATOM     26  C   UNL     1       1.387  -1.089   1.755  0.00  0.00    +0.168 A 
ATOM     27  C   UNL     1       2.659  -1.192   2.293  0.00  0.00    +0.072 A 
ATOM     28  O   UNL     1       0.192  -1.614   2.154  0.00  0.00    -0.453 OA
ATOM     29  C   UNL     1      -0.673  -1.515   1.007  0.00  0.00    +0.466 C 
ATOM     30  O   UNL     1      -0.144  -0.394   0.275  0.00  0.00    -0.453 OA
ENDBRANCH  20  22
ENDBRANCH   1  18
TORSDOF 6
