REMARK  Name = ZINC12333403
REMARK  10 active torsions:
REMARK  status: ('A' for Active; 'I' for Inactive)
REMARK    1  A    between atoms: C_1  and  O_2
REMARK    2  A    between atoms: O_2  and  C_3
REMARK    3  A    between atoms: C_3  and  C_4
REMARK    4  A    between atoms: N_6  and  C_7
REMARK    5  A    between atoms: C_16  and  O_18
REMARK    6  A    between atoms: O_18  and  C_19
REMARK    7  A    between atoms: C_19  and  C_20
REMARK    8  A    between atoms: C_26  and  C_27
REMARK    9  A    between atoms: C_26  and  N_70
REMARK   10  A    between atoms: C_32  and  C_33
REMARK                            x       y       z     vdW  Elec       q    Type
REMARK                         _______ _______ _______ _____ _____    ______ ____
ROOT
ATOM      1  C   UNL     1      -4.023  -0.059   4.456  0.00  0.00    +0.133 C 
ATOM      2  C   UNL     1      -3.941   1.197   5.298  0.00  0.00    -0.021 A 
ATOM      3  C   UNL     1      -4.670   1.580   6.411  0.00  0.00    +0.006 A 
ATOM      4  C   UNL     1      -4.419   2.792   7.024  0.00  0.00    +0.000 A 
ATOM      5  C   UNL     1      -3.435   3.626   6.526  0.00  0.00    +0.000 A 
ATOM      6  C   UNL     1      -2.706   3.245   5.417  0.00  0.00    +0.004 A 
ATOM      7  C   UNL     1      -2.955   2.030   4.800  0.00  0.00    -0.034 A 
ATOM      8  C   UNL     1      -2.310   1.388   3.595  0.00  0.00    +0.021 C 
ATOM      9  C   UNL     1      -2.700  -0.100   3.661  0.00  0.00    +0.154 C 
ATOM     10  C   UNL     1      -0.793   1.534   3.664  0.00  0.00    -0.005 C 
ATOM     11  C   UNL     1      -0.165   0.905   2.417  0.00  0.00    -0.077 C 
ATOM     12  C   UNL     1      -2.152   1.366   1.106  0.00  0.00    -0.077 C 
ATOM     13  C   UNL     1      -2.845   2.012   2.309  0.00  0.00    -0.005 C 
ATOM     14  N   UNL     1      -0.694   1.589   1.218  0.00  0.00    +0.382 N 
ATOM     15  H   UNL     1      -0.518   2.597   1.305  0.00  0.00    -0.081 HD
ENDROOT
BRANCH   1  18
ATOM     16  C   UNL     1      -6.373  -0.432   3.933  0.00  0.00    +0.239 C 
ATOM     17  O   UNL     1      -6.516  -0.898   5.044  0.00  0.00    -0.273 OA
ATOM     18  N   UNL     1      -5.164   0.016   3.541  0.00  0.00    -0.304 N 
ATOM     19  H   UNL     1      -5.050   0.388   2.652  0.00  0.00    +0.149 HD
BRANCH  16  20
ATOM     20  C   UNL     1      -7.547  -0.355   2.991  0.00  0.00    +0.255 C 
BRANCH  20  22
ATOM     21  C   UNL     1      -9.884  -0.862   2.821  0.00  0.00    +0.194 C 
ATOM     22  O   UNL     1      -8.708  -0.888   3.632  0.00  0.00    -0.374 OA
ENDBRANCH  20  22
ENDBRANCH  16  20
ENDBRANCH   1  18
BRANCH   9  23
ATOM     23  O   UNL     1      -1.709  -0.855   4.361  0.00  0.00    -0.370 OA
BRANCH  23  24
ATOM     24  C   UNL     1      -1.595  -2.211   3.925  0.00  0.00    +0.187 C 
BRANCH  24  25
ATOM     25  C   UNL     1      -0.527  -2.908   4.727  0.00  0.00    -0.007 C 
ATOM     26  C   UNL     1      -0.746  -4.108   5.206  0.00  0.00    +0.006 C 
ENDBRANCH  24  25
ENDBRANCH  23  24
ENDBRANCH   9  23
BRANCH  14  27
ATOM     27  C   UNL     1      -0.013   1.086   0.008  0.00  0.00    -0.042 C 
BRANCH  27  28
ATOM     28  C   UNL     1      -0.742   1.585  -1.213  0.00  0.00    -0.053 A 
ATOM     29  C   UNL     1      -1.603   0.750  -1.893  0.00  0.00    +0.002 A 
ATOM     30  C   UNL     1      -2.273   1.206  -3.014  0.00  0.00    +0.000 A 
ATOM     31  C   UNL     1      -2.084   2.502  -3.461  0.00  0.00    +0.001 A 
ATOM     32  C   UNL     1      -1.226   3.348  -2.790  0.00  0.00    +0.012 A 
ATOM     33  C   UNL     1      -0.551   2.895  -1.654  0.00  0.00    +0.019 A 
BRANCH  33  34
ATOM     34  C   UNL     1       0.366   3.798  -0.926  0.00  0.00    +0.135 A 
ATOM     35  C   UNL     1       1.360   4.541  -1.480  0.00  0.00    +0.050 A 
ATOM     36  C   UNL     1       1.973   5.248  -0.427  0.00  0.00    +0.042 A 
ATOM     37  C   UNL     1       1.335   4.899   0.707  0.00  0.00    +0.196 A 
ATOM     38  O   UNL     1       0.365   4.022   0.402  0.00  0.00    -0.463 OA
ENDBRANCH  33  34
ENDBRANCH  27  28
ENDBRANCH  14  27
TORSDOF 9
