REMARK  Name = ZINC46768456
REMARK  7 active torsions:
REMARK  status: ('A' for Active; 'I' for Inactive)
REMARK    1  A    between atoms: C_6  and  C_7
REMARK    2  A    between atoms: C_9  and  C_12
REMARK    3  A    between atoms: C_12  and  C_13
REMARK    4  A    between atoms: C_13  and  C_14
REMARK    5  A    between atoms: C_14  and  C_15
REMARK    6  A    between atoms: N_17  and  C_18
REMARK    7  A    between atoms: C_18  and  C_19
REMARK                            x       y       z     vdW  Elec       q    Type
REMARK                         _______ _______ _______ _____ _____    ______ ____
ROOT
ATOM      1  C   UNL     1      -3.875  -5.772   1.465  0.00  0.00    +0.096 C 
ENDROOT
BRANCH   1   2
ATOM      2  C   UNL     1      -4.040  -6.245   2.886  0.00  0.00    +0.213 C 
ATOM      3  O   UNL     1      -3.757  -5.508   3.807  0.00  0.00    -0.276 OA
ATOM      4  N   UNL     1      -4.504  -7.486   3.134  0.00  0.00    -0.315 N 
ATOM      5  H   UNL     1      -4.730  -8.075   2.397  0.00  0.00    +0.149 HD
BRANCH   4   6
ATOM      6  C   UNL     1      -4.665  -7.945   4.515  0.00  0.00    +0.111 C 
BRANCH   6   7
ATOM      7  C   UNL     1      -5.201  -9.378   4.517  0.00  0.00    -0.013 C 
ATOM      8  C   UNL     1      -6.556  -9.416   3.806  0.00  0.00    +0.012 C 
ATOM      9  C   UNL     1      -7.092 -10.849   3.808  0.00  0.00    -0.010 C 
ATOM     10  C   UNL     1      -7.261 -11.329   5.250  0.00  0.00    +0.007 C 
ATOM     11  C   UNL     1      -5.906 -11.291   5.962  0.00  0.00    -0.010 C 
ATOM     12  C   UNL     1      -5.369  -9.858   5.960  0.00  0.00    +0.012 C 
ATOM     13  C   UNL     1      -4.921 -12.206   5.231  0.00  0.00    +0.007 C 
ATOM     14  C   UNL     1      -4.753 -11.726   3.788  0.00  0.00    -0.010 C 
ATOM     15  C   UNL     1      -6.107 -11.764   3.077  0.00  0.00    +0.007 C 
ATOM     16  C   UNL     1      -4.216 -10.293   3.787  0.00  0.00    +0.012 C 
ENDBRANCH   6   7
ENDBRANCH   4   6
ENDBRANCH   1   2
BRANCH   1  17
ATOM     17  C   UNL     1      -3.338  -4.339   1.463  0.00  0.00    +0.019 C 
BRANCH  17  18
ATOM     18  C   UNL     1      -3.170  -3.859   0.020  0.00  0.00    +0.099 C 
BRANCH  18  21
ATOM     19  C   UNL     1      -1.272  -0.765   0.011  0.00  0.00    +0.202 A 
ATOM     20  N   UNL     1      -1.384  -2.106   0.010  0.00  0.00    -0.191 NA
ATOM     21  C   UNL     1      -2.641  -2.448   0.019  0.00  0.00    +0.228 A 
ATOM     22  O   UNL     1      -3.384  -1.333   0.026  0.00  0.00    -0.338 OA
ATOM     23  N   UNL     1      -2.474  -0.244   0.026  0.00  0.00    -0.056 NA
BRANCH  19  29
ATOM     24  C   UNL     1      -0.017   1.389   0.010  0.00  0.00    +0.014 A 
ATOM     25  C   UNL     1       1.170   2.093   0.002  0.00  0.00    +0.039 A 
ATOM     26  C   UNL     1       2.379   1.417  -0.013  0.00  0.00    +0.123 A 
ATOM     27  C   UNL     1       2.402   0.031  -0.021  0.00  0.00    +0.039 A 
ATOM     28  C   UNL     1       1.220  -0.680  -0.013  0.00  0.00    +0.014 A 
ATOM     29  C   UNL     1       0.002  -0.004   0.002  0.00  0.00    +0.023 A 
ATOM     30  F   UNL     1       3.538   2.110  -0.022  0.00  0.00    -0.205 F 
ENDBRANCH  19  29
ENDBRANCH  18  21
ENDBRANCH  17  18
ENDBRANCH   1  17
TORSDOF 7
