REMARK  Name = ZINC09118537
REMARK  8 active torsions:
REMARK  status: ('A' for Active; 'I' for Inactive)
REMARK    1  A    between atoms: C_1  and  C_2
REMARK    2  A    between atoms: C_2  and  C_4
REMARK    3  A    between atoms: C_2  and  N_14
REMARK    4  A    between atoms: C_15  and  C_17
REMARK    5  A    between atoms: N_20  and  C_23
REMARK    6  A    between atoms: C_26  and  S_32
REMARK    7  A    between atoms: C_28  and  N_29
REMARK    8  A    between atoms: S_32  and  N_35
REMARK                            x       y       z     vdW  Elec       q    Type
REMARK                         _______ _______ _______ _____ _____    ______ ____
ROOT
ATOM      1  C   UNL     1       3.106   9.648  -2.288  0.00  0.00    +0.078 C 
ATOM      2  C   UNL     1       4.396   9.840  -1.486  0.00  0.00    +0.031 C 
ATOM      3  C   UNL     1       5.478  10.417  -2.401  0.00  0.00    +0.106 C 
ATOM      4  N   UNL     1       5.025  11.702  -2.949  0.00  0.00    -0.328 N 
ATOM      5  C   UNL     1       3.813  11.535  -3.762  0.00  0.00    +0.106 C 
ATOM      6  C   UNL     1       2.681  10.992  -2.887  0.00  0.00    +0.031 C 
ENDROOT
BRANCH   4   7
ATOM      7  C   UNL     1       6.040  12.319  -3.683  0.00  0.00    +0.060 A 
ATOM      8  C   UNL     1       6.587  11.680  -4.789  0.00  0.00    +0.027 A 
ATOM      9  C   UNL     1       7.590  12.293  -5.513  0.00  0.00    +0.030 A 
ATOM     10  C   UNL     1       8.051  13.542  -5.139  0.00  0.00    +0.107 A 
ATOM     11  C   UNL     1       7.509  14.181  -4.039  0.00  0.00    +0.063 A 
ATOM     12  C   UNL     1       6.501  13.576  -3.314  0.00  0.00    +0.149 A 
BRANCH  12  13
ATOM     13  N   UNL     1       5.917  14.264  -2.140  0.00  0.00    +0.058 N 
ATOM     14  O   UNL     1       6.255  15.403  -1.871  0.00  0.00    -0.126 OA
ATOM     15  O   UNL     1       5.099  13.691  -1.443  0.00  0.00    -0.126 OA
ENDBRANCH  12  13
BRANCH  10  16
ATOM     16  S   UNL     1       9.331  14.320  -6.065  0.00  0.00    +0.056 S 
ATOM     17  O   UNL     1       9.962  15.244  -5.189  0.00  0.00    -0.153 OA
ATOM     18  O   UNL     1      10.047  13.282  -6.721  0.00  0.00    -0.153 OA
BRANCH  16  19
ATOM     19  N   UNL     1       8.602  15.215  -7.253  0.00  0.00    -0.204 NA
ATOM     20  H   UNL     1       9.027  16.023  -7.581  0.00  0.00    +0.144 HD
ATOM     21  H   UNL     1       7.750  14.932  -7.620  0.00  0.00    +0.144 HD
ENDBRANCH  16  19
ENDBRANCH  10  16
ENDBRANCH   4   7
BRANCH   1  23
ATOM     22  N   UNL     1       2.174   7.962  -0.736  0.00  0.00    -0.309 N 
ATOM     23  C   UNL     1       2.018   9.137  -1.378  0.00  0.00    +0.217 C 
ATOM     24  O   UNL     1       1.004   9.783  -1.223  0.00  0.00    -0.275 OA
ATOM     25  H   UNL     1       2.986   7.445  -0.860  0.00  0.00    +0.149 HD
BRANCH  22  27
ATOM     26  C   UNL     1       1.286   8.079   1.540  0.00  0.00    +0.033 C 
ATOM     27  C   UNL     1       1.117   7.465   0.148  0.00  0.00    +0.100 C 
BRANCH  27  28
ATOM     28  C   UNL     1       1.210   5.964   0.248  0.00  0.00    -0.027 A 
ATOM     29  C   UNL     1       2.462   5.357   0.331  0.00  0.00    +0.006 A 
ATOM     30  C   UNL     1       2.581   4.005   0.421  0.00  0.00    +0.009 A 
ATOM     31  C   UNL     1       1.425   3.204   0.432  0.00  0.00    -0.018 A 
ATOM     32  C   UNL     1       1.508   1.804   0.524  0.00  0.00    +0.008 A 
ATOM     33  C   UNL     1       0.368   1.062   0.530  0.00  0.00    +0.001 A 
ATOM     34  C   UNL     1      -0.884   1.668   0.442  0.00  0.00    +0.001 A 
ATOM     35  C   UNL     1      -1.003   3.021   0.357  0.00  0.00    +0.008 A 
ATOM     36  C   UNL     1       0.152   3.821   0.347  0.00  0.00    -0.018 A 
ATOM     37  C   UNL     1       0.070   5.221   0.255  0.00  0.00    +0.014 A 
ENDBRANCH  27  28
ENDBRANCH  22  27
ENDBRANCH   1  23
TORSDOF 7
