REMARK  Name = ZINC36796438
REMARK  8 active torsions:
REMARK  status: ('A' for Active; 'I' for Inactive)
REMARK    1  A    between atoms: C_1  and  C_2
REMARK    2  A    between atoms: C_2  and  C_4
REMARK    3  A    between atoms: C_2  and  S_16
REMARK    4  A    between atoms: N_9  and  C_10
REMARK    5  A    between atoms: S_16  and  C_17
REMARK    6  A    between atoms: C_20  and  C_29
REMARK    7  A    between atoms: N_21  and  C_22
REMARK    8  A    between atoms: C_22  and  C_23
REMARK                            x       y       z     vdW  Elec       q    Type
REMARK                         _______ _______ _______ _____ _____    ______ ____
ROOT
ATOM      1  C   UNL     1      -2.365  -0.288   1.640  0.00  0.00    +0.193 A 
ATOM      2  N   UNL     1      -1.649   0.414   2.486  0.00  0.00    -0.122 NA
ATOM      3  N   UNL     1      -2.393   0.855   3.436  0.00  0.00    -0.128 NA
ATOM      4  C   UNL     1      -3.633   0.460   3.255  0.00  0.00    +0.167 A 
ATOM      5  N   UNL     1      -3.655  -0.280   2.095  0.00  0.00    -0.300 N 
ENDROOT
BRANCH   4   6
ATOM      6  C   UNL     1      -4.786   0.759   4.128  0.00  0.00    +0.044 A 
ATOM      7  C   UNL     1      -6.012   1.189   3.734  0.00  0.00    +0.095 A 
ATOM      8  N   UNL     1      -6.814   1.355   4.825  0.00  0.00    -0.360 N 
ATOM      9  H   UNL     1      -7.736   1.656   4.796  0.00  0.00    +0.165 HD
ATOM     10  C   UNL     1      -6.126   1.035   5.976  0.00  0.00    +0.047 A 
ATOM     11  C   UNL     1      -4.831   0.642   5.596  0.00  0.00    +0.010 A 
ATOM     12  C   UNL     1      -3.908   0.253   6.564  0.00  0.00    +0.011 A 
ATOM     13  C   UNL     1      -4.272   0.253   7.892  0.00  0.00    +0.001 A 
ATOM     14  C   UNL     1      -5.551   0.637   8.269  0.00  0.00    +0.002 A 
ATOM     15  C   UNL     1      -6.472   1.032   7.323  0.00  0.00    +0.026 A 
ENDBRANCH   4   6
BRANCH   1  16
ATOM     16  S   UNL     1      -1.777  -1.088   0.184  0.00  0.00    -0.074 S 
BRANCH  16  18
ATOM     17  C   UNL     1       0.199   0.794  -0.015  0.00  0.00    +0.029 C 
ATOM     18  C   UNL     1      -0.002  -0.712   0.164  0.00  0.00    +0.137 C 
BRANCH  18  19
ATOM     19  C   UNL     1       0.654  -1.446  -0.977  0.00  0.00    +0.233 C 
ATOM     20  O   UNL     1       0.001  -1.767  -1.947  0.00  0.00    -0.274 OA
ATOM     21  N   UNL     1       1.967  -1.745  -0.920  0.00  0.00    -0.239 N 
ATOM     22  C   UNL     1       2.554  -2.401  -1.941  0.00  0.00    +0.306 C 
ATOM     23  O   UNL     1       1.899  -2.723  -2.913  0.00  0.00    -0.252 OA
ATOM     24  N   UNL     1       3.866  -2.700  -1.884  0.00  0.00    -0.296 N 
ATOM     25  H   UNL     1       2.490  -1.488  -0.145  0.00  0.00    +0.159 HD
ATOM     26  H   UNL     1       4.389  -2.443  -1.109  0.00  0.00    +0.151 HD
BRANCH  24  27
ATOM     27  C   UNL     1       4.504  -3.413  -2.994  0.00  0.00    +0.074 C 
ATOM     28  C   UNL     1       4.303  -4.919  -2.815  0.00  0.00    +0.022 C 
ATOM     29  C   UNL     1       4.969  -5.664  -3.974  0.00  0.00    +0.002 C 
ATOM     30  C   UNL     1       6.466  -5.347  -3.990  0.00  0.00    +0.000 C 
ATOM     31  C   UNL     1       6.667  -3.841  -4.170  0.00  0.00    +0.002 C 
ATOM     32  C   UNL     1       6.001  -3.096  -3.011  0.00  0.00    +0.022 C 
ENDBRANCH  24  27
ENDBRANCH  18  19
ENDBRANCH  16  18
ENDBRANCH   1  16
BRANCH   5  33
ATOM     33  C   UNL     1      -4.816  -0.926   1.479  0.00  0.00    +0.157 C 
BRANCH  33  34
ATOM     34  C   UNL     1      -4.884  -2.387   1.927  0.00  0.00    +0.138 C 
ATOM     35  C   UNL     1      -6.033  -3.108   1.189  0.00  0.00    +0.035 C 
ATOM     36  C   UNL     1      -6.622  -4.016   2.303  0.00  0.00    +0.031 C 
ATOM     37  C   UNL     1      -6.414  -3.122   3.552  0.00  0.00    +0.160 C 
ATOM     38  O   UNL     1      -5.160  -2.453   3.331  0.00  0.00    -0.375 OA
ENDBRANCH  33  34
ENDBRANCH   5  33
TORSDOF 7
