REMARK  Name = ZINC39272518
REMARK  5 active torsions:
REMARK  status: ('A' for Active; 'I' for Inactive)
REMARK    1  A    between atoms: C_6  and  C_11
REMARK    2  A    between atoms: C_11  and  C_12
REMARK    3  A    between atoms: C_12  and  N_13
REMARK    4  A    between atoms: C_14  and  C_16
REMARK    5  A    between atoms: N_21  and  C_23
REMARK                            x       y       z     vdW  Elec       q    Type
REMARK                         _______ _______ _______ _____ _____    ______ ____
ROOT
ATOM      1  N   UNL     1      -6.887  -0.012  -1.289  0.00  0.00    -0.315 N 
ATOM      2  C   UNL     1      -7.537   0.181  -2.454  0.00  0.00    +0.217 C 
ATOM      3  O   UNL     1      -6.910   0.281  -3.488  0.00  0.00    -0.275 OA
ATOM      4  H   UNL     1      -7.388  -0.092  -0.463  0.00  0.00    +0.149 HD
ENDROOT
BRANCH   2   5
ATOM      5  C   UNL     1      -9.041   0.271  -2.473  0.00  0.00    +0.089 C 
ATOM      6  C   UNL     1      -9.637  -1.031  -1.930  0.00  0.00    +0.015 C 
ATOM      7  C   UNL     1     -11.165  -0.954  -2.008  0.00  0.00    +0.016 C 
ATOM      8  C   UNL     1     -11.585  -0.703  -3.458  0.00  0.00    +0.086 C 
ATOM      9  N   UNL     1     -10.989   0.553  -3.931  0.00  0.00    -0.278 NA
ATOM     10  C   UNL     1      -9.522   0.487  -3.909  0.00  0.00    +0.099 C 
BRANCH   9  11
ATOM     11  C   UNL     1     -11.481   0.897  -5.271  0.00  0.00    +0.210 C 
ATOM     12  C   UNL     1     -12.977   1.219  -5.198  0.00  0.00    +0.211 C 
ATOM     13  C   UNL     1     -13.483   1.130  -6.638  0.00  0.00    +0.151 C 
ATOM     14  N   UNL     1     -13.993   2.280  -6.909  0.00  0.00    -0.221 NA
ATOM     15  C   UNL     1     -13.811   3.152  -5.904  0.00  0.00    +0.218 C 
ATOM     16  N   UNL     1     -13.210   2.629  -4.861  0.00  0.00    -0.258 NA
ATOM     17  N   UNL     1     -13.260  -0.000  -7.372  0.00  0.00    -0.168 NA
ATOM     18  C   UNL     1     -12.047  -0.622  -7.106  0.00  0.00    +0.211 C 
ATOM     19  N   UNL     1     -11.264  -0.231  -6.173  0.00  0.00    -0.236 NA
ATOM     20 CL   UNL     1     -11.576  -1.983  -8.076  0.00  0.00    -0.044 Cl
ENDBRANCH   9  11
ENDBRANCH   2   5
BRANCH   1  21
ATOM     21  C   UNL     1      -5.425  -0.099  -1.271  0.00  0.00    +0.109 C 
BRANCH  21  22
ATOM     22  C   UNL     1      -4.944  -0.318   0.165  0.00  0.00    +0.056 C 
BRANCH  22  28
ATOM     23  C   UNL     1      -0.262   2.342   0.348  0.00  0.00    +0.040 A 
ATOM     24  C   UNL     1      -0.100   0.976   0.291  0.00  0.00    +0.029 A 
ATOM     25  C   UNL     1      -1.215   0.146   0.239  0.00  0.00    +0.047 A 
ATOM     26  N   UNL     1      -1.375  -1.221   0.177  0.00  0.00    -0.360 N 
ATOM     27  C   UNL     1      -2.707  -1.532   0.144  0.00  0.00    +0.087 A 
ATOM     28  C   UNL     1      -3.440  -0.408   0.183  0.00  0.00    -0.021 A 
ATOM     29  C   UNL     1      -2.501   0.715   0.245  0.00  0.00    +0.006 A 
ATOM     30  C   UNL     1      -2.650   2.102   0.304  0.00  0.00    +0.048 A 
ATOM     31  C   UNL     1      -1.533   2.906   0.360  0.00  0.00    +0.124 A 
ATOM     32  F   UNL     1      -1.672   4.248   0.417  0.00  0.00    -0.205 F 
ATOM     33  H   UNL     1      -0.652  -1.867   0.159  0.00  0.00    +0.165 HD
ENDBRANCH  22  28
ENDBRANCH  21  22
ENDBRANCH   1  21
TORSDOF 5
