REMARK  Name = ZINC34792040
REMARK  7 active torsions:
REMARK  status: ('A' for Active; 'I' for Inactive)
REMARK    1  A    between atoms: C_1  and  C_2
REMARK    2  A    between atoms: C_2  and  C_3
REMARK    3  A    between atoms: C_2  and  N_4
REMARK    4  A    between atoms: C_5  and  C_7
REMARK    5  A    between atoms: C_7  and  N_8
REMARK    6  A    between atoms: C_14  and  C_21
REMARK    7  A    between atoms: N_19  and  C_20
REMARK                            x       y       z     vdW  Elec       q    Type
REMARK                         _______ _______ _______ _____ _____    ______ ____
ROOT
ATOM      1  N   UNL     1      -3.087  -3.596  -1.065  0.00  0.00    -0.283 N 
ATOM      2  C   UNL     1      -3.283  -3.919  -2.486  0.00  0.00    +0.160 C 
ATOM      3  C   UNL     1      -3.228  -5.428  -2.553  0.00  0.00    +0.042 C 
ATOM      4  C   UNL     1      -3.024  -5.857  -1.291  0.00  0.00    +0.058 C 
ATOM      5  C   UNL     1      -2.936  -4.761  -0.409  0.00  0.00    +0.247 C 
ATOM      6  O   UNL     1      -2.749  -4.856   0.790  0.00  0.00    -0.270 OA
ATOM      7  C   UNL     1      -2.927  -7.352  -1.062  0.00  0.00    +0.142 C 
ATOM      8  N   UNL     1      -3.064  -8.218  -2.245  0.00  0.00    -0.288 N 
ATOM      9  C   UNL     1      -3.266  -7.639  -3.445  0.00  0.00    +0.307 C 
ATOM     10  O   UNL     1      -3.381  -8.346  -4.427  0.00  0.00    -0.252 OA
ATOM     11  N   UNL     1      -3.344  -6.310  -3.590  0.00  0.00    -0.260 N 
ATOM     12  C   UNL     1      -3.566  -5.772  -4.935  0.00  0.00    +0.139 C 
ATOM     13  H   UNL     1      -3.011  -9.183  -2.162  0.00  0.00    +0.151 HD
ENDROOT
BRANCH   7  14
ATOM     14  C   UNL     1      -3.997  -7.741  -0.074  0.00  0.00    -0.022 A 
ATOM     15  C   UNL     1      -5.301  -7.912  -0.501  0.00  0.00    +0.008 A 
ATOM     16  C   UNL     1      -6.283  -8.270   0.404  0.00  0.00    +0.038 A 
ATOM     17  C   UNL     1      -5.960  -8.456   1.737  0.00  0.00    +0.123 A 
ATOM     18  C   UNL     1      -4.654  -8.285   2.163  0.00  0.00    +0.038 A 
ATOM     19  C   UNL     1      -3.673  -7.933   1.256  0.00  0.00    +0.008 A 
ATOM     20  F   UNL     1      -6.920  -8.805   2.622  0.00  0.00    -0.205 F 
ENDBRANCH   7  14
BRANCH   1  21
ATOM     21  C   UNL     1      -3.057  -2.256  -0.474  0.00  0.00    +0.204 C 
BRANCH  21  23
ATOM     22  N   UNL     1      -1.372  -0.511   0.012  0.00  0.00    -0.312 N 
ATOM     23  C   UNL     1      -1.643  -1.734  -0.485  0.00  0.00    +0.231 C 
ATOM     24  O   UNL     1      -0.749  -2.415  -0.941  0.00  0.00    -0.274 OA
ATOM     25  H   UNL     1      -2.087   0.033   0.377  0.00  0.00    +0.149 HD
BRANCH  22  27
ATOM     26  C   UNL     1      -0.019   1.526   0.010  0.00  0.00    +0.027 C 
ATOM     27  C   UNL     1       0.002  -0.004   0.002  0.00  0.00    +0.067 C 
ATOM     28  C   UNL     1       0.742  -0.511   1.242  0.00  0.00    +0.027 C 
ENDBRANCH  22  27
ENDBRANCH  21  23
ENDBRANCH   1  21
TORSDOF 4
