REMARK  Name = ZINC39561069
REMARK  8 active torsions:
REMARK  status: ('A' for Active; 'I' for Inactive)
REMARK    1  A    between atoms: C_1  and  C_2
REMARK    2  A    between atoms: C_2  and  C_4
REMARK    3  A    between atoms: C_2  and  O_17
REMARK    4  A    between atoms: N_6  and  C_7
REMARK    5  A    between atoms: C_9  and  N_14
REMARK    6  A    between atoms: O_17  and  C_18
REMARK    7  A    between atoms: C_18  and  C_20
REMARK    8  A    between atoms: C_22  and  N_28
REMARK                            x       y       z     vdW  Elec       q    Type
REMARK                         _______ _______ _______ _____ _____    ______ ____
ROOT
ATOM      1  C   UNL     1      -0.002   1.510   0.017  0.00  0.00    +0.062 C 
ATOM      2  C   UNL     1       0.007  -0.020   0.009  0.00  0.00    +0.259 C 
ENDROOT
BRANCH   2   3
ATOM      3  C   UNL     1      -1.410  -0.531   0.015  0.00  0.00    +0.258 C 
ATOM      4  O   UNL     1      -1.836  -1.150  -0.937  0.00  0.00    -0.271 OA
ATOM      5  N   UNL     1      -2.204  -0.302   1.079  0.00  0.00    -0.281 N 
ATOM      6  H   UNL     1      -1.845   0.135   1.867  0.00  0.00    +0.155 HD
BRANCH   5   7
ATOM      7  C   UNL     1      -3.548  -0.694   1.048  0.00  0.00    +0.054 A 
ATOM      8  C   UNL     1      -3.919  -1.852   0.377  0.00  0.00    +0.057 A 
ATOM      9  C   UNL     1      -5.245  -2.237   0.348  0.00  0.00    +0.128 A 
ATOM     10  C   UNL     1      -6.204  -1.470   0.985  0.00  0.00    +0.034 A 
ATOM     11  C   UNL     1      -5.838  -0.316   1.654  0.00  0.00    +0.024 A 
ATOM     12  C   UNL     1      -4.512   0.072   1.692  0.00  0.00    +0.062 A 
ATOM     13 CL   UNL     1      -4.053   1.516   2.537  0.00  0.00    -0.082 Cl
BRANCH   9  14
ATOM     14  N   UNL     1      -5.641  -3.471  -0.367  0.00  0.00    +0.056 N 
ATOM     15  O   UNL     1      -4.804  -4.141  -0.925  0.00  0.00    -0.126 OA
ATOM     16  O   UNL     1      -6.802  -3.808  -0.393  0.00  0.00    -0.126 OA
ENDBRANCH   9  14
ENDBRANCH   5   7
ENDBRANCH   2   3
BRANCH   2  17
ATOM     17  O   UNL     1       0.677  -0.486  -1.165  0.00  0.00    -0.448 OA
BRANCH  17  18
ATOM     18  C   UNL     1       2.006  -0.682  -1.074  0.00  0.00    +0.360 C 
ATOM     19  O   UNL     1       2.582  -0.463  -0.027  0.00  0.00    -0.243 OA
BRANCH  18  20
ATOM     20  C   UNL     1       2.765  -1.163  -2.249  0.00  0.00    +0.169 A 
ATOM     21  C   UNL     1       4.138  -1.369  -2.146  0.00  0.00    +0.095 A 
ATOM     22  C   UNL     1       4.839  -1.823  -3.263  0.00  0.00    +0.067 A 
ATOM     23  C   UNL     1       4.130  -2.053  -4.441  0.00  0.00    +0.100 A 
ATOM     24  C   UNL     1       2.763  -1.825  -4.464  0.00  0.00    +0.150 A 
ATOM     25  N   UNL     1       2.129  -1.400  -3.392  0.00  0.00    -0.226 NA
ATOM     26 CL   UNL     1       1.874  -2.108  -5.928  0.00  0.00    -0.060 Cl
ATOM     27 CL   UNL     1       4.950  -2.618  -5.863  0.00  0.00    -0.078 Cl
ATOM     28 CL   UNL     1       4.965  -1.064  -0.650  0.00  0.00    -0.079 Cl
BRANCH  22  29
ATOM     29  N   UNL     1       6.214  -2.042  -3.203  0.00  0.00    -0.356 N 
ATOM     30  H   UNL     1       6.696  -1.878  -2.377  0.00  0.00    +0.142 HD
ATOM     31  H   UNL     1       6.690  -2.358  -3.987  0.00  0.00    +0.142 HD
ENDBRANCH  22  29
ENDBRANCH  18  20
ENDBRANCH  17  18
ENDBRANCH   2  17
TORSDOF 7
