REMARK  Name = ZINC38755373
REMARK  6 active torsions:
REMARK  status: ('A' for Active; 'I' for Inactive)
REMARK    1  A    between atoms: C_1  and  C_2
REMARK    2  A    between atoms: C_8  and  C_12
REMARK    3  A    between atoms: C_14  and  C_17
REMARK    4  A    between atoms: C_17  and  N_18
REMARK    5  A    between atoms: C_19  and  C_21
REMARK    6  A    between atoms: C_23  and  C_27
REMARK                            x       y       z     vdW  Elec       q    Type
REMARK                         _______ _______ _______ _____ _____    ______ ____
ROOT
ATOM      1  N   UNL     1       0.428  -9.167   4.530  0.00  0.00    -0.304 N 
ATOM      2  C   UNL     1       0.232 -10.454   4.880  0.00  0.00    +0.262 C 
ATOM      3  O   UNL     1      -0.423 -10.721   5.869  0.00  0.00    -0.269 OA
ATOM      4  H   UNL     1       0.951  -8.954   3.741  0.00  0.00    +0.149 HD
ENDROOT
BRANCH   2   5
ATOM      5  C   UNL     1       0.809 -11.535   4.065  0.00  0.00    +0.121 A 
ATOM      6  C   UNL     1       0.692 -12.893   4.290  0.00  0.00    +0.062 A 
ATOM      7  C   UNL     1       1.411 -13.505   3.247  0.00  0.00    +0.093 A 
ATOM      8  N   UNL     1       1.900 -12.549   2.486  0.00  0.00    -0.173 NA
ATOM      9  N   UNL     1       1.562 -11.393   2.933  0.00  0.00    -0.272 N 
ATOM     10  H   UNL     1       1.808 -10.546   2.530  0.00  0.00    +0.189 HD
BRANCH   7  11
ATOM     11  C   UNL     1       1.587 -14.965   3.042  0.00  0.00    +0.002 A 
ATOM     12  C   UNL     1       1.006 -15.870   3.928  0.00  0.00    +0.013 A 
ATOM     13  C   UNL     1       1.172 -17.226   3.734  0.00  0.00    +0.039 A 
ATOM     14  C   UNL     1       1.915 -17.688   2.660  0.00  0.00    +0.123 A 
ATOM     15  C   UNL     1       2.494 -16.792   1.777  0.00  0.00    +0.039 A 
ATOM     16  C   UNL     1       2.329 -15.434   1.960  0.00  0.00    +0.013 A 
ATOM     17  F   UNL     1       2.075 -19.017   2.474  0.00  0.00    -0.205 F 
ENDBRANCH   7  11
ENDBRANCH   2   5
BRANCH   1  18
ATOM     18  C   UNL     1      -0.146  -8.091   5.341  0.00  0.00    +0.163 C 
BRANCH  18  21
ATOM     19  C   UNL     1       0.102  -4.875   3.540  0.00  0.00    +0.168 A 
ATOM     20  C   UNL     1      -0.574  -6.013   3.852  0.00  0.00    +0.077 A 
ATOM     21  C   UNL     1       0.218  -6.758   4.739  0.00  0.00    +0.101 A 
ATOM     22  N   UNL     1       1.323  -6.100   4.952  0.00  0.00    -0.081 NA
ATOM     23  O   UNL     1       1.276  -4.902   4.198  0.00  0.00    -0.354 OA
BRANCH  19  30
ATOM     24  C   UNL     1      -0.019   1.526   0.010  0.00  0.00    +0.052 C 
ATOM     25  C   UNL     1       0.002  -0.004   0.002  0.00  0.00    +0.175 C 
ATOM     26  C   UNL     1      -1.435  -0.572   0.076  0.00  0.00    +0.083 C 
ATOM     27  C   UNL     1      -1.242  -1.804   0.940  0.00  0.00    -0.002 A 
ATOM     28  C   UNL     1      -2.041  -2.903   1.172  0.00  0.00    +0.008 A 
ATOM     29  C   UNL     1      -1.613  -3.907   2.017  0.00  0.00    +0.012 A 
ATOM     30  C   UNL     1      -0.366  -3.803   2.636  0.00  0.00    +0.023 A 
ATOM     31  C   UNL     1       0.438  -2.689   2.402  0.00  0.00    +0.057 A 
ATOM     32  C   UNL     1       0.000  -1.679   1.553  0.00  0.00    +0.125 A 
ATOM     33  O   UNL     1       0.612  -0.512   1.201  0.00  0.00    -0.488 OA
ENDBRANCH  19  30
ENDBRANCH  18  21
ENDBRANCH   1  18
TORSDOF 5
