REMARK  Name = ZINC40986272
REMARK  14 active torsions:
REMARK  status: ('A' for Active; 'I' for Inactive)
REMARK    1  A    between atoms: C_1  and  C_2
REMARK    2  A    between atoms: C_2  and  C_3
REMARK    3  A    between atoms: C_3  and  C_4
REMARK    4  A    between atoms: C_4  and  S_5
REMARK    5  A    between atoms: S_5  and  C_8
REMARK    6  A    between atoms: C_11  and  C_15
REMARK    7  A    between atoms: N_17  and  C_18
REMARK    8  A    between atoms: C_18  and  C_19
REMARK    9  A    between atoms: C_19  and  C_21
REMARK   10  A    between atoms: C_19  and  N_31
REMARK   11  A    between atoms: C_24  and  C_27
REMARK   12  A    between atoms: C_27  and  C_28
REMARK   13  A    between atoms: C_27  and  C_29
REMARK   14  A    between atoms: C_27  and  C_30
REMARK                            x       y       z     vdW  Elec       q    Type
REMARK                         _______ _______ _______ _____ _____    ______ ____
ROOT
ATOM      1  C   UNL     1      -2.258 -10.849  -1.150  0.00  0.00    +0.094 C 
ENDROOT
BRANCH   1   4
ATOM      2  C   UNL     1      -3.612 -11.198   0.845  0.00  0.00    +0.248 C 
ATOM      3  O   UNL     1      -2.770 -10.598   1.486  0.00  0.00    -0.270 OA
ATOM      4  N   UNL     1      -3.449 -11.377  -0.481  0.00  0.00    -0.312 N 
ATOM      5  H   UNL     1      -4.120 -11.856  -0.991  0.00  0.00    +0.149 HD
BRANCH   2   9
ATOM      6  C   UNL     1      -6.991 -12.699   2.746  0.00  0.00    +0.272 A 
ATOM      7  N   UNL     1      -6.852 -12.885   1.448  0.00  0.00    -0.219 NA
ATOM      8  C   UNL     1      -5.794 -12.425   0.803  0.00  0.00    +0.130 A 
ATOM      9  C   UNL     1      -4.813 -11.731   1.521  0.00  0.00    +0.092 A 
ATOM     10  C   UNL     1      -5.002 -11.557   2.898  0.00  0.00    +0.146 A 
ATOM     11  N   UNL     1      -6.095 -12.047   3.461  0.00  0.00    -0.199 NA
ATOM     12 CL   UNL     1      -3.825 -10.707   3.850  0.00  0.00    -0.061 Cl
BRANCH   6  13
ATOM     13  S   UNL     1      -8.424 -13.335   3.550  0.00  0.00    +0.032 S 
ATOM     14  O   UNL     1      -8.025 -13.533   4.899  0.00  0.00    -0.166 OA
ATOM     15  O   UNL     1      -8.833 -14.434   2.747  0.00  0.00    -0.166 OA
BRANCH  13  16
ATOM     16  C   UNL     1      -9.647 -11.999   3.449  0.00  0.00    +0.175 C 
BRANCH  16  17
ATOM     17  C   UNL     1     -10.946 -12.444   4.123  0.00  0.00    +0.023 C 
BRANCH  17  19
ATOM     18  C   UNL     1     -13.277 -11.763   4.713  0.00  0.00    +0.004 C 
ATOM     19  C   UNL     1     -11.977 -11.318   4.038  0.00  0.00    -0.002 C 
ENDBRANCH  17  19
ENDBRANCH  16  17
ENDBRANCH  13  16
ENDBRANCH   6  13
ENDBRANCH   2   9
ENDBRANCH   1   4
BRANCH   1  20
ATOM     20  C   UNL     1      -2.254 -11.298  -2.613  0.00  0.00    -0.020 C 
BRANCH  20  21
ATOM     21  N   UNL     1      -1.109 -10.694  -3.307  0.00  0.00    +0.385 N 
ATOM     22  C   UNL     1      -1.243  -9.232  -3.288  0.00  0.00    -0.078 C 
ATOM     23  C   UNL     1      -0.013  -8.595  -3.939  0.00  0.00    -0.019 C 
ATOM     24  C   UNL     1       0.100  -9.080  -5.387  0.00  0.00    -0.004 C 
ATOM     25  C   UNL     1       0.164 -10.610  -5.399  0.00  0.00    -0.019 C 
ATOM     26  C   UNL     1      -1.072 -11.172  -4.694  0.00  0.00    -0.078 C 
ATOM     27  H   UNL     1      -0.255 -10.957  -2.839  0.00  0.00    -0.081 HD
ENDBRANCH  20  21
BRANCH  20  28
ATOM     28  C   UNL     1      -2.144 -12.800  -2.677  0.00  0.00    -0.059 A 
ATOM     29  C   UNL     1      -0.915 -13.411  -2.516  0.00  0.00    +0.002 A 
ATOM     30  C   UNL     1      -0.815 -14.788  -2.575  0.00  0.00    +0.004 A 
ATOM     31  C   UNL     1      -1.944 -15.555  -2.794  0.00  0.00    -0.042 A 
ATOM     32  C   UNL     1      -3.174 -14.944  -2.954  0.00  0.00    +0.004 A 
ATOM     33  C   UNL     1      -3.275 -13.566  -2.891  0.00  0.00    +0.002 A 
BRANCH  31  34
ATOM     34  C   UNL     1      -1.835 -17.056  -2.859  0.00  0.00    -0.013 C 
ATOM     35  C   UNL     1      -1.280 -17.585  -1.534  0.00  0.00    +0.015 C 
ATOM     36  C   UNL     1      -3.219 -17.658  -3.109  0.00  0.00    +0.015 C 
ATOM     37  C   UNL     1      -0.894 -17.450  -3.999  0.00  0.00    +0.015 C 
ENDBRANCH  31  34
ENDBRANCH  20  28
ENDBRANCH   1  20
TORSDOF 10
