REMARK  Name = ZINC40375565
REMARK  5 active torsions:
REMARK  status: ('A' for Active; 'I' for Inactive)
REMARK    1  A    between atoms: C_1  and  C_2
REMARK    2  A    between atoms: C_2  and  N_3
REMARK    3  A    between atoms: N_6  and  C_7
REMARK    4  A    between atoms: C_7  and  C_15
REMARK    5  A    between atoms: N_16  and  O_17
REMARK                            x       y       z     vdW  Elec       q    Type
REMARK                         _______ _______ _______ _____ _____    ______ ____
ROOT
ATOM      1  C   UNL     1       1.603  -3.651  -2.884  0.00  0.00    +0.094 C 
ATOM      2  C   UNL     1       0.335  -4.465  -2.862  0.00  0.00    +0.033 C 
ATOM      3  C   UNL     1      -0.685  -4.281  -3.970  0.00  0.00    +0.002 C 
ATOM      4  C   UNL     1      -1.077  -2.817  -4.185  0.00  0.00    +0.000 C 
ATOM      5  C   UNL     1      -0.535  -2.359  -5.552  0.00  0.00    +0.000 C 
ATOM      6  C   UNL     1       0.975  -2.138  -5.475  0.00  0.00    +0.000 C 
ATOM      7  C   UNL     1       1.679  -3.493  -5.451  0.00  0.00    +0.002 C 
ATOM      8  C   UNL     1       2.421  -3.739  -4.156  0.00  0.00    +0.033 C 
ENDROOT
BRANCH   1  12
ATOM      9  N   UNL     1       2.200  -0.121  -2.054  0.00  0.00    -0.300 N 
ATOM     10  C   UNL     1       2.416  -1.424  -2.323  0.00  0.00    +0.300 C 
ATOM     11  O   UNL     1       3.553  -1.843  -2.422  0.00  0.00    -0.253 OA
ATOM     12  N   UNL     1       1.372  -2.261  -2.483  0.00  0.00    -0.287 N 
ATOM     13  H   UNL     1       1.293   0.214  -1.975  0.00  0.00    +0.150 HD
ATOM     14  H   UNL     1       0.468  -1.943  -2.332  0.00  0.00    +0.151 HD
BRANCH   9  16
ATOM     15  C   UNL     1       2.817   2.199  -1.587  0.00  0.00    +0.024 C 
ATOM     16  C   UNL     1       3.335   0.789  -1.881  0.00  0.00    +0.102 C 
ENDBRANCH   9  16
ENDBRANCH   1  12
BRANCH   1  17
ATOM     17  C   UNL     1       2.498  -4.234  -1.775  0.00  0.00    +0.155 C 
ATOM     18  N   UNL     1       3.675  -4.682  -2.064  0.00  0.00    -0.075 NA
ATOM     19  N   UNL     1       2.044  -4.277  -0.476  0.00  0.00    -0.342 N 
ATOM     20  H   UNL     1       1.192  -3.874  -0.246  0.00  0.00    +0.144 HD
ATOM     21  H   UNL     1       2.576  -4.711   0.209  0.00  0.00    +0.144 HD
BRANCH  18  22
ATOM     22  O   UNL     1       4.498  -5.218  -1.044  0.00  0.00    -0.408 OA
ATOM     23  H   UNL     1       5.359  -5.527  -1.356  0.00  0.00    +0.328 HD
ENDBRANCH  18  22
ENDBRANCH   1  17
TORSDOF 4
