REMARK  Name = ZINC43547705
REMARK  16 active torsions:
REMARK  status: ('A' for Active; 'I' for Inactive)
REMARK    1  A    between atoms: C_1  and  C_2
REMARK    2  A    between atoms: C_2  and  O_39
REMARK    3  A    between atoms: C_5  and  C_30
REMARK    4  A    between atoms: C_9  and  C_28
REMARK    5  A    between atoms: C_9  and  C_29
REMARK    6  A    between atoms: C_11  and  N_13
REMARK    7  A    between atoms: N_13  and  C_14
REMARK    8  A    between atoms: N_13  and  C_21
REMARK    9  A    between atoms: C_14  and  C_15
REMARK   10  A    between atoms: C_21  and  C_22
REMARK   11  A    between atoms: C_30  and  C_31
REMARK   12  A    between atoms: C_31  and  C_32
REMARK   13  A    between atoms: N_34  and  C_35
REMARK   14  A    between atoms: C_35  and  C_36
REMARK   15  A    between atoms: C_36  and  O_37
REMARK   16  A    between atoms: O_37  and  C_38
REMARK                            x       y       z     vdW  Elec       q    Type
REMARK                         _______ _______ _______ _____ _____    ______ ____
ROOT
ATOM      1  C   UNL     1       3.355  -1.023   0.938  0.00  0.00    +0.041 C 
ATOM      2  C   UNL     1       2.463  -2.266   0.896  0.00  0.00    +0.064 C 
ATOM      3  C   UNL     1       1.094  -1.879   0.345  0.00  0.00    +0.035 C 
ATOM      4  C   UNL     1       0.116  -3.064   0.387  0.00  0.00    +0.008 C 
ATOM      5  C   UNL     1       0.029  -3.525   1.829  0.00  0.00    -0.037 C 
ATOM      6  C   UNL     1       1.431  -4.056   2.230  0.00  0.00    +0.002 C 
ATOM      7  C   UNL     1       2.355  -2.855   2.312  0.00  0.00    +0.039 C 
ATOM      8  C   UNL     1       1.128  -4.756   3.559  0.00  0.00    -0.033 C 
ATOM      9  C   UNL     1      -0.214  -5.482   3.272  0.00  0.00    -0.008 C 
ATOM     10  C   UNL     1      -0.889  -4.709   2.112  0.00  0.00    -0.060 C 
ATOM     11  C   UNL     1       0.960  -3.733   4.684  0.00  0.00    +0.011 C 
ATOM     12  C   UNL     1       2.226  -5.765   3.903  0.00  0.00    +0.011 C 
ENDROOT
BRANCH  10  13
ATOM     13  N   UNL     1      -0.996  -5.566   0.923  0.00  0.00    +0.389 N 
ATOM     14  H   UNL     1      -0.098  -5.623   0.468  0.00  0.00    -0.080 HD
BRANCH  13  15
ATOM     15  C   UNL     1      -1.427  -6.911   1.326  0.00  0.00    -0.021 C 
BRANCH  15  16
ATOM     16  C   UNL     1      -1.529  -7.792   0.108  0.00  0.00    +0.025 A 
ATOM     17  C   UNL     1      -0.448  -8.568  -0.267  0.00  0.00    +0.021 A 
ATOM     18  C   UNL     1      -0.553  -9.375  -1.389  0.00  0.00    +0.003 A 
ATOM     19  C   UNL     1      -1.746  -9.371  -2.096  0.00  0.00    +0.020 A 
ATOM     20  C   UNL     1      -2.784  -8.569  -1.661  0.00  0.00    +0.111 A 
ATOM     21  N   UNL     1      -2.651  -7.818  -0.585  0.00  0.00    -0.262 NA
ENDBRANCH  15  16
ENDBRANCH  13  15
BRANCH  13  22
ATOM     22  C   UNL     1      -1.980  -4.995  -0.006  0.00  0.00    -0.021 C 
BRANCH  22  23
ATOM     23  C   UNL     1      -3.346  -5.020   0.631  0.00  0.00    +0.025 A 
ATOM     24  C   UNL     1      -3.990  -3.831   0.915  0.00  0.00    +0.021 A 
ATOM     25  C   UNL     1      -5.246  -3.865   1.501  0.00  0.00    +0.003 A 
ATOM     26  C   UNL     1      -5.810  -5.101   1.780  0.00  0.00    +0.020 A 
ATOM     27  C   UNL     1      -5.106  -6.248   1.468  0.00  0.00    +0.111 A 
ATOM     28  N   UNL     1      -3.915  -6.178   0.906  0.00  0.00    -0.262 NA
ENDBRANCH  22  23
ENDBRANCH  13  22
ENDBRANCH  10  13
BRANCH   2  29
ATOM     29  O   UNL     1       3.056  -3.237   0.030  0.00  0.00    -0.389 OA
ATOM     30  H   UNL     1       3.172  -2.933  -0.880  0.00  0.00    +0.210 HD
ENDBRANCH   2  29
BRANCH   5  31
ATOM     31  C   UNL     1      -0.355  -2.347   2.726  0.00  0.00    +0.015 C 
BRANCH  31  32
ATOM     32  C   UNL     1      -1.627  -1.688   2.187  0.00  0.00    +0.096 C 
BRANCH  32  33
ATOM     33  C   UNL     1      -2.060  -0.591   3.125  0.00  0.00    +0.213 C 
ATOM     34  O   UNL     1      -1.366  -0.295   4.075  0.00  0.00    -0.276 OA
ATOM     35  N   UNL     1      -3.219   0.062   2.908  0.00  0.00    -0.313 N 
ATOM     36  H   UNL     1      -3.809  -0.221   2.192  0.00  0.00    +0.149 HD
BRANCH  35  37
ATOM     37  C   UNL     1      -3.587   1.201   3.753  0.00  0.00    +0.132 C 
BRANCH  37  38
ATOM     38  C   UNL     1      -4.938   1.758   3.299  0.00  0.00    +0.178 C 
BRANCH  38  39
ATOM     39  O   UNL     1      -5.955   0.778   3.519  0.00  0.00    -0.381 OA
ATOM     40  C   UNL     1      -7.263   1.200   3.127  0.00  0.00    +0.194 C 
ENDBRANCH  38  39
ENDBRANCH  37  38
ENDBRANCH  35  37
ENDBRANCH  32  33
ENDBRANCH  31  32
ENDBRANCH   5  31
TORSDOF 12
