REMARK  Name = ZINC39675496
REMARK  11 active torsions:
REMARK  status: ('A' for Active; 'I' for Inactive)
REMARK    1  A    between atoms: C_1  and  C_2
REMARK    2  A    between atoms: C_5  and  C_8
REMARK    3  A    between atoms: C_8  and  C_9
REMARK    4  A    between atoms: C_13  and  C_22
REMARK    5  A    between atoms: N_24  and  C_25
REMARK    6  A    between atoms: C_25  and  C_27
REMARK    7  A    between atoms: C_25  and  C_28
REMARK    8  A    between atoms: C_28  and  C_29
REMARK    9  A    between atoms: C_29  and  C_30
REMARK   10  A    between atoms: C_33  and  O_36
REMARK   11  A    between atoms: O_36  and  C_37
REMARK                            x       y       z     vdW  Elec       q    Type
REMARK                         _______ _______ _______ _____ _____    ______ ____
ROOT
ATOM      1  C   UNL     1       1.635  -4.775  -0.000  0.00  0.00    +0.220 C 
ATOM      2  O   UNL     1       2.564  -3.997  -0.052  0.00  0.00    -0.275 OA
ATOM      3  N   UNL     1       1.865  -6.103  -0.041  0.00  0.00    -0.300 N 
ATOM      4  C   UNL     1       0.869  -7.199   0.003  0.00  0.00    +0.121 C 
ATOM      5  C   UNL     1       1.397  -8.247  -1.002  0.00  0.00    +0.100 C 
ATOM      6  C   UNL     1       2.909  -7.979  -1.090  0.00  0.00    -0.004 C 
ATOM      7  C   UNL     1       3.171  -6.796  -0.147  0.00  0.00    +0.115 C 
ATOM      8  C   UNL     1       3.297  -7.604  -2.517  0.00  0.00    -0.010 C 
ATOM      9  C   UNL     1       4.812  -7.398  -2.591  0.00  0.00    -0.082 C 
ATOM     10  N   UNL     1       5.496  -8.632  -2.185  0.00  0.00    +0.379 N 
ATOM     11  C   UNL     1       5.191  -8.934  -0.782  0.00  0.00    -0.082 C 
ATOM     12  C   UNL     1       3.691  -9.205  -0.630  0.00  0.00    -0.010 C 
ATOM     13  H   UNL     1       5.186  -9.394  -2.768  0.00  0.00    -0.086 HD
ATOM     14  H   UNL     1       6.493  -8.513  -2.293  0.00  0.00    -0.086 HD
ENDROOT
BRANCH   5  15
ATOM     15  C   UNL     1       1.138  -9.641  -0.491  0.00  0.00    +0.218 C 
ATOM     16  O   UNL     1       1.127  -9.857   0.703  0.00  0.00    -0.275 OA
ATOM     17  N   UNL     1       0.919 -10.648  -1.359  0.00  0.00    -0.312 N 
ATOM     18  H   UNL     1       0.929 -10.475  -2.314  0.00  0.00    +0.149 HD
BRANCH  17  19
ATOM     19  C   UNL     1       0.668 -12.002  -0.863  0.00  0.00    +0.070 C 
ATOM     20  C   UNL     1       2.001 -12.708  -0.607  0.00  0.00    +0.028 C 
BRANCH  19  21
ATOM     21  C   UNL     1      -0.133 -12.787  -1.903  0.00  0.00    +0.026 C 
BRANCH  21  22
ATOM     22  C   UNL     1      -1.516 -12.152  -2.067  0.00  0.00    +0.037 C 
BRANCH  22  23
ATOM     23  C   UNL     1      -2.305 -12.925  -3.093  0.00  0.00    -0.047 A 
ATOM     24  C   UNL     1      -2.233 -12.573  -4.428  0.00  0.00    +0.007 A 
ATOM     25  C   UNL     1      -2.956 -13.279  -5.370  0.00  0.00    +0.046 A 
ATOM     26  C   UNL     1      -3.754 -14.343  -4.975  0.00  0.00    +0.120 A 
ATOM     27  C   UNL     1      -3.823 -14.696  -3.635  0.00  0.00    +0.046 A 
ATOM     28  C   UNL     1      -3.095 -13.989  -2.698  0.00  0.00    +0.007 A 
BRANCH  26  29
ATOM     29  O   UNL     1      -4.466 -15.040  -5.900  0.00  0.00    -0.495 OA
ATOM     30  C   UNL     1      -5.265 -16.123  -5.421  0.00  0.00    +0.277 C 
ENDBRANCH  26  29
ENDBRANCH  22  23
ENDBRANCH  21  22
ENDBRANCH  19  21
ENDBRANCH  17  19
ENDBRANCH   5  15
BRANCH   1  31
ATOM     31  C   UNL     1       0.224  -4.258   0.109  0.00  0.00    +0.131 C 
BRANCH  31  36
ATOM     32  C   UNL     1       0.289   1.520   0.212  0.00  0.00    +0.044 C 
ATOM     33  C   UNL     1       0.272   0.013   0.185  0.00  0.00    -0.050 A 
ATOM     34  C   UNL     1       0.181  -0.656  -1.021  0.00  0.00    +0.003 A 
ATOM     35  C   UNL     1       0.165  -2.038  -1.046  0.00  0.00    +0.004 A 
ATOM     36  C   UNL     1       0.242  -2.751   0.136  0.00  0.00    -0.039 A 
ATOM     37  C   UNL     1       0.334  -2.082   1.342  0.00  0.00    +0.004 A 
ATOM     38  C   UNL     1       0.354  -0.700   1.367  0.00  0.00    +0.003 A 
ENDBRANCH  31  36
ENDBRANCH   1  31
TORSDOF 8
