REMARK  Name = ZINC38767335
REMARK  11 active torsions:
REMARK  status: ('A' for Active; 'I' for Inactive)
REMARK    1  A    between atoms: C_1  and  C_2
REMARK    2  A    between atoms: C_2  and  O_3
REMARK    3  A    between atoms: O_3  and  C_4
REMARK    4  A    between atoms: C_9  and  O_10
REMARK    5  A    between atoms: O_10  and  C_11
REMARK    6  A    between atoms: C_12  and  C_33
REMARK    7  A    between atoms: C_15  and  C_17
REMARK    8  A    between atoms: C_20  and  O_24
REMARK    9  A    between atoms: C_22  and  O_23
REMARK   10  A    between atoms: O_24  and  C_25
REMARK   11  A    between atoms: C_25  and  C_26
REMARK                            x       y       z     vdW  Elec       q    Type
REMARK                         _______ _______ _______ _____ _____    ______ ____
ROOT
ATOM      1  C   UNL     1      -5.123  -2.083   0.086  0.00  0.00    +0.156 C 
ATOM      2  C   UNL     1      -5.510  -3.373   0.166  0.00  0.00    +0.098 C 
ATOM      3  N   UNL     1      -6.844  -3.466   0.201  0.00  0.00    -0.179 NA
ATOM      4  N   UNL     1      -7.441  -2.389   0.154  0.00  0.00    -0.294 N 
ATOM      5  C   UNL     1      -6.435  -1.316   0.078  0.00  0.00    +0.200 C 
ATOM      6  C   UNL     1      -4.567  -4.548   0.210  0.00  0.00    +0.071 C 
ATOM      7  H   UNL     1      -8.404  -2.269   0.168  0.00  0.00    +0.184 HD
ENDROOT
BRANCH   5   8
ATOM      8  C   UNL     1      -6.529  -0.407   1.276  0.00  0.00    +0.025 A 
ATOM      9  C   UNL     1      -7.177  -0.836   2.419  0.00  0.00    +0.013 A 
ATOM     10  C   UNL     1      -7.265  -0.005   3.519  0.00  0.00    +0.046 A 
ATOM     11  C   UNL     1      -6.702   1.263   3.479  0.00  0.00    +0.124 A 
ATOM     12  C   UNL     1      -6.052   1.696   2.334  0.00  0.00    +0.091 A 
ATOM     13  C   UNL     1      -5.960   0.858   1.233  0.00  0.00    +0.126 A 
BRANCH  13  14
ATOM     14  O   UNL     1      -5.317   1.276   0.111  0.00  0.00    -0.506 OA
ATOM     15  H   UNL     1      -5.889   1.728  -0.524  0.00  0.00    +0.292 HD
ENDBRANCH  13  14
BRANCH  11  16
ATOM     16  O   UNL     1      -6.789   2.080   4.561  0.00  0.00    -0.487 OA
BRANCH  16  17
ATOM     17  C   UNL     1      -7.474   1.569   5.707  0.00  0.00    +0.264 C 
BRANCH  17  18
ATOM     18  C   UNL     1      -7.471   2.607   6.799  0.00  0.00    -0.010 A 
ATOM     19  C   UNL     1      -6.435   2.642   7.715  0.00  0.00    +0.010 A 
ATOM     20  C   UNL     1      -6.431   3.594   8.717  0.00  0.00    +0.039 A 
ATOM     21  C   UNL     1      -7.463   4.513   8.803  0.00  0.00    +0.123 A 
ATOM     22  C   UNL     1      -8.499   4.476   7.886  0.00  0.00    +0.039 A 
ATOM     23  C   UNL     1      -8.499   3.527   6.881  0.00  0.00    +0.010 A 
ATOM     24  F   UNL     1      -7.459   5.443   9.783  0.00  0.00    -0.205 F 
ENDBRANCH  17  18
ENDBRANCH  16  17
ENDBRANCH  11  16
ENDBRANCH   5   8
BRANCH   1  25
ATOM     25  O   UNL     1      -3.868  -1.590   0.032  0.00  0.00    -0.452 OA
BRANCH  25  31
ATOM     26  C   UNL     1      -2.234  -0.342  -1.175  0.00  0.00    +0.162 A 
ATOM     27  C   UNL     1      -1.834   0.280  -2.347  0.00  0.00    +0.049 A 
ATOM     28  C   UNL     1      -2.668   0.279  -3.449  0.00  0.00    +0.004 A 
ATOM     29  C   UNL     1      -3.902  -0.342  -3.386  0.00  0.00    +0.004 A 
ATOM     30  C   UNL     1      -4.308  -0.964  -2.221  0.00  0.00    +0.050 A 
ATOM     31  C   UNL     1      -3.474  -0.973  -1.113  0.00  0.00    +0.170 A 
BRANCH  26  32
ATOM     32  O   UNL     1      -1.415  -0.342  -0.090  0.00  0.00    -0.489 OA
BRANCH  32  34
ATOM     33  C   UNL     1       0.619   0.220   1.088  0.00  0.00    +0.048 C 
ATOM     34  C   UNL     1      -0.158   0.325  -0.226  0.00  0.00    +0.226 C 
ENDBRANCH  32  34
ENDBRANCH  26  32
ENDBRANCH  25  31
ENDBRANCH   1  25
TORSDOF 9
