REMARK  Name = ZINC35532966
REMARK  9 active torsions:
REMARK  status: ('A' for Active; 'I' for Inactive)
REMARK    1  A    between atoms: C_1  and  C_2
REMARK    2  A    between atoms: C_7  and  N_8
REMARK    3  A    between atoms: C_9  and  C_11
REMARK    4  A    between atoms: C_14  and  C_35
REMARK    5  A    between atoms: C_15  and  C_16
REMARK    6  A    between atoms: C_15  and  C_17
REMARK    7  A    between atoms: N_19  and  O_20
REMARK    8  A    between atoms: O_20  and  C_21
REMARK    9  A    between atoms: C_21  and  C_23
REMARK                            x       y       z     vdW  Elec       q    Type
REMARK                         _______ _______ _______ _____ _____    ______ ____
ROOT
ATOM      1  C   UNL     1      -0.168   0.054   4.882  0.00  0.00    +0.058 C 
ATOM      2  C   UNL     1      -1.432   0.952   5.052  0.00  0.00    +0.018 C 
ATOM      3  C   UNL     1      -1.543   1.178   6.578  0.00  0.00    +0.014 C 
ATOM      4  C   UNL     1      -0.341   0.388   7.180  0.00  0.00    +0.015 C 
ATOM      5  C   UNL     1      -0.258  -0.821   6.183  0.00  0.00    -0.010 C 
ATOM      6  C   UNL     1      -1.533  -1.665   6.222  0.00  0.00    +0.013 C 
ATOM      7  C   UNL     1       0.995  -1.675   6.390  0.00  0.00    +0.013 C 
ATOM      8  C   UNL     1       0.898   1.193   6.762  0.00  0.00    +0.066 C 
ATOM      9  N   UNL     1       1.663   1.887   7.516  0.00  0.00    -0.083 NA
ATOM     10  C   UNL     1       1.036   0.975   5.250  0.00  0.00    +0.071 C 
ATOM     11  C   UNL     1      -0.453   0.032   8.664  0.00  0.00    +0.018 C 
ENDROOT
BRANCH   1  13
ATOM     12  N   UNL     1       0.025  -0.014   2.417  0.00  0.00    -0.285 N 
ATOM     13  C   UNL     1      -0.056  -0.693   3.578  0.00  0.00    +0.224 C 
ATOM     14  O   UNL     1      -0.040  -1.906   3.574  0.00  0.00    -0.275 OA
ATOM     15  H   UNL     1       0.078   0.955   2.424  0.00  0.00    +0.155 HD
BRANCH  12  22
ATOM     16  C   UNL     1      -1.264   1.183   0.181  0.00  0.00    +0.045 C 
ATOM     17  C   UNL     1      -0.584  -0.158   0.084  0.00  0.00    -0.029 A 
ATOM     18  C   UNL     1      -0.569  -0.840  -1.117  0.00  0.00    +0.006 A 
ATOM     19  C   UNL     1       0.054  -2.070  -1.207  0.00  0.00    +0.020 A 
ATOM     20  C   UNL     1       0.667  -2.622  -0.095  0.00  0.00    +0.043 A 
ATOM     21  C   UNL     1       0.655  -1.944   1.109  0.00  0.00    +0.043 A 
ATOM     22  C   UNL     1       0.034  -0.706   1.201  0.00  0.00    +0.038 A 
ATOM     23 CL   UNL     1       1.449  -4.168  -0.213  0.00  0.00    -0.083 Cl
ENDBRANCH  12  22
ENDBRANCH   1  13
BRANCH   9  24
ATOM     24  O   UNL     1       1.401   1.971   8.905  0.00  0.00    -0.312 OA
BRANCH  24  25
ATOM     25  C   UNL     1       2.282   2.733   9.584  0.00  0.00    +0.373 C 
ATOM     26  O   UNL     1       3.198   3.273   8.996  0.00  0.00    -0.242 OA
BRANCH  25  27
ATOM     27  C   UNL     1       2.134   2.910  11.037  0.00  0.00    +0.146 A 
ATOM     28  C   UNL     1       3.022   3.694  11.763  0.00  0.00    +0.033 A 
ATOM     29  C   UNL     1       2.833   3.792  13.165  0.00  0.00    +0.018 A 
ATOM     30  C   UNL     1       3.567   4.719  13.920  0.00  0.00    +0.011 A 
ATOM     31  C   UNL     1       3.343   4.830  15.262  0.00  0.00    +0.001 A 
ATOM     32  C   UNL     1       2.400   4.028  15.890  0.00  0.00    +0.004 A 
ATOM     33  C   UNL     1       1.681   3.095  15.171  0.00  0.00    +0.047 A 
ATOM     34  C   UNL     1       1.896   2.959  13.806  0.00  0.00    +0.139 A 
ATOM     35  O   UNL     1       1.227   2.018  13.098  0.00  0.00    -0.422 OA
ATOM     36  C   UNL     1       1.034   2.268  11.780  0.00  0.00    +0.352 A 
ATOM     37  O   UNL     1      -0.009   1.970  11.227  0.00  0.00    -0.244 OA
ENDBRANCH  25  27
ENDBRANCH  24  25
ENDBRANCH   9  24
TORSDOF 5
