REMARK  Name = ZINC09045184
REMARK  15 active torsions:
REMARK  status: ('A' for Active; 'I' for Inactive)
REMARK    1  A    between atoms: C_1  and  C_2
REMARK    2  A    between atoms: C_4  and  O_33
REMARK    3  A    between atoms: C_5  and  C_32
REMARK    4  A    between atoms: C_6  and  C_31
REMARK    5  A    between atoms: C_7  and  C_8
REMARK    6  A    between atoms: C_8  and  C_9
REMARK    7  A    between atoms: C_9  and  C_10
REMARK    8  A    between atoms: C_10  and  C_11
REMARK    9  A    between atoms: C_10  and  C_12
REMARK   10  A    between atoms: C_10  and  O_30
REMARK   11  A    between atoms: C_13  and  C_14
REMARK   12  A    between atoms: C_21  and  O_22
REMARK   13  A    between atoms: O_22  and  C_23
REMARK   14  A    between atoms: C_29  and  N_69
REMARK   15  A    between atoms: O_33  and  C_34
REMARK                            x       y       z     vdW  Elec       q    Type
REMARK                         _______ _______ _______ _____ _____    ______ ____
ROOT
ATOM      1  C   UNL     1       1.134   6.109   2.853  0.00  0.00    -0.069 C 
ATOM      2  C   UNL     1       1.138   6.495   3.962  0.00  0.00    -0.110 C 
ENDROOT
BRANCH   2   3
ATOM      3  C   UNL     1       1.144   6.978   5.352  0.00  0.00    +0.043 C 
ATOM      4  C   UNL     1       1.120   8.485   5.355  0.00  0.00    -0.001 A 
ATOM      5  C   UNL     1      -0.031   9.194   5.623  0.00  0.00    -0.039 A 
ATOM      6  C   UNL     1      -0.010  10.580   5.610  0.00  0.00    +0.053 A 
ATOM      7  C   UNL     1       1.162  11.263   5.332  0.00  0.00    +0.170 A 
ATOM      8  C   UNL     1       2.327  10.552   5.065  0.00  0.00    +0.208 A 
ATOM      9  C   UNL     1       2.302   9.164   5.076  0.00  0.00    +0.168 A 
ATOM     10  O   UNL     1       3.337  11.440   4.826  0.00  0.00    -0.449 OA
ATOM     11  C   UNL     1       2.873  12.698   5.351  0.00  0.00    +0.467 C 
ATOM     12  O   UNL     1       1.440  12.598   5.261  0.00  0.00    -0.452 OA
ATOM     13  C   UNL     1      -1.331   8.500   5.941  0.00  0.00    +0.017 C 
ATOM     14  C   UNL     1      -1.260   7.035   5.508  0.00  0.00    -0.072 C 
ATOM     15  C   UNL     1      -0.066   4.979   5.977  0.00  0.00    -0.094 C 
ATOM     16  N   UNL     1      -0.027   6.455   6.076  0.00  0.00    +0.390 N 
ATOM     17  H   UNL     1       0.044   6.722   7.066  0.00  0.00    -0.080 HD
BRANCH   9  18
ATOM     18  O   UNL     1       3.439   8.465   4.815  0.00  0.00    -0.491 OA
ATOM     19  C   UNL     1       3.693   8.126   3.450  0.00  0.00    +0.277 C 
ENDBRANCH   9  18
ENDBRANCH   2   3
BRANCH   1  20
ATOM     20  C   UNL     1       1.129   5.625   1.463  0.00  0.00    +0.124 C 
ATOM     21  C   UNL     1      -0.135   6.119   0.756  0.00  0.00    +0.055 C 
BRANCH  20  22
ATOM     22  O   UNL     1       2.282   6.123   0.781  0.00  0.00    -0.377 OA
ATOM     23  H   UNL     1       3.121   5.849   1.175  0.00  0.00    +0.211 HD
ENDBRANCH  20  22
BRANCH  20  24
ATOM     24  C   UNL     1       1.153   4.096   1.455  0.00  0.00    +0.052 C 
BRANCH  24  25
ATOM     25  C   UNL     1       1.147   3.593   0.010  0.00  0.00    +0.039 C 
BRANCH  25  32
ATOM     26  C   UNL     1      -1.332   2.112   0.020  0.00  0.00    +0.044 C 
ATOM     27  C   UNL     1      -0.017   1.377   0.010  0.00  0.00    -0.044 A 
ATOM     28  C   UNL     1       0.002  -0.004   0.002  0.00  0.00    +0.049 A 
ATOM     29  C   UNL     1       1.213  -0.680  -0.013  0.00  0.00    +0.123 A 
ATOM     30  C   UNL     1       2.403   0.034  -0.021  0.00  0.00    -0.006 A 
ATOM     31  C   UNL     1       2.379   1.415  -0.013  0.00  0.00    -0.041 A 
ATOM     32  C   UNL     1       1.170   2.086   0.002  0.00  0.00    -0.041 A 
ATOM     33  C   UNL     1       3.671   2.190  -0.022  0.00  0.00    +0.044 C 
ATOM     34  C   UNL     1       3.721  -0.698  -0.038  0.00  0.00    +0.048 C 
BRANCH  29  35
ATOM     35  O   UNL     1       1.234  -2.039  -0.021  0.00  0.00    -0.495 OA
ATOM     36  C   UNL     1      -0.029  -2.707  -0.013  0.00  0.00    +0.277 C 
ENDBRANCH  29  35
ENDBRANCH  25  32
ENDBRANCH  24  25
ENDBRANCH  20  24
ENDBRANCH   1  20
TORSDOF 8
