REMARK  Name = ZINC49128544
REMARK  5 active torsions:
REMARK  status: ('A' for Active; 'I' for Inactive)
REMARK    1  A    between atoms: C_5  and  C_6
REMARK    2  A    between atoms: N_8  and  C_9
REMARK    3  A    between atoms: C_9  and  C_10
REMARK    4  A    between atoms: N_12  and  N_13
REMARK    5  A    between atoms: N_16  and  C_17
REMARK                            x       y       z     vdW  Elec       q    Type
REMARK                         _______ _______ _______ _____ _____    ______ ____
ROOT
ATOM      1  C   UNL     1      -1.492  -4.622  -0.008  0.00  0.00    +0.246 C 
ATOM      2  O   UNL     1      -0.297  -4.825  -0.021  0.00  0.00    -0.273 OA
ATOM      3  N   UNL     1      -2.352  -5.660  -0.004  0.00  0.00    -0.232 N 
ATOM      4  H   UNL     1      -3.308  -5.498   0.006  0.00  0.00    +0.173 HD
ENDROOT
BRANCH   3   5
ATOM      5  N   UNL     1      -1.864  -6.973  -0.016  0.00  0.00    -0.218 N 
ATOM      6  C   UNL     1      -2.724  -8.011  -0.013  0.00  0.00    +0.316 C 
ATOM      7  O   UNL     1      -2.301  -9.151  -0.024  0.00  0.00    -0.251 OA
ATOM      8  N   UNL     1      -4.053  -7.786   0.002  0.00  0.00    -0.295 N 
ATOM      9  H   UNL     1      -0.908  -7.136  -0.027  0.00  0.00    +0.174 HD
ATOM     10  H   UNL     1      -4.390  -6.877   0.010  0.00  0.00    +0.151 HD
BRANCH   8  11
ATOM     11  C   UNL     1      -4.987  -8.915   0.005  0.00  0.00    +0.075 C 
ATOM     12  C   UNL     1      -6.204  -8.827  -0.919  0.00  0.00    +0.024 C 
ATOM     13  C   UNL     1      -6.379  -8.677   0.594  0.00  0.00    +0.024 C 
ENDBRANCH   8  11
ENDBRANCH   3   5
BRANCH   1  14
ATOM     14  C   UNL     1      -2.017  -3.209   0.005  0.00  0.00    +0.202 C 
BRANCH  14  17
ATOM     15  C   UNL     1      -1.123  -0.943   0.008  0.00  0.00    +0.251 C 
ATOM     16  O   UNL     1      -2.265  -0.523   0.022  0.00  0.00    -0.270 OA
ATOM     17  N   UNL     1      -0.892  -2.271  -0.001  0.00  0.00    -0.302 N 
ATOM     18  H   UNL     1       0.018  -2.605  -0.012  0.00  0.00    +0.150 HD
BRANCH  15  23
ATOM     19  C   UNL     1      -0.017   1.383   0.010  0.00  0.00    +0.022 A 
ATOM     20  C   UNL     1       1.212   1.996   0.001  0.00  0.00    +0.024 A 
ATOM     21  C   UNL     1       2.332   1.230  -0.014  0.00  0.00    +0.056 A 
ATOM     22  S   UNL     1       1.751  -0.347  -0.017  0.00  0.00    -0.077 S 
ATOM     23  C   UNL     1       0.002  -0.004   0.002  0.00  0.00    +0.075 A 
ATOM     24 BR   UNL     1       4.134   1.804  -0.028  0.00  0.00    -0.043 Br
ENDBRANCH  15  23
ENDBRANCH  14  17
ENDBRANCH   1  14
TORSDOF 5
