REMARK  Name = ZINC02587031
REMARK  6 active torsions:
REMARK  status: ('A' for Active; 'I' for Inactive)
REMARK    1  A    between atoms: C_1  and  O_2
REMARK    2  A    between atoms: O_2  and  C_3
REMARK    3  A    between atoms: C_8  and  C_9
REMARK    4  A    between atoms: N_11  and  C_12
REMARK    5  A    between atoms: C_15  and  C_29
REMARK    6  A    between atoms: C_18  and  C_22
REMARK                            x       y       z     vdW  Elec       q    Type
REMARK                         _______ _______ _______ _____ _____    ______ ____
ROOT
ATOM      1  C   UNL     1      -1.065  -3.014   1.949  0.00  0.00    +0.241 C 
ATOM      2  N   UNL     1      -1.067  -4.321   1.988  0.00  0.00    -0.140 NA
ATOM      3  N   UNL     1      -1.722  -4.724   3.154  0.00  0.00    -0.180 N 
ATOM      4  C   UNL     1      -2.029  -6.040   3.732  0.00  0.00    +0.156 C 
ATOM      5  C   UNL     1      -2.778  -6.039   5.051  0.00  0.00    +0.030 C 
ATOM      6  C   UNL     1      -3.098  -4.842   5.581  0.00  0.00    +0.073 C 
ATOM      7  N   UNL     1      -2.766  -3.680   4.964  0.00  0.00    -0.217 NA
ATOM      8  C   UNL     1      -2.119  -3.604   3.823  0.00  0.00    +0.211 C 
ATOM      9  N   UNL     1      -1.705  -2.532   3.075  0.00  0.00    -0.254 N 
ATOM     10  H   UNL     1      -1.840  -1.597   3.296  0.00  0.00    +0.158 HD
ENDROOT
BRANCH   6  11
ATOM     11  C   UNL     1      -3.830  -4.793   6.870  0.00  0.00    +0.000 A 
ATOM     12  C   UNL     1      -4.176  -5.975   7.523  0.00  0.00    +0.011 A 
ATOM     13  C   UNL     1      -4.857  -5.925   8.722  0.00  0.00    +0.020 A 
ATOM     14  C   UNL     1      -5.198  -4.703   9.276  0.00  0.00    +0.041 A 
ATOM     15  C   UNL     1      -4.857  -3.526   8.632  0.00  0.00    +0.020 A 
ATOM     16  C   UNL     1      -4.170  -3.566   7.435  0.00  0.00    +0.011 A 
ATOM     17 CL   UNL     1      -6.055  -4.646  10.785  0.00  0.00    -0.084 Cl
ENDBRANCH   6  11
BRANCH   4  18
ATOM     18  C   UNL     1      -0.730  -6.777   3.933  0.00  0.00    -0.021 A 
ATOM     19  C   UNL     1       0.382  -6.102   4.399  0.00  0.00    +0.006 A 
ATOM     20  C   UNL     1       1.574  -6.779   4.583  0.00  0.00    +0.000 A 
ATOM     21  C   UNL     1       1.652  -8.130   4.303  0.00  0.00    +0.000 A 
ATOM     22  C   UNL     1       0.539  -8.805   3.837  0.00  0.00    +0.000 A 
ATOM     23  C   UNL     1      -0.653  -8.130   3.657  0.00  0.00    +0.006 A 
ENDBRANCH   4  18
BRANCH   1  26
ATOM     24  C   UNL     1       0.068  -2.829  -0.061  0.00  0.00    +0.284 C 
ATOM     25  O   UNL     1       0.125  -4.178  -0.138  0.00  0.00    -0.265 OA
ATOM     26  N   UNL     1      -0.516  -2.254   0.964  0.00  0.00    -0.174 NA
BRANCH  24  32
ATOM     27  C   UNL     1       0.605  -0.606  -1.054  0.00  0.00    +0.132 A 
ATOM     28  C   UNL     1       1.172   0.159  -2.061  0.00  0.00    +0.046 A 
ATOM     29  C   UNL     1       1.786  -0.455  -3.136  0.00  0.00    +0.004 A 
ATOM     30  C   UNL     1       1.839  -1.837  -3.217  0.00  0.00    +0.001 A 
ATOM     31  C   UNL     1       1.280  -2.614  -2.225  0.00  0.00    +0.017 A 
ATOM     32  C   UNL     1       0.662  -2.005  -1.129  0.00  0.00    +0.083 A 
BRANCH  27  34
ATOM     33  C   UNL     1      -0.017   1.425   0.010  0.00  0.00    +0.277 C 
ATOM     34  O   UNL     1       0.002  -0.004   0.002  0.00  0.00    -0.494 OA
ENDBRANCH  27  34
ENDBRANCH  24  32
ENDBRANCH   1  26
TORSDOF 5
