REMARK  Name = ZINC62537082
REMARK  4 active torsions:
REMARK  status: ('A' for Active; 'I' for Inactive)
REMARK    1  A    between atoms: C_1  and  C_2
REMARK    2  A    between atoms: C_3  and  N_18
REMARK    3  A    between atoms: C_6  and  C_9
REMARK    4  A    between atoms: C_14  and  C_17
REMARK                            x       y       z     vdW  Elec       q    Type
REMARK                         _______ _______ _______ _____ _____    ______ ____
ROOT
ATOM      1  C   UNL     1      -0.018   1.503   0.010  0.00  0.00    +0.047 C 
ATOM      2  C   UNL     1       0.002  -0.004   0.002  0.00  0.00    -0.008 A 
ATOM      3  C   UNL     1       0.006  -0.690  -1.206  0.00  0.00    +0.073 A 
ATOM      4  C   UNL     1       0.024  -2.080  -1.211  0.00  0.00    +0.163 A 
ATOM      5  C   UNL     1       0.037  -2.776  -0.006  0.00  0.00    +0.082 A 
ATOM      6  C   UNL     1       0.035  -2.084   1.196  0.00  0.00    -0.007 A 
ATOM      7  C   UNL     1       0.023  -0.700   1.197  0.00  0.00    +0.051 A 
ATOM      8 CL   UNL     1       0.027   0.164   2.702  0.00  0.00    -0.083 Cl
ATOM      9  C   UNL     1       0.052  -2.839   2.500  0.00  0.00    +0.047 C 
ATOM     10  N   UNL     1       0.045  -4.178  -0.022  0.00  0.00    -0.282 N 
ATOM     11  C   UNL     1       0.930  -4.826  -0.812  0.00  0.00    +0.221 C 
ATOM     12  O   UNL     1       0.907  -6.036  -0.887  0.00  0.00    -0.275 OA
ATOM     13  C   UNL     1       1.944  -4.037  -1.600  0.00  0.00    +0.140 C 
ATOM     14  C   UNL     1       1.269  -3.353  -2.787  0.00  0.00    +0.179 C 
ATOM     15  O   UNL     1       0.034  -2.765  -2.386  0.00  0.00    -0.485 OA
ATOM     16  C   UNL     1       1.001  -4.388  -3.881  0.00  0.00    +0.052 C 
ATOM     17  H   UNL     1      -0.578  -4.677   0.529  0.00  0.00    +0.155 HD
ENDROOT
BRANCH   3  18
ATOM     18  N   UNL     1      -0.009   0.016  -2.414  0.00  0.00    -0.355 N 
ATOM     19  H   UNL     1      -0.023   0.986  -2.409  0.00  0.00    +0.142 HD
ATOM     20  H   UNL     1      -0.007  -0.464  -3.257  0.00  0.00    +0.142 HD
ENDBRANCH   3  18
TORSDOF 1
