REMARK  Name = ZINC58846012
REMARK  6 active torsions:
REMARK  status: ('A' for Active; 'I' for Inactive)
REMARK    1  A    between atoms: C_1  and  C_2
REMARK    2  A    between atoms: C_5  and  N_8
REMARK    3  A    between atoms: N_8  and  S_9
REMARK    4  A    between atoms: S_9  and  C_12
REMARK    5  A    between atoms: C_25  and  C_28
REMARK    6  A    between atoms: C_31  and  N_34
REMARK                            x       y       z     vdW  Elec       q    Type
REMARK                         _______ _______ _______ _____ _____    ______ ____
ROOT
ATOM      1  C   UNL     1       0.439  -4.541   2.679  0.00  0.00    +0.109 A 
ATOM      2  C   UNL     1       0.786  -3.357   3.304  0.00  0.00    +0.030 A 
ATOM      3  C   UNL     1       0.301  -3.081   4.566  0.00  0.00    +0.025 A 
ATOM      4  C   UNL     1      -0.537  -3.988   5.206  0.00  0.00    +0.031 A 
ATOM      5  C   UNL     1      -0.897  -5.169   4.576  0.00  0.00    -0.018 A 
ATOM      6  C   UNL     1      -0.400  -5.438   3.308  0.00  0.00    +0.034 A 
ATOM      7  C   UNL     1      -1.824  -6.148   5.213  0.00  0.00    +0.049 C 
ATOM      8  C   UNL     1      -1.095  -7.350   5.756  0.00  0.00    -0.023 C 
ATOM      9  C   UNL     1      -1.656  -7.757   6.867  0.00  0.00    -0.030 C 
ATOM     10  C   UNL     1      -2.836  -6.882   7.228  0.00  0.00    +0.033 C 
ATOM     11  C   UNL     1      -2.609  -5.595   6.401  0.00  0.00    +0.029 C 
ATOM     12  C   UNL     1      -1.823  -4.619   7.252  0.00  0.00    +0.105 C 
ATOM     13  N   UNL     1      -1.003  -3.705   6.484  0.00  0.00    -0.336 N 
ATOM     14  H   UNL     1      -0.747  -2.862   6.892  0.00  0.00    +0.147 HD
ENDROOT
BRANCH  12  15
ATOM     15  C   UNL     1      -0.955  -5.404   8.201  0.00  0.00    -0.027 A 
ATOM     16  C   UNL     1       0.241  -5.941   7.762  0.00  0.00    +0.008 A 
ATOM     17  C   UNL     1       1.037  -6.661   8.633  0.00  0.00    +0.033 A 
ATOM     18  C   UNL     1       0.638  -6.843   9.944  0.00  0.00    +0.126 A 
ATOM     19  C   UNL     1      -0.557  -6.305  10.384  0.00  0.00    +0.033 A 
ATOM     20  C   UNL     1      -1.351  -5.582   9.514  0.00  0.00    +0.008 A 
BRANCH  18  21
ATOM     21  N   UNL     1       1.490  -7.614  10.877  0.00  0.00    +0.056 N 
ATOM     22  O   UNL     1       2.535  -8.085  10.492  0.00  0.00    -0.126 OA
ATOM     23  O   UNL     1       1.141  -7.773  12.023  0.00  0.00    -0.126 OA
ENDBRANCH  18  21
ENDBRANCH  12  15
BRANCH   1  24
ATOM     24  S   UNL     1       1.064  -4.901   1.071  0.00  0.00    +0.072 S 
ATOM     25  O   UNL     1       0.912  -6.301   0.881  0.00  0.00    -0.150 OA
ATOM     26  O   UNL     1       2.323  -4.251   0.970  0.00  0.00    -0.150 OA
BRANCH  24  27
ATOM     27  N   UNL     1       0.060  -4.164  -0.021  0.00  0.00    -0.216 N 
ATOM     28  H   UNL     1       0.408  -3.479  -0.613  0.00  0.00    +0.174 HD
BRANCH  27  33
ATOM     29  C   UNL     1      -5.407  -5.642  -0.296  0.00  0.00    +0.044 C 
ATOM     30  C   UNL     1      -3.954  -5.249  -0.223  0.00  0.00    -0.050 A 
ATOM     31  C   UNL     1      -3.601  -3.912  -0.211  0.00  0.00    +0.005 A 
ATOM     32  C   UNL     1      -2.270  -3.549  -0.144  0.00  0.00    +0.025 A 
ATOM     33  C   UNL     1      -1.286  -4.528  -0.088  0.00  0.00    +0.048 A 
ATOM     34  C   UNL     1      -1.645  -5.870  -0.100  0.00  0.00    +0.025 A 
ATOM     35  C   UNL     1      -2.978  -6.226  -0.162  0.00  0.00    +0.005 A 
ENDBRANCH  27  33
ENDBRANCH  24  27
ENDBRANCH   1  24
TORSDOF 5
