REMARK  Name = ZINC36207085
REMARK  13 active torsions:
REMARK  status: ('A' for Active; 'I' for Inactive)
REMARK    1  A    between atoms: C_1  and  C_2
REMARK    2  A    between atoms: C_5  and  C_35
REMARK    3  A    between atoms: C_6  and  C_8
REMARK    4  A    between atoms: C_17  and  C_19
REMARK    5  A    between atoms: C_19  and  N_20
REMARK    6  A    between atoms: N_20  and  C_21
REMARK    7  A    between atoms: N_20  and  C_27
REMARK    8  A    between atoms: C_21  and  C_22
REMARK    9  A    between atoms: C_27  and  C_28
REMARK   10  A    between atoms: C_28  and  C_30
REMARK   11  A    between atoms: C_28  and  O_34
REMARK   12  A    between atoms: C_30  and  C_31
REMARK   13  A    between atoms: C_31  and  C_32
REMARK                            x       y       z     vdW  Elec       q    Type
REMARK                         _______ _______ _______ _____ _____    ______ ____
ROOT
ATOM      1  C   UNL     1      -0.795  -3.430   2.490  0.00  0.00    +0.004 A 
ATOM      2  C   UNL     1      -1.850  -3.628   3.317  0.00  0.00    +0.056 A 
ATOM      3  S   UNL     1      -1.157  -4.594   4.646  0.00  0.00    -0.076 S 
ATOM      4  C   UNL     1       0.516  -4.708   4.066  0.00  0.00    +0.116 A 
ATOM      5  C   UNL     1       0.497  -4.000   2.853  0.00  0.00    +0.080 A 
ATOM      6  C   UNL     1       1.744  -3.935   2.153  0.00  0.00    +0.260 A 
ATOM      7  O   UNL     1       1.829  -3.338   1.093  0.00  0.00    -0.267 OA
ATOM      8  N   UNL     1       2.822  -4.543   2.683  0.00  0.00    -0.312 N 
ATOM      9  H   UNL     1       3.669  -4.502   2.213  0.00  0.00    +0.170 HD
ATOM     10  C   UNL     1       2.746  -5.211   3.862  0.00  0.00    +0.094 A 
ATOM     11  N   UNL     1       1.625  -5.279   4.529  0.00  0.00    -0.229 NA
ENDROOT
BRANCH   1  17
ATOM     12  C   UNL     1      -1.755   0.887   0.174  0.00  0.00    +0.044 C 
ATOM     13  C   UNL     1      -1.415  -0.580   0.119  0.00  0.00    -0.050 A 
ATOM     14  C   UNL     1      -1.251  -1.206  -1.104  0.00  0.00    +0.003 A 
ATOM     15  C   UNL     1      -0.939  -2.552  -1.162  0.00  0.00    +0.004 A 
ATOM     16  C   UNL     1      -0.790  -3.279   0.002  0.00  0.00    -0.043 A 
ATOM     17  C   UNL     1      -0.954  -2.655   1.237  0.00  0.00    -0.013 A 
ATOM     18  C   UNL     1      -1.262  -1.296   1.289  0.00  0.00    +0.012 A 
ATOM     19  C   UNL     1      -0.451  -4.746  -0.063  0.00  0.00    +0.044 C 
ENDBRANCH   1  17
BRANCH  10  20
ATOM     20  C   UNL     1       3.979  -5.876   4.417  0.00  0.00    -0.003 C 
BRANCH  20  21
ATOM     21  N   UNL     1       3.651  -6.530   5.691  0.00  0.00    +0.391 N 
ATOM     22  H   UNL     1       3.240  -5.856   6.319  0.00  0.00    -0.080 HD
BRANCH  21  23
ATOM     23  C   UNL     1       2.697  -7.621   5.450  0.00  0.00    -0.002 C 
BRANCH  23  24
ATOM     24  C   UNL     1       2.250  -8.198   6.769  0.00  0.00    +0.089 A 
ATOM     25  C   UNL     1       1.259  -7.720   7.542  0.00  0.00    +0.042 A 
ATOM     26  C   UNL     1       1.182  -8.560   8.676  0.00  0.00    +0.041 A 
ATOM     27  C   UNL     1       2.131  -9.502   8.528  0.00  0.00    +0.195 A 
ATOM     28  O   UNL     1       2.771  -9.281   7.369  0.00  0.00    -0.470 OA
ENDBRANCH  23  24
ENDBRANCH  21  23
BRANCH  21  29
ATOM     29  C   UNL     1       4.876  -7.076   6.291  0.00  0.00    -0.046 C 
BRANCH  29  30
ATOM     30  C   UNL     1       5.812  -5.927   6.674  0.00  0.00    +0.098 C 
BRANCH  30  31
ATOM     31  O   UNL     1       5.172  -5.095   7.644  0.00  0.00    -0.394 OA
ATOM     32  H   UNL     1       4.996  -5.537   8.486  0.00  0.00    +0.210 HD
ENDBRANCH  30  31
BRANCH  30  33
ATOM     33  C   UNL     1       7.104  -6.496   7.262  0.00  0.00    +0.033 C 
BRANCH  33  34
ATOM     34  C   UNL     1       8.088  -5.356   7.529  0.00  0.00    +0.029 C 
BRANCH  34  35
ATOM     35  C   UNL     1       9.361  -5.917   8.109  0.00  0.00    -0.034 C 
ATOM     36  C   UNL     1      10.511  -5.659   7.537  0.00  0.00    +0.004 C 
ENDBRANCH  34  35
ENDBRANCH  33  34
ENDBRANCH  30  33
ENDBRANCH  29  30
ENDBRANCH  21  29
ENDBRANCH  20  21
ENDBRANCH  10  20
TORSDOF 11
