REMARK  Name = ZINC41309827
REMARK  8 active torsions:
REMARK  status: ('A' for Active; 'I' for Inactive)
REMARK    1  A    between atoms: C_1  and  C_2
REMARK    2  A    between atoms: C_5  and  C_8
REMARK    3  A    between atoms: C_8  and  N_9
REMARK    4  A    between atoms: N_9  and  C_10
REMARK    5  A    between atoms: C_18  and  C_20
REMARK    6  A    between atoms: C_24  and  C_29
REMARK    7  A    between atoms: C_29  and  C_30
REMARK    8  A    between atoms: C_29  and  C_31
REMARK                            x       y       z     vdW  Elec       q    Type
REMARK                         _______ _______ _______ _____ _____    ______ ____
ROOT
ATOM      1  N   UNL     1       1.455  -4.718  -0.156  0.00  0.00    -0.286 N 
ATOM      2  C   UNL     1       2.055  -4.806  -1.359  0.00  0.00    +0.283 C 
ATOM      3  O   UNL     1       3.240  -5.074  -1.430  0.00  0.00    -0.267 OA
ENDROOT
BRANCH   2   4
ATOM      4  C   UNL     1       1.279  -4.577  -2.586  0.00  0.00    +0.191 A 
ATOM      5  C   UNL     1       1.759  -4.706  -3.850  0.00  0.00    +0.063 A 
ATOM      6  C   UNL     1       0.645  -4.383  -4.741  0.00  0.00    +0.021 A 
ATOM      7  C   UNL     1       0.491  -4.331  -6.129  0.00  0.00    +0.015 A 
ATOM      8  C   UNL     1      -0.716  -3.982  -6.664  0.00  0.00    -0.044 A 
ATOM      9  C   UNL     1      -1.791  -3.679  -5.838  0.00  0.00    +0.007 A 
ATOM     10  C   UNL     1      -1.660  -3.724  -4.467  0.00  0.00    +0.047 A 
ATOM     11  C   UNL     1      -0.441  -4.077  -3.899  0.00  0.00    +0.136 A 
ATOM     12  O   UNL     1      -0.019  -4.211  -2.627  0.00  0.00    -0.450 OA
BRANCH   8  13
ATOM     13  C   UNL     1      -0.884  -3.926  -8.160  0.00  0.00    +0.013 C 
ATOM     14  C   UNL     1      -1.973  -4.912  -8.589  0.00  0.00    +0.012 C 
ATOM     15  C   UNL     1      -1.286  -2.509  -8.575  0.00  0.00    +0.012 C 
ENDBRANCH   8  13
ENDBRANCH   2   4
BRANCH   1  16
ATOM     16  C   UNL     1       2.199  -5.057   1.060  0.00  0.00    +0.099 C 
ATOM     17  C   UNL     1       2.704  -6.506   0.963  0.00  0.00    +0.047 C 
ATOM     18  C   UNL     1       3.739  -6.736   2.100  0.00  0.00    +0.168 C 
ATOM     19  S   UNL     1       4.658  -5.140   2.047  0.00  0.00    -0.029 S 
ATOM     20  O   UNL     1       5.781  -5.281   1.188  0.00  0.00    -0.174 OA
ATOM     21  O   UNL     1       4.848  -4.671   3.375  0.00  0.00    -0.174 OA
ATOM     22  C   UNL     1       3.398  -4.091   1.214  0.00  0.00    +0.188 C 
ENDBRANCH   1  16
BRANCH   1  23
ATOM     23  C   UNL     1       0.059  -4.285  -0.064  0.00  0.00    +0.143 C 
BRANCH  23  28
ATOM     24  C   UNL     1      -0.143   1.461   0.517  0.00  0.00    +0.044 C 
ATOM     25  C   UNL     1      -0.090  -0.037   0.365  0.00  0.00    -0.050 A 
ATOM     26  C   UNL     1       0.023  -0.601  -0.892  0.00  0.00    +0.003 A 
ATOM     27  C   UNL     1       0.072  -1.976  -1.030  0.00  0.00    +0.005 A 
ATOM     28  C   UNL     1       0.007  -2.786   0.088  0.00  0.00    -0.030 A 
ATOM     29  C   UNL     1      -0.105  -2.222   1.345  0.00  0.00    +0.005 A 
ATOM     30  C   UNL     1      -0.149  -0.847   1.484  0.00  0.00    +0.003 A 
ENDBRANCH  23  28
ENDBRANCH   1  23
TORSDOF 5
