REMARK  Name = ZINC44348686
REMARK  4 active torsions:
REMARK  status: ('A' for Active; 'I' for Inactive)
REMARK    1  A    between atoms: N_9  and  C_10
REMARK    2  A    between atoms: C_15  and  N_16
REMARK    3  A    between atoms: N_19  and  C_20
REMARK    4  A    between atoms: C_20  and  C_21
REMARK                            x       y       z     vdW  Elec       q    Type
REMARK                         _______ _______ _______ _____ _____    ______ ____
ROOT
ATOM      1  C   UNL     1       4.845  -0.424  -0.048  0.00  0.00    +0.056 A 
ATOM      2  C   UNL     1       5.526  -0.222   1.144  0.00  0.00    +0.025 A 
ATOM      3  C   UNL     1       6.846   0.186   1.125  0.00  0.00    +0.002 A 
ATOM      4  C   UNL     1       7.492   0.394  -0.080  0.00  0.00    +0.002 A 
ATOM      5  C   UNL     1       6.822   0.195  -1.272  0.00  0.00    +0.025 A 
ATOM      6  C   UNL     1       5.499  -0.221  -1.263  0.00  0.00    +0.056 A 
ENDROOT
BRANCH   1  15
ATOM      7  C   UNL     1      -0.023   1.369   0.005  0.00  0.00    +0.000 A 
ATOM      8  C   UNL     1       1.163   2.080  -0.010  0.00  0.00    +0.002 A 
ATOM      9  C   UNL     1       2.371   1.416  -0.023  0.00  0.00    +0.024 A 
ATOM     10  C   UNL     1       2.406   0.019  -0.020  0.00  0.00    +0.037 A 
ATOM     11  C   UNL     1       1.212  -0.684  -0.005  0.00  0.00    -0.025 A 
ATOM     12  C   UNL     1       0.004  -0.013   0.008  0.00  0.00    +0.005 A 
ATOM     13  C   UNL     1       1.525  -2.163  -0.005  0.00  0.00    +0.056 C 
ATOM     14  C   UNL     1       3.061  -2.233  -0.023  0.00  0.00    +0.116 C 
ATOM     15  N   UNL     1       3.508  -0.838  -0.031  0.00  0.00    -0.298 N 
ENDBRANCH   1  15
BRANCH   6  16
ATOM     16  N   UNL     1       4.819  -0.429  -2.471  0.00  0.00    -0.268 N 
ATOM     17  C   UNL     1       5.509  -0.721  -3.591  0.00  0.00    +0.304 C 
ATOM     18  O   UNL     1       6.710  -0.904  -3.535  0.00  0.00    -0.252 OA
ATOM     19  N   UNL     1       4.868  -0.809  -4.773  0.00  0.00    -0.292 N 
ATOM     20  H   UNL     1       3.852  -0.364  -2.500  0.00  0.00    +0.156 HD
ATOM     21  H   UNL     1       3.910  -0.663  -4.818  0.00  0.00    +0.151 HD
BRANCH  19  22
ATOM     22  C   UNL     1       5.619  -1.126  -5.991  0.00  0.00    +0.182 C 
BRANCH  22  23
ATOM     23  C   UNL     1       4.676  -1.165  -7.166  0.00  0.00    +0.151 A 
ATOM     24  N   UNL     1       4.023  -2.209  -7.601  0.00  0.00    -0.133 NA
ATOM     25  N   UNL     1       3.313  -1.881  -8.621  0.00  0.00    -0.134 NA
ATOM     26  C   UNL     1       3.482  -0.612  -8.884  0.00  0.00    +0.134 A 
ATOM     27  N   UNL     1       4.343  -0.121  -7.965  0.00  0.00    -0.313 N 
ATOM     28  C   UNL     1       4.583   1.312  -8.176  0.00  0.00    +0.125 C 
ATOM     29  C   UNL     1       4.100   1.605  -9.613  0.00  0.00    +0.029 C 
ATOM     30  C   UNL     1       3.060   0.487  -9.835  0.00  0.00    +0.078 C 
ENDBRANCH  22  23
ENDBRANCH  19  22
ENDBRANCH   6  16
TORSDOF 4
