REMARK  Name = ZINC12124480
REMARK  15 active torsions:
REMARK  status: ('A' for Active; 'I' for Inactive)
REMARK    1  A    between atoms: C_1  and  C_2
REMARK    2  A    between atoms: C_2  and  C_3
REMARK    3  A    between atoms: C_2  and  C_4
REMARK    4  A    between atoms: C_4  and  C_5
REMARK    5  A    between atoms: C_5  and  C_6
REMARK    6  A    between atoms: C_6  and  C_17
REMARK    7  A    between atoms: N_9  and  C_13
REMARK    8  A    between atoms: C_13  and  C_14
REMARK    9  A    between atoms: C_14  and  N_74
REMARK   10  A    between atoms: C_15  and  N_74
REMARK   11  A    between atoms: C_16  and  N_74
REMARK   12  A    between atoms: C_23  and  C_25
REMARK   13  A    between atoms: C_25  and  C_26
REMARK   14  A    between atoms: C_29  and  S_32
REMARK   15  A    between atoms: S_32  and  C_33
REMARK                            x       y       z     vdW  Elec       q    Type
REMARK                         _______ _______ _______ _____ _____    ______ ____
ROOT
ATOM      1  C   UNL     1       4.243   3.768  -2.236  0.00  0.00    +0.115 C 
ATOM      2  C   UNL     1       3.729   3.251  -3.565  0.00  0.00    +0.247 C 
ATOM      3  O   UNL     1       2.639   3.450  -4.056  0.00  0.00    -0.273 OA
ATOM      4  N   UNL     1       4.741   2.520  -4.083  0.00  0.00    -0.226 N 
ATOM      5  C   UNL     1       5.807   2.509  -3.275  0.00  0.00    +0.309 C 
ATOM      6  O   UNL     1       6.840   1.920  -3.528  0.00  0.00    -0.252 OA
ATOM      7  N   UNL     1       5.609   3.223  -2.152  0.00  0.00    -0.285 N 
ATOM      8  H   UNL     1       6.242   3.353  -1.429  0.00  0.00    +0.151 HD
ENDROOT
BRANCH   1   9
ATOM      9  C   UNL     1       3.382   3.243  -1.085  0.00  0.00    +0.024 C 
ATOM     10  C   UNL     1       3.267   1.721  -1.188  0.00  0.00    +0.025 C 
ATOM     11  C   UNL     1       2.433   1.195  -0.015  0.00  0.00    +0.108 C 
ATOM     12  N   UNL     1       1.143   1.898   0.001  0.00  0.00    -0.301 N 
ATOM     13  C   UNL     1       1.140   3.368   0.003  0.00  0.00    +0.108 C 
ATOM     14  C   UNL     1       1.988   3.869  -1.165  0.00  0.00    +0.025 C 
ATOM     15  C   UNL     1      -0.014   1.209   0.009  0.00  0.00    +0.220 C 
ATOM     16  O   UNL     1       0.002  -0.004   0.002  0.00  0.00    -0.275 OA
BRANCH  15  17
ATOM     17  C   UNL     1      -1.330   1.944   0.019  0.00  0.00    +0.131 C 
BRANCH  17  18
ATOM     18  C   UNL     1      -2.462   0.950   0.019  0.00  0.00    -0.039 A 
ATOM     19  C   UNL     1      -2.989   0.505  -1.180  0.00  0.00    +0.005 A 
ATOM     20  C   UNL     1      -4.023  -0.410  -1.184  0.00  0.00    +0.015 A 
ATOM     21  C   UNL     1      -4.541  -0.876   0.019  0.00  0.00    +0.008 A 
ATOM     22  C   UNL     1      -4.012  -0.423   1.221  0.00  0.00    +0.015 A 
ATOM     23  C   UNL     1      -2.974   0.488   1.218  0.00  0.00    +0.005 A 
BRANCH  21  24
ATOM     24  S   UNL     1      -5.865  -2.039   0.019  0.00  0.00    -0.129 S 
ATOM     25  C   UNL     1      -6.203  -2.318  -1.741  0.00  0.00    +0.090 C 
ENDBRANCH  21  24
ENDBRANCH  17  18
ENDBRANCH  15  17
ENDBRANCH   1   9
BRANCH   1  26
ATOM     26  C   UNL     1       4.273   5.298  -2.229  0.00  0.00    +0.036 C 
BRANCH  26  27
ATOM     27  C   UNL     1       5.139   5.796  -3.388  0.00  0.00    +0.005 C 
BRANCH  27  29
ATOM     28  C   UNL     1       6.133   7.822  -4.461  0.00  0.00    +0.007 C 
ATOM     29  C   UNL     1       5.169   7.326  -3.381  0.00  0.00    -0.017 C 
ATOM     30  C   UNL     1       3.765   7.865  -3.664  0.00  0.00    +0.007 C 
ENDBRANCH  27  29
ENDBRANCH  26  27
ENDBRANCH   1  26
BRANCH   4  31
ATOM     31  C   UNL     1       4.678   1.827  -5.372  0.00  0.00    +0.099 C 
BRANCH  31  32
ATOM     32  C   UNL     1       4.145   0.408  -5.162  0.00  0.00    -0.060 C 
BRANCH  32  35
ATOM     33  C   UNL     1       3.803  -1.718  -6.269  0.00  0.00    -0.097 C 
ATOM     34  C   UNL     1       3.085   0.333  -7.338  0.00  0.00    -0.097 C 
ATOM     35  N   UNL     1       4.107  -0.285  -6.467  0.00  0.00    +0.377 N 
ATOM     36  H   UNL     1       5.026  -0.198  -6.918  0.00  0.00    -0.083 HD
ENDBRANCH  32  35
ENDBRANCH  31  32
ENDBRANCH   4  31
TORSDOF 10
