REMARK  Name = ZINC35921839
REMARK  12 active torsions:
REMARK  status: ('A' for Active; 'I' for Inactive)
REMARK    1  A    between atoms: C_1  and  C_2
REMARK    2  A    between atoms: C_2  and  C_3
REMARK    3  A    between atoms: C_2  and  C_4
REMARK    4  A    between atoms: C_4  and  N_5
REMARK    5  A    between atoms: N_5  and  C_6
REMARK    6  A    between atoms: C_6  and  C_7
REMARK    7  A    between atoms: N_10  and  C_12
REMARK    8  A    between atoms: C_17  and  O_18
REMARK    9  A    between atoms: O_18  and  C_19
REMARK   10  A    between atoms: N_22  and  C_24
REMARK   11  A    between atoms: C_24  and  C_25
REMARK   12  A    between atoms: N_29  and  C_30
REMARK                            x       y       z     vdW  Elec       q    Type
REMARK                         _______ _______ _______ _____ _____    ______ ____
ROOT
ATOM      1  C   UNL     1       3.458  -1.768  -1.713  0.00  0.00    +0.082 A 
ATOM      2  C   UNL     1       2.913  -3.014  -2.005  0.00  0.00    -0.018 A 
ATOM      3  C   UNL     1       3.664  -3.580  -2.988  0.00  0.00    +0.045 A 
ATOM      4  N   UNL     1       4.644  -2.720  -3.307  0.00  0.00    -0.233 N 
ATOM      5  N   UNL     1       4.495  -1.584  -2.495  0.00  0.00    -0.169 NA
ATOM      6  C   UNL     1       3.373  -4.947  -3.558  0.00  0.00    +0.037 C 
ATOM      7  C   UNL     1       2.409  -5.656  -2.596  0.00  0.00    -0.072 C 
ATOM      8  N   UNL     1       1.278  -4.771  -2.286  0.00  0.00    +0.385 N 
ATOM      9  C   UNL     1       1.710  -3.685  -1.392  0.00  0.00    -0.039 C 
ATOM     10  H   UNL     1       0.918  -4.376  -3.142  0.00  0.00    -0.081 HD
ENDROOT
BRANCH   4  11
ATOM     11  C   UNL     1       5.635  -2.919  -4.279  0.00  0.00    +0.107 A 
ATOM     12  C   UNL     1       5.288  -3.372  -5.543  0.00  0.00    +0.031 A 
ATOM     13  C   UNL     1       6.266  -3.567  -6.500  0.00  0.00    +0.002 A 
ATOM     14  C   UNL     1       7.592  -3.311  -6.200  0.00  0.00    +0.004 A 
ATOM     15  C   UNL     1       7.945  -2.859  -4.943  0.00  0.00    +0.048 A 
ATOM     16  C   UNL     1       6.970  -2.656  -3.980  0.00  0.00    +0.145 A 
BRANCH  16  17
ATOM     17  O   UNL     1       7.315  -2.205  -2.744  0.00  0.00    -0.493 OA
ATOM     18  C   UNL     1       8.702  -1.957  -2.509  0.00  0.00    +0.277 C 
ENDBRANCH  16  17
ENDBRANCH   4  11
BRANCH   1  19
ATOM     19  C   UNL     1       2.944  -0.797  -0.682  0.00  0.00    +0.166 C 
BRANCH  19  20
ATOM     20  N   UNL     1       3.690  -0.969   0.567  0.00  0.00    -0.280 N 
ATOM     21  C   UNL     1       3.203  -1.765   1.539  0.00  0.00    +0.303 C 
ATOM     22  O   UNL     1       2.144  -2.341   1.379  0.00  0.00    -0.253 OA
ATOM     23  N   UNL     1       3.889  -1.924   2.687  0.00  0.00    -0.296 N 
ATOM     24  H   UNL     1       4.734  -1.465   2.815  0.00  0.00    +0.151 HD
BRANCH  23  25
ATOM     25  C   UNL     1       3.360  -2.789   3.744  0.00  0.00    +0.074 C 
ATOM     26  C   UNL     1       2.380  -1.996   4.611  0.00  0.00    +0.022 C 
ATOM     27  C   UNL     1       1.827  -2.900   5.714  0.00  0.00    +0.002 C 
ATOM     28  C   UNL     1       2.979  -3.408   6.582  0.00  0.00    +0.000 C 
ATOM     29  C   UNL     1       3.959  -4.202   5.716  0.00  0.00    +0.002 C 
ATOM     30  C   UNL     1       4.512  -3.298   4.612  0.00  0.00    +0.022 C 
ENDBRANCH  23  25
BRANCH  20  31
ATOM     31  C   UNL     1       4.966  -0.276   0.759  0.00  0.00    +0.112 C 
BRANCH  31  33
ATOM     32  C   UNL     1       4.066   1.078   2.656  0.00  0.00    +0.009 C 
ATOM     33  C   UNL     1       4.704   1.143   1.267  0.00  0.00    +0.000 C 
ATOM     34  C   UNL     1       6.027   1.908   1.349  0.00  0.00    +0.009 C 
ENDBRANCH  31  33
ENDBRANCH  20  31
ENDBRANCH  19  20
ENDBRANCH   1  19
BRANCH   8  35
ATOM     35  C   UNL     1       0.217  -5.549  -1.631  0.00  0.00    -0.051 C 
BRANCH  35  36
ATOM     36  C   UNL     1      -0.326  -6.571  -2.596  0.00  0.00    -0.053 C 
ATOM     37  C   UNL     1      -0.345  -7.838  -2.266  0.00  0.00    +0.002 C 
ENDBRANCH  35  36
ENDBRANCH   8  35
TORSDOF 9
