REMARK  Name = ZINC00818132
REMARK  7 active torsions:
REMARK  status: ('A' for Active; 'I' for Inactive)
REMARK    1  A    between atoms: C_1  and  C_2
REMARK    2  A    between atoms: C_2  and  O_3
REMARK    3  A    between atoms: O_3  and  C_4
REMARK    4  A    between atoms: C_8  and  C_11
REMARK    5  A    between atoms: C_9  and  O_10
REMARK    6  A    between atoms: C_15  and  C_26
REMARK    7  A    between atoms: C_23  and  C_25
REMARK                            x       y       z     vdW  Elec       q    Type
REMARK                         _______ _______ _______ _____ _____    ______ ____
ROOT
ATOM      1  C   UNL     1       2.274  -4.308   3.755  0.00  0.00    +0.226 C 
ATOM      2  N   UNL     1       2.780  -5.648   3.426  0.00  0.00    -0.318 N 
ATOM      3  C   UNL     1       1.938  -6.759   3.443  0.00  0.00    +0.041 A 
ATOM      4  C   UNL     1       2.157  -7.847   2.617  0.00  0.00    -0.029 A 
ATOM      5  C   UNL     1       1.306  -8.936   2.671  0.00  0.00    +0.005 A 
ATOM      6  C   UNL     1       0.233  -8.952   3.546  0.00  0.00    +0.001 A 
ATOM      7  C   UNL     1      -0.005  -7.872   4.376  0.00  0.00    +0.012 A 
ATOM      8  C   UNL     1       0.838  -6.774   4.325  0.00  0.00    +0.021 A 
ATOM      9  C   UNL     1       0.645  -5.568   5.152  0.00  0.00    +0.073 A 
ATOM     10  N   UNL     1       1.338  -4.409   4.876  0.00  0.00    -0.238 N 
ATOM     11  N   UNL     1       0.964  -3.461   5.820  0.00  0.00    -0.174 NA
ATOM     12  C   UNL     1       0.081  -4.003   6.627  0.00  0.00    +0.061 A 
ATOM     13  C   UNL     1      -0.139  -5.330   6.226  0.00  0.00    +0.052 A 
ATOM     14  C   UNL     1      -0.584  -3.314   7.791  0.00  0.00    +0.067 C 
ATOM     15  C   UNL     1       3.321  -7.846   1.660  0.00  0.00    +0.045 C 
ATOM     16  H   UNL     1       3.715  -5.762   3.194  0.00  0.00    +0.148 HD
ENDROOT
BRANCH   1  21
ATOM     17  C   UNL     1       0.802  -1.825   1.306  0.00  0.00    +0.162 A 
ATOM     18  C   UNL     1       0.261  -2.673   0.353  0.00  0.00    +0.049 A 
ATOM     19  C   UNL     1       0.372  -4.043   0.502  0.00  0.00    +0.004 A 
ATOM     20  C   UNL     1       1.024  -4.570   1.602  0.00  0.00    +0.011 A 
ATOM     21  C   UNL     1       1.566  -3.730   2.557  0.00  0.00    +0.040 A 
ATOM     22  C   UNL     1       1.462  -2.356   2.410  0.00  0.00    +0.165 A 
BRANCH  22  23
ATOM     23  O   UNL     1       2.000  -1.528   3.345  0.00  0.00    -0.503 OA
ATOM     24  H   UNL     1       1.395  -1.301   4.064  0.00  0.00    +0.292 HD
ENDBRANCH  22  23
BRANCH  17  25
ATOM     25  O   UNL     1       0.693  -0.477   1.160  0.00  0.00    -0.489 OA
BRANCH  25  27
ATOM     26  C   UNL     1      -0.019   1.526   0.010  0.00  0.00    +0.048 C 
ATOM     27  C   UNL     1       0.002  -0.004   0.002  0.00  0.00    +0.226 C 
ENDBRANCH  25  27
ENDBRANCH  17  25
ENDBRANCH   1  21
TORSDOF 4
