REMARK  Name = ZINC39287173
REMARK  9 active torsions:
REMARK  status: ('A' for Active; 'I' for Inactive)
REMARK    1  A    between atoms: C_4  and  C_7
REMARK    2  A    between atoms: C_7  and  N_8
REMARK    3  A    between atoms: N_8  and  C_9
REMARK    4  A    between atoms: C_16  and  N_18
REMARK    5  A    between atoms: N_18  and  C_19
REMARK    6  A    between atoms: N_18  and  C_26
REMARK    7  A    between atoms: C_19  and  C_20
REMARK    8  A    between atoms: C_26  and  N_28
REMARK    9  A    between atoms: N_28  and  C_29
REMARK                            x       y       z     vdW  Elec       q    Type
REMARK                         _______ _______ _______ _____ _____    ______ ____
ROOT
ATOM      1  N   UNL     1       5.217  -3.357   3.063  0.00  0.00    -0.305 N 
ENDROOT
BRANCH   1   8
ATOM      2  C   UNL     1       5.435  -1.670   1.325  0.00  0.00    -0.028 C 
ATOM      3  C   UNL     1       6.528  -0.755   0.706  0.00  0.00    +0.152 C 
ATOM      4  S   UNL     1       8.037  -1.583   1.373  0.00  0.00    -0.031 S 
ATOM      5  O   UNL     1       9.037  -0.604   1.619  0.00  0.00    -0.174 OA
ATOM      6  O   UNL     1       8.344  -2.715   0.570  0.00  0.00    -0.174 OA
ATOM      7  C   UNL     1       7.338  -2.151   2.979  0.00  0.00    +0.186 C 
ATOM      8  C   UNL     1       5.817  -2.057   2.753  0.00  0.00    +0.084 C 
BRANCH   2   9
ATOM      9  N   UNL     1       4.153  -0.953   1.342  0.00  0.00    +0.386 N 
ATOM     10  H   UNL     1       4.267  -0.072   1.821  0.00  0.00    -0.085 HD
ATOM     11  H   UNL     1       3.462  -1.510   1.822  0.00  0.00    -0.085 HD
BRANCH   9  12
ATOM     12  C   UNL     1       3.711  -0.707  -0.038  0.00  0.00    -0.046 C 
BRANCH  12  16
ATOM     13  C   UNL     1      -0.017   1.378   0.010  0.00  0.00    +0.000 A 
ATOM     14  C   UNL     1       1.171   2.086   0.002  0.00  0.00    +0.000 A 
ATOM     15  C   UNL     1       2.377   1.411  -0.013  0.00  0.00    +0.002 A 
ATOM     16  C   UNL     1       2.396   0.029  -0.020  0.00  0.00    -0.064 A 
ATOM     17  C   UNL     1       1.208  -0.679  -0.012  0.00  0.00    +0.002 A 
ATOM     18  C   UNL     1       0.002  -0.004   0.002  0.00  0.00    +0.000 A 
ENDBRANCH  12  16
ENDBRANCH   9  12
ENDBRANCH   2   9
ENDBRANCH   1   8
BRANCH   1  19
ATOM     19  C   UNL     1       5.534  -4.439   2.324  0.00  0.00    +0.134 C 
ATOM     20  S   UNL     1       6.638  -4.294   1.024  0.00  0.00    -0.019 S 
BRANCH  19  21
ATOM     21  N   UNL     1       4.982  -5.635   2.610  0.00  0.00    -0.322 N 
ATOM     22  H   UNL     1       4.357  -5.718   3.347  0.00  0.00    +0.148 HD
BRANCH  21  23
ATOM     23  C   UNL     1       5.327  -6.811   1.807  0.00  0.00    +0.094 C 
ATOM     24  C   UNL     1       4.411  -6.886   0.575  0.00  0.00    +0.046 C 
ATOM     25  C   UNL     1       4.544  -8.273  -0.099  0.00  0.00    +0.168 C 
ATOM     26  S   UNL     1       5.005  -9.363   1.308  0.00  0.00    -0.029 S 
ATOM     27  O   UNL     1       3.922 -10.241   1.587  0.00  0.00    -0.174 OA
ATOM     28  O   UNL     1       6.298  -9.901   1.072  0.00  0.00    -0.174 OA
ATOM     29  C   UNL     1       5.113  -8.102   2.648  0.00  0.00    +0.188 C 
ENDBRANCH  21  23
ENDBRANCH  19  21
ENDBRANCH   1  19
BRANCH   1  30
ATOM     30  C   UNL     1       4.272  -3.481   4.176  0.00  0.00    +0.142 C 
BRANCH  30  31
ATOM     31  C   UNL     1       2.872  -3.238   3.676  0.00  0.00    -0.030 A 
ATOM     32  C   UNL     1       2.352  -1.957   3.674  0.00  0.00    +0.005 A 
ATOM     33  C   UNL     1       1.067  -1.733   3.215  0.00  0.00    +0.000 A 
ATOM     34  C   UNL     1       0.303  -2.791   2.758  0.00  0.00    +0.000 A 
ATOM     35  C   UNL     1       0.823  -4.071   2.759  0.00  0.00    +0.000 A 
ATOM     36  C   UNL     1       2.109  -4.294   3.214  0.00  0.00    +0.005 A 
ENDBRANCH  30  31
ENDBRANCH   1  30
TORSDOF 9
