REMARK  Name = ZINC35852031
REMARK  3 active torsions:
REMARK  status: ('A' for Active; 'I' for Inactive)
REMARK    1  A    between atoms: C_1  and  C_2
REMARK    2  A    between atoms: C_2  and  C_3
REMARK    3  A    between atoms: N_22  and  C_25
REMARK                            x       y       z     vdW  Elec       q    Type
REMARK                         _______ _______ _______ _____ _____    ______ ____
ROOT
ATOM      1  C   UNL     1      -1.248  -0.829   0.050  0.00  0.00    -0.047 A 
ATOM      2  C   UNL     1      -1.732  -1.314   1.251  0.00  0.00    +0.005 A 
ATOM      3  C   UNL     1      -2.957  -1.946   1.304  0.00  0.00    +0.024 A 
ATOM      4  C   UNL     1      -3.716  -2.101   0.146  0.00  0.00    +0.036 A 
ATOM      5  C   UNL     1      -3.219  -1.609  -1.057  0.00  0.00    -0.027 A 
ATOM      6  C   UNL     1      -1.998  -0.973  -1.104  0.00  0.00    +0.008 A 
ATOM      7  C   UNL     1      -4.257  -1.931  -2.095  0.00  0.00    +0.053 C 
ATOM      8  C   UNL     1      -3.686  -2.820  -3.204  0.00  0.00    +0.089 C 
ATOM      9  C   UNL     1      -3.372  -1.843  -4.370  0.00  0.00    +0.074 C 
ATOM     10  C   UNL     1      -3.769  -0.450  -3.849  0.00  0.00    -0.054 C 
ATOM     11  N   UNL     1      -4.760  -0.714  -2.754  0.00  0.00    +0.395 N 
ATOM     12  C   UNL     1      -6.032  -1.026  -3.448  0.00  0.00    -0.076 C 
ATOM     13  C   UNL     1      -6.067  -0.085  -4.669  0.00  0.00    -0.020 C 
ATOM     14  C   UNL     1      -4.559   0.295  -4.940  0.00  0.00    -0.016 C 
ATOM     15  C   UNL     1      -4.328  -2.278  -5.457  0.00  0.00    +0.228 C 
ATOM     16  O   UNL     1      -4.419  -1.772  -6.555  0.00  0.00    -0.275 OA
ATOM     17  N   UNL     1      -5.058  -3.311  -5.020  0.00  0.00    -0.210 N 
ATOM     18  C   UNL     1      -4.776  -3.709  -3.759  0.00  0.00    +0.229 C 
ATOM     19  O   UNL     1      -5.305  -4.623  -3.163  0.00  0.00    -0.275 OA
ATOM     20  C   UNL     1      -5.354  -2.636  -1.342  0.00  0.00    +0.212 C 
ATOM     21  O   UNL     1      -6.388  -3.069  -1.805  0.00  0.00    -0.277 OA
ATOM     22  N   UNL     1      -4.964  -2.695  -0.054  0.00  0.00    -0.286 N 
ATOM     23  H   UNL     1      -5.489  -3.102   0.652  0.00  0.00    +0.155 HD
ATOM     24  H   UNL     1      -4.841   0.064  -2.116  0.00  0.00    -0.079 HD
ENDROOT
BRANCH  17  25
ATOM     25  C   UNL     1      -6.036  -3.935  -5.807  0.00  0.00    +0.044 A 
ATOM     26  C   UNL     1      -5.651  -4.662  -6.939  0.00  0.00    +0.024 A 
ATOM     27  C   UNL     1      -6.575  -5.278  -7.721  0.00  0.00    +0.010 A 
ATOM     28  C   UNL     1      -7.939  -5.188  -7.392  0.00  0.00    -0.018 A 
ATOM     29  C   UNL     1      -8.921  -5.814  -8.179  0.00  0.00    +0.008 A 
ATOM     30  C   UNL     1     -10.233  -5.706  -7.831  0.00  0.00    +0.001 A 
ATOM     31  C   UNL     1     -10.620  -4.984  -6.704  0.00  0.00    +0.001 A 
ATOM     32  C   UNL     1      -9.697  -4.364  -5.918  0.00  0.00    +0.008 A 
ATOM     33  C   UNL     1      -8.333  -4.453  -6.246  0.00  0.00    -0.016 A 
ATOM     34  C   UNL     1      -7.352  -3.832  -5.455  0.00  0.00    +0.032 A 
ENDBRANCH  17  25
BRANCH   1  36
ATOM     35  C   UNL     1      -0.098   1.360   0.241  0.00  0.00    +0.009 C 
ATOM     36  C   UNL     1       0.091  -0.139  -0.001  0.00  0.00    +0.032 C 
ENDBRANCH   1  36
TORSDOF 2
