REMARK  Name = ZINC02431874
REMARK  2 active torsions:
REMARK  status: ('A' for Active; 'I' for Inactive)
REMARK    1  A    between atoms: C_3  and  C_9
REMARK    2  A    between atoms: C_12  and  C_19
REMARK                            x       y       z     vdW  Elec       q    Type
REMARK                         _______ _______ _______ _____ _____    ______ ____
ROOT
ATOM      1  C   UNL     1       3.671   2.186  -0.023  0.00  0.00    +0.148 C 
ATOM      2  C   UNL     1       3.751   3.078   1.222  0.00  0.00    +0.088 C 
ATOM      3  C   UNL     1       2.889   4.299   1.068  0.00  0.00    +0.055 C 
ATOM      4  N   UNL     1       2.701   4.888  -0.083  0.00  0.00    -0.215 NA
ATOM      5  C   UNL     1       3.249   4.334  -1.198  0.00  0.00    +0.249 A 
ATOM      6  N   UNL     1       3.723   3.049  -1.202  0.00  0.00    -0.222 N 
ATOM      7  N   UNL     1       4.210   2.808  -2.483  0.00  0.00    -0.156 NA
ATOM      8  C   UNL     1       4.003   3.901  -3.179  0.00  0.00    +0.247 A 
ATOM      9  N   UNL     1       3.417   4.818  -2.403  0.00  0.00    -0.198 NA
ENDROOT
BRANCH   1  12
ATOM     10  C   UNL     1      -0.017   1.378   0.010  0.00  0.00    +0.002 A 
ATOM     11  C   UNL     1       1.171   2.086   0.002  0.00  0.00    +0.007 A 
ATOM     12  C   UNL     1       2.378   1.413  -0.013  0.00  0.00    -0.003 A 
ATOM     13  C   UNL     1       2.398   0.030  -0.021  0.00  0.00    +0.064 A 
ATOM     14  C   UNL     1       1.209  -0.679  -0.013  0.00  0.00    +0.060 A 
ATOM     15  C   UNL     1       0.002  -0.004   0.002  0.00  0.00    +0.021 A 
ATOM     16 CL   UNL     1       1.234  -2.415  -0.023  0.00  0.00    -0.082 Cl
ATOM     17 CL   UNL     1       3.914  -0.816  -0.041  0.00  0.00    -0.082 Cl
ENDBRANCH   1  12
BRANCH   3  18
ATOM     18  C   UNL     1       2.228   4.853   2.260  0.00  0.00    -0.003 A 
ATOM     19  C   UNL     1       2.412   4.249   3.509  0.00  0.00    +0.011 A 
ATOM     20  C   UNL     1       1.790   4.774   4.622  0.00  0.00    +0.016 A 
ATOM     21  C   UNL     1       0.985   5.895   4.506  0.00  0.00    +0.018 A 
ATOM     22  C   UNL     1       0.798   6.497   3.273  0.00  0.00    +0.016 A 
ATOM     23  C   UNL     1       1.419   5.988   2.152  0.00  0.00    +0.011 A 
ATOM     24 BR   UNL     1       0.137   6.606   6.039  0.00  0.00    -0.050 Br
ENDBRANCH   3  18
TORSDOF 2
