REMARK  Name = ZINC59170737
REMARK  11 active torsions:
REMARK  status: ('A' for Active; 'I' for Inactive)
REMARK    1  A    between atoms: C_1  and  C_2
REMARK    2  A    between atoms: C_2  and  O_3
REMARK    3  A    between atoms: O_3  and  C_4
REMARK    4  A    between atoms: N_12  and  N_13
REMARK    5  A    between atoms: N_13  and  S_14
REMARK    6  A    between atoms: S_14  and  C_17
REMARK    7  A    between atoms: C_20  and  C_23
REMARK    8  A    between atoms: C_24  and  C_26
REMARK    9  A    between atoms: N_28  and  C_29
REMARK   10  A    between atoms: C_34  and  O_35
REMARK   11  A    between atoms: O_35  and  C_36
REMARK                            x       y       z     vdW  Elec       q    Type
REMARK                         _______ _______ _______ _____ _____    ______ ____
ROOT
ATOM      1  C   UNL     1       1.309  -2.525   1.203  0.00  0.00    +0.163 A 
ATOM      2  C   UNL     1       0.491  -3.464   0.593  0.00  0.00    +0.049 A 
ATOM      3  C   UNL     1       0.369  -4.739   1.121  0.00  0.00    +0.004 A 
ATOM      4  C   UNL     1       1.060  -5.091   2.260  0.00  0.00    +0.012 A 
ATOM      5  C   UNL     1       1.888  -4.155   2.888  0.00  0.00    +0.022 A 
ATOM      6  C   UNL     1       2.017  -2.864   2.348  0.00  0.00    +0.179 A 
ATOM      7  O   UNL     1       2.831  -1.959   2.951  0.00  0.00    -0.434 OA
ATOM      8  C   UNL     1       3.036  -2.113   4.292  0.00  0.00    +0.225 A 
ATOM      9  N   UNL     1       3.071  -1.083   5.089  0.00  0.00    -0.260 N 
ATOM     10  C   UNL     1       3.216  -3.488   4.812  0.00  0.00    +0.099 A 
ATOM     11  C   UNL     1       2.630  -4.507   4.105  0.00  0.00    +0.030 A 
ATOM     12  H   UNL     1       3.071  -0.185   4.722  0.00  0.00    +0.189 HD
ENDROOT
BRANCH  10  13
ATOM     13  C   UNL     1       3.982  -3.749   6.042  0.00  0.00    +0.253 C 
ATOM     14  O   UNL     1       5.176  -3.513   6.077  0.00  0.00    -0.270 OA
ATOM     15  N   UNL     1       3.362  -4.248   7.129  0.00  0.00    -0.278 N 
ATOM     16  H   UNL     1       2.410  -4.429   7.104  0.00  0.00    +0.155 HD
BRANCH  15  17
ATOM     17  C   UNL     1       4.093  -4.505   8.296  0.00  0.00    +0.076 A 
ATOM     18  C   UNL     1       5.253  -3.792   8.562  0.00  0.00    +0.027 A 
ATOM     19  C   UNL     1       5.972  -4.047   9.714  0.00  0.00    +0.002 A 
ATOM     20  C   UNL     1       5.539  -5.014  10.603  0.00  0.00    +0.004 A 
ATOM     21  C   UNL     1       4.385  -5.729  10.345  0.00  0.00    +0.047 A 
ATOM     22  C   UNL     1       3.655  -5.475   9.195  0.00  0.00    +0.141 A 
BRANCH  22  23
ATOM     23  O   UNL     1       2.517  -6.174   8.942  0.00  0.00    -0.493 OA
ATOM     24  C   UNL     1       2.128  -7.153   9.908  0.00  0.00    +0.277 C 
ENDBRANCH  22  23
ENDBRANCH  15  17
ENDBRANCH  10  13
BRANCH   9  25
ATOM     25  N   UNL     1       3.107  -1.272   6.477  0.00  0.00    -0.157 N 
ATOM     26  H   UNL     1       3.025  -2.164   6.847  0.00  0.00    +0.194 HD
BRANCH  25  27
ATOM     27  S   UNL     1       3.291   0.029   7.485  0.00  0.00    +0.085 S 
ATOM     28  O   UNL     1       3.145  -0.461   8.811  0.00  0.00    -0.149 OA
ATOM     29  O   UNL     1       4.455   0.718   7.051  0.00  0.00    -0.149 OA
BRANCH  27  30
ATOM     30  C   UNL     1       1.929   1.109   7.196  0.00  0.00    +0.110 A 
ATOM     31  C   UNL     1       2.022   2.096   6.232  0.00  0.00    +0.029 A 
ATOM     32  C   UNL     1       0.954   2.943   6.005  0.00  0.00    +0.005 A 
ATOM     33  C   UNL     1      -0.208   2.803   6.740  0.00  0.00    -0.050 A 
ATOM     34  C   UNL     1      -0.302   1.816   7.703  0.00  0.00    +0.005 A 
ATOM     35  C   UNL     1       0.765   0.966   7.928  0.00  0.00    +0.029 A 
ATOM     36  C   UNL     1      -1.372   3.728   6.493  0.00  0.00    +0.044 C 
ENDBRANCH  27  30
ENDBRANCH  25  27
ENDBRANCH   9  25
BRANCH   1  37
ATOM     37  O   UNL     1       1.422  -1.276   0.677  0.00  0.00    -0.489 OA
BRANCH  37  39
ATOM     38  C   UNL     1       0.918   0.446  -0.943  0.00  0.00    +0.048 C 
ATOM     39  C   UNL     1       0.664  -0.997  -0.502  0.00  0.00    +0.226 C 
ENDBRANCH  37  39
ENDBRANCH   1  37
TORSDOF 8
