REMARK  Name = ZINC13555555
REMARK  4 active torsions:
REMARK  status: ('A' for Active; 'I' for Inactive)
REMARK    1  A    between atoms: C_1  and  C_2
REMARK    2  A    between atoms: C_4  and  C_39
REMARK    3  A    between atoms: C_22  and  C_30
REMARK    4  A    between atoms: C_30  and  C_32
REMARK                            x       y       z     vdW  Elec       q    Type
REMARK                         _______ _______ _______ _____ _____    ______ ____
ROOT
ATOM      1  C   UNL     1      -0.164   1.542   0.074  0.00  0.00    +0.044 C 
ATOM      2  C   UNL     1      -0.210   0.036   0.066  0.00  0.00    -0.050 A 
ATOM      3  C   UNL     1      -0.324  -0.647  -1.131  0.00  0.00    +0.008 A 
ATOM      4  C   UNL     1      -0.367  -2.026  -1.145  0.00  0.00    -0.029 A 
ATOM      5  C   UNL     1      -0.296  -2.741   0.048  0.00  0.00    +0.042 A 
ATOM      6  C   UNL     1      -0.181  -2.043   1.246  0.00  0.00    +0.005 A 
ATOM      7  C   UNL     1      -0.133  -0.667   1.255  0.00  0.00    +0.011 A 
ATOM      8  C   UNL     1      -0.128  -3.085   2.331  0.00  0.00    +0.145 C 
ATOM      9  C   UNL     1      -0.227  -4.402   1.603  0.00  0.00    +0.244 C 
ATOM     10  O   UNL     1      -0.223  -5.506   2.104  0.00  0.00    -0.273 OA
ATOM     11  N   UNL     1      -0.319  -4.116   0.291  0.00  0.00    -0.283 N 
ATOM     12  C   UNL     1       1.165  -2.990   3.132  0.00  0.00    +0.116 C 
ATOM     13  C   UNL     1       1.996  -4.236   3.011  0.00  0.00    -0.008 A 
ATOM     14  C   UNL     1       1.761  -5.562   3.297  0.00  0.00    +0.006 A 
ATOM     15  C   UNL     1       2.749  -6.505   3.073  0.00  0.00    +0.000 A 
ATOM     16  C   UNL     1       3.972  -6.111   2.560  0.00  0.00    +0.002 A 
ATOM     17  C   UNL     1       4.211  -4.783   2.272  0.00  0.00    +0.023 A 
ATOM     18  C   UNL     1       3.222  -3.828   2.495  0.00  0.00    +0.038 A 
ATOM     19  N   UNL     1       3.223  -2.447   2.287  0.00  0.00    -0.284 N 
ATOM     20  C   UNL     1       2.052  -1.880   2.635  0.00  0.00    +0.231 C 
ATOM     21  O   UNL     1       1.767  -0.703   2.561  0.00  0.00    -0.274 OA
ATOM     22  C   UNL     1       0.739  -2.745   4.589  0.00  0.00    +0.099 C 
ATOM     23  C   UNL     1      -0.694  -2.177   4.442  0.00  0.00    +0.070 C 
ATOM     24  N   UNL     1      -1.251  -2.922   3.271  0.00  0.00    -0.281 NA
ATOM     25  C   UNL     1      -1.638  -4.245   3.817  0.00  0.00    +0.086 C 
ATOM     26  C   UNL     1      -2.178  -3.962   5.233  0.00  0.00    +0.017 C 
ATOM     27  C   UNL     1      -1.535  -2.609   5.654  0.00  0.00    +0.021 C 
ATOM     28  C   UNL     1      -0.492  -2.760  -2.455  0.00  0.00    +0.045 C 
ATOM     29  H   UNL     1      -0.393  -4.787  -0.405  0.00  0.00    +0.155 HD
ATOM     30  H   UNL     1       3.979  -1.954   1.933  0.00  0.00    +0.155 HD
ENDROOT
BRANCH  22  31
ATOM     31  C   UNL     1       0.727  -4.036   5.366  0.00  0.00    +0.169 C 
ATOM     32  O   UNL     1      -0.282  -4.707   5.412  0.00  0.00    -0.292 OA
BRANCH  31  33
ATOM     33  C   UNL     1       1.939  -4.484   6.067  0.00  0.00    +0.018 A 
ATOM     34  C   UNL     1       3.104  -3.709   6.021  0.00  0.00    +0.014 A 
ATOM     35  C   UNL     1       4.236  -4.134   6.680  0.00  0.00    +0.039 A 
ATOM     36  C   UNL     1       4.224  -5.327   7.389  0.00  0.00    +0.123 A 
ATOM     37  C   UNL     1       3.072  -6.099   7.439  0.00  0.00    +0.039 A 
ATOM     38  C   UNL     1       1.931  -5.683   6.789  0.00  0.00    +0.014 A 
ATOM     39  F   UNL     1       5.338  -5.738   8.032  0.00  0.00    -0.205 F 
ENDBRANCH  31  33
ENDBRANCH  22  31
TORSDOF 2
