REMARK  Name = ZINC39636124
REMARK  8 active torsions:
REMARK  status: ('A' for Active; 'I' for Inactive)
REMARK    1  A    between atoms: C_1  and  C_2
REMARK    2  A    between atoms: C_8  and  N_10
REMARK    3  A    between atoms: C_11  and  C_13
REMARK    4  A    between atoms: C_24  and  C_26
REMARK    5  A    between atoms: C_26  and  C_27
REMARK    6  A    between atoms: C_27  and  C_28
REMARK    7  A    between atoms: C_31  and  O_34
REMARK    8  A    between atoms: O_34  and  C_35
REMARK                            x       y       z     vdW  Elec       q    Type
REMARK                         _______ _______ _______ _____ _____    ______ ____
ROOT
ATOM      1  C   UNL     1       4.209   0.649   2.377  0.00  0.00    +0.100 C 
ATOM      2  C   UNL     1       5.154  -0.371   1.704  0.00  0.00    +0.121 C 
ATOM      3  N   UNL     1       6.408  -0.294   2.489  0.00  0.00    -0.300 N 
ATOM      4  C   UNL     1       5.957  -0.151   3.894  0.00  0.00    +0.115 C 
ATOM      5  C   UNL     1       4.739   0.790   3.814  0.00  0.00    -0.004 C 
ATOM      6  C   UNL     1       3.672   0.358   4.816  0.00  0.00    -0.010 C 
ATOM      7  C   UNL     1       4.200   0.562   6.238  0.00  0.00    -0.082 C 
ATOM      8  N   UNL     1       4.542   1.975   6.437  0.00  0.00    +0.379 N 
ATOM      9  C   UNL     1       5.634   2.358   5.534  0.00  0.00    -0.082 C 
ATOM     10  C   UNL     1       5.166   2.230   4.081  0.00  0.00    -0.010 C 
ATOM     11  C   UNL     1       7.675  -0.341   2.029  0.00  0.00    +0.216 C 
ATOM     12  O   UNL     1       8.604  -0.265   2.804  0.00  0.00    -0.276 OA
ATOM     13  H   UNL     1       3.733   2.546   6.245  0.00  0.00    -0.086 HD
ATOM     14  H   UNL     1       4.832   2.119   7.393  0.00  0.00    -0.086 HD
ENDROOT
BRANCH   1  16
ATOM     15  N   UNL     1       1.759   0.989   2.358  0.00  0.00    -0.312 N 
ATOM     16  C   UNL     1       2.795   0.128   2.388  0.00  0.00    +0.218 C 
ATOM     17  O   UNL     1       2.590  -1.067   2.424  0.00  0.00    -0.275 OA
ATOM     18  H   UNL     1       1.923   1.945   2.330  0.00  0.00    +0.149 HD
BRANCH  15  25
ATOM     19  C   UNL     1      -0.119   1.888   4.372  0.00  0.00    +0.009 C 
ATOM     20  C   UNL     1      -0.549   1.550   2.943  0.00  0.00    +0.006 C 
ATOM     21  C   UNL     1      -1.984   1.020   2.954  0.00  0.00    +0.005 C 
ATOM     22  C   UNL     1      -2.414   0.682   1.525  0.00  0.00    +0.000 C 
ATOM     23  C   UNL     1      -1.481  -0.386   0.951  0.00  0.00    +0.002 C 
ATOM     24  C   UNL     1      -0.045   0.144   0.940  0.00  0.00    +0.022 C 
ATOM     25  C   UNL     1       0.384   0.482   2.369  0.00  0.00    +0.076 C 
ENDBRANCH  15  25
ENDBRANCH   1  16
BRANCH  11  26
ATOM     26  C   UNL     1       7.935  -0.490   0.552  0.00  0.00    +0.100 C 
BRANCH  26  27
ATOM     27  C   UNL     1       9.444  -0.517   0.301  0.00  0.00    +0.044 C 
BRANCH  27  28
ATOM     28  C   UNL     1       9.704  -0.665  -1.176  0.00  0.00    -0.047 A 
ATOM     29  C   UNL     1       9.816  -1.925  -1.734  0.00  0.00    +0.007 A 
ATOM     30  C   UNL     1      10.055  -2.064  -3.088  0.00  0.00    +0.046 A 
ATOM     31  C   UNL     1      10.182  -0.937  -3.887  0.00  0.00    +0.120 A 
ATOM     32  C   UNL     1      10.069   0.326  -3.325  0.00  0.00    +0.046 A 
ATOM     33  C   UNL     1       9.825   0.459  -1.972  0.00  0.00    +0.007 A 
BRANCH  31  34
ATOM     34  O   UNL     1      10.418  -1.071  -5.219  0.00  0.00    -0.495 OA
ATOM     35  C   UNL     1      10.537   0.132  -5.981  0.00  0.00    +0.277 C 
ENDBRANCH  31  34
ENDBRANCH  27  28
ENDBRANCH  26  27
ENDBRANCH  11  26
TORSDOF 6
