REMARK  Name = ZINC40839503
REMARK  8 active torsions:
REMARK  status: ('A' for Active; 'I' for Inactive)
REMARK    1  A    between atoms: C_1  and  C_2
REMARK    2  A    between atoms: C_2  and  C_4
REMARK    3  A    between atoms: C_2  and  N_12
REMARK    4  A    between atoms: C_4  and  C_5
REMARK    5  A    between atoms: C_5  and  C_6
REMARK    6  A    between atoms: C_13  and  C_15
REMARK    7  A    between atoms: C_15  and  C_16
REMARK    8  A    between atoms: C_16  and  N_17
REMARK                            x       y       z     vdW  Elec       q    Type
REMARK                         _______ _______ _______ _____ _____    ______ ____
ROOT
ATOM      1  N   UNL     1       5.380  -1.559   3.165  0.00  0.00    -0.303 N 
ATOM      2  C   UNL     1       5.438  -0.726   4.268  0.00  0.00    +0.070 A 
ATOM      3  C   UNL     1       5.186   0.635   4.131  0.00  0.00    +0.028 A 
ATOM      4  C   UNL     1       5.245   1.458   5.235  0.00  0.00    +0.002 A 
ATOM      5  C   UNL     1       5.554   0.939   6.484  0.00  0.00    +0.002 A 
ATOM      6  C   UNL     1       5.804  -0.394   6.641  0.00  0.00    +0.030 A 
ATOM      7  C   UNL     1       5.750  -1.252   5.534  0.00  0.00    +0.090 A 
ATOM      8  N   UNL     1       5.997  -2.570   5.689  0.00  0.00    -0.225 NA
ATOM      9  C   UNL     1       5.952  -3.389   4.670  0.00  0.00    +0.188 A 
ATOM     10  C   UNL     1       5.623  -2.878   3.326  0.00  0.00    +0.292 A 
ATOM     11  O   UNL     1       5.574  -3.635   2.373  0.00  0.00    -0.264 OA
ATOM     12  N   UNL     1       6.210  -4.736   4.854  0.00  0.00    -0.309 N 
ATOM     13  C   UNL     1       5.679  -5.710   3.899  0.00  0.00    +0.117 C 
ATOM     14  C   UNL     1       6.839  -6.378   3.152  0.00  0.00    +0.088 C 
ATOM     15  S   UNL     1       7.951  -7.143   4.370  0.00  0.00    -0.158 S 
ATOM     16  C   UNL     1       8.329  -5.772   5.503  0.00  0.00    +0.088 C 
ATOM     17  C   UNL     1       7.015  -5.168   5.997  0.00  0.00    +0.117 C 
ENDROOT
BRANCH   1  18
ATOM     18  C   UNL     1       5.054  -1.019   1.843  0.00  0.00    +0.135 C 
BRANCH  18  19
ATOM     19  C   UNL     1       3.539  -1.058   1.635  0.00  0.00    +0.117 C 
BRANCH  19  21
ATOM     20  N   UNL     1       1.920  -0.438  -0.129  0.00  0.00    -0.313 N 
ATOM     21  C   UNL     1       3.204  -0.503   0.275  0.00  0.00    +0.215 C 
ATOM     22  O   UNL     1       4.090  -0.114  -0.457  0.00  0.00    -0.276 OA
ATOM     23  H   UNL     1       1.211  -0.749   0.456  0.00  0.00    +0.149 HD
BRANCH  20  25
ATOM     24  C   UNL     1       1.491   1.626  -1.369  0.00  0.00    +0.028 C 
ATOM     25  C   UNL     1       1.594   0.102  -1.452  0.00  0.00    +0.070 C 
BRANCH  25  26
ATOM     26  C   UNL     1       0.257  -0.475  -1.923  0.00  0.00    +0.026 C 
BRANCH  26  27
ATOM     27  C   UNL     1       0.396  -1.985  -2.125  0.00  0.00    +0.037 C 
BRANCH  27  28
ATOM     28  C   UNL     1      -0.920  -2.553  -2.589  0.00  0.00    -0.047 A 
ATOM     29  C   UNL     1      -1.849  -2.990  -1.664  0.00  0.00    +0.003 A 
ATOM     30  C   UNL     1      -3.057  -3.511  -2.090  0.00  0.00    +0.000 A 
ATOM     31  C   UNL     1      -3.336  -3.594  -3.441  0.00  0.00    +0.000 A 
ATOM     32  C   UNL     1      -2.407  -3.156  -4.367  0.00  0.00    +0.000 A 
ATOM     33  C   UNL     1      -1.201  -2.631  -3.941  0.00  0.00    +0.003 A 
ENDBRANCH  27  28
ENDBRANCH  26  27
ENDBRANCH  25  26
ENDBRANCH  20  25
ENDBRANCH  19  21
ENDBRANCH  18  19
ENDBRANCH   1  18
TORSDOF 7
