REMARK  Name = ZINC55042409
REMARK  11 active torsions:
REMARK  status: ('A' for Active; 'I' for Inactive)
REMARK    1  A    between atoms: C_1  and  C_2
REMARK    2  A    between atoms: C_2  and  C_3
REMARK    3  A    between atoms: C_3  and  C_4
REMARK    4  A    between atoms: C_4  and  C_20
REMARK    5  A    between atoms: N_7  and  C_11
REMARK    6  A    between atoms: C_11  and  C_12
REMARK    7  A    between atoms: C_12  and  C_13
REMARK    8  A    between atoms: N_18  and  C_19
REMARK    9  A    between atoms: N_23  and  C_26
REMARK   10  A    between atoms: C_26  and  C_27
REMARK   11  A    between atoms: C_28  and  C_29
REMARK                            x       y       z     vdW  Elec       q    Type
REMARK                         _______ _______ _______ _____ _____    ______ ____
ROOT
ATOM      1  C   UNL     1      -2.143  -1.510  -2.127  0.00  0.00    +0.115 C 
ATOM      2  C   UNL     1      -1.276  -1.363  -0.893  0.00  0.00    +0.247 C 
ATOM      3  O   UNL     1      -1.579  -0.837   0.157  0.00  0.00    -0.273 OA
ATOM      4  N   UNL     1      -0.098  -1.940  -1.204  0.00  0.00    -0.224 N 
ATOM      5  C   UNL     1      -0.101  -2.425  -2.451  0.00  0.00    +0.309 C 
ATOM      6  O   UNL     1       0.848  -2.990  -2.958  0.00  0.00    -0.252 OA
ATOM      7  N   UNL     1      -1.272  -2.219  -3.080  0.00  0.00    -0.285 N 
ATOM      8  H   UNL     1      -1.498  -2.485  -3.985  0.00  0.00    +0.151 HD
ENDROOT
BRANCH   1   9
ATOM      9  C   UNL     1      -3.390  -2.341  -1.817  0.00  0.00    +0.024 C 
ATOM     10  C   UNL     1      -4.299  -1.563  -0.862  0.00  0.00    +0.021 C 
ATOM     11  C   UNL     1      -5.514  -2.424  -0.508  0.00  0.00    +0.085 C 
ATOM     12  N   UNL     1      -5.065  -3.671   0.123  0.00  0.00    -0.297 NA
ATOM     13  C   UNL     1      -4.229  -4.458  -0.793  0.00  0.00    +0.085 C 
ATOM     14  C   UNL     1      -2.976  -3.658  -1.156  0.00  0.00    +0.021 C 
BRANCH  12  15
ATOM     15  C   UNL     1      -6.208  -4.460   0.601  0.00  0.00    +0.132 C 
BRANCH  15  16
ATOM     16  C   UNL     1      -6.750  -3.844   1.865  0.00  0.00    +0.033 C 
ATOM     17  C   UNL     1      -7.972  -3.325   1.880  0.00  0.00    +0.024 C 
ATOM     18 CL   UNL     1      -5.776  -3.812   3.302  0.00  0.00    -0.087 Cl
BRANCH  17  19
ATOM     19  C   UNL     1      -8.568  -2.875   3.155  0.00  0.00    -0.024 A 
ATOM     20  C   UNL     1      -9.389  -1.747   3.184  0.00  0.00    +0.008 A 
ATOM     21  C   UNL     1      -9.943  -1.331   4.378  0.00  0.00    +0.001 A 
ATOM     22  C   UNL     1      -9.686  -2.031   5.543  0.00  0.00    +0.000 A 
ATOM     23  C   UNL     1      -8.873  -3.150   5.521  0.00  0.00    +0.001 A 
ATOM     24  C   UNL     1      -8.317  -3.579   4.333  0.00  0.00    +0.008 A 
ENDBRANCH  17  19
ENDBRANCH  15  16
ENDBRANCH  12  15
ENDBRANCH   1   9
BRANCH   1  25
ATOM     25  C   UNL     1      -2.537  -0.137  -2.676  0.00  0.00    +0.035 C 
BRANCH  25  27
ATOM     26  C   UNL     1      -1.667   2.019  -3.592  0.00  0.00    +0.004 C 
ATOM     27  C   UNL     1      -1.274   0.645  -3.044  0.00  0.00    -0.001 C 
ENDBRANCH  25  27
ENDBRANCH   1  25
BRANCH   4  28
ATOM     28  C   UNL     1       1.044  -2.023  -0.291  0.00  0.00    +0.116 C 
BRANCH  28  29
ATOM     29  C   UNL     1       0.954  -3.317   0.521  0.00  0.00    +0.004 C 
BRANCH  29  30
ATOM     30  C   UNL     1       2.201  -3.458   1.396  0.00  0.00    -0.068 C 
ATOM     31  C   UNL     1       3.450  -3.629   0.506  0.00  0.00    -0.017 C 
ATOM     32  C   UNL     1       4.298  -4.666   1.289  0.00  0.00    -0.020 C 
ATOM     33  C   UNL     1       3.199  -5.582   1.885  0.00  0.00    -0.079 C 
ATOM     34  N   UNL     1       2.091  -4.664   2.237  0.00  0.00    +0.380 N 
ATOM     35  C   UNL     1       0.802  -5.324   1.987  0.00  0.00    -0.096 C 
ATOM     36  H   UNL     1       2.156  -4.407   3.210  0.00  0.00    -0.082 HD
ENDBRANCH  29  30
ENDBRANCH  28  29
ENDBRANCH   4  28
TORSDOF 9
