REMARK  Name = ZINC02380782
REMARK  8 active torsions:
REMARK  status: ('A' for Active; 'I' for Inactive)
REMARK    1  A    between atoms: C_1  and  C_2
REMARK    2  A    between atoms: C_2  and  C_3
REMARK    3  A    between atoms: C_2  and  C_4
REMARK    4  A    between atoms: C_7  and  C_10
REMARK    5  A    between atoms: C_21  and  C_23
REMARK    6  A    between atoms: C_26  and  C_29
REMARK    7  A    between atoms: C_29  and  O_31
REMARK    8  A    between atoms: O_31  and  C_32
REMARK                            x       y       z     vdW  Elec       q    Type
REMARK                         _______ _______ _______ _____ _____    ______ ____
ROOT
ATOM      1  C   UNL     1       2.707  -1.868  -4.752  0.00  0.00    +0.163 C 
ATOM      2  C   UNL     1       2.231  -3.274  -5.044  0.00  0.00    +0.028 C 
ATOM      3  C   UNL     1       3.154  -4.257  -5.093  0.00  0.00    +0.083 C 
ATOM      4  C   UNL     1       2.675  -5.635  -5.370  0.00  0.00    +0.042 A 
ATOM      5  C   UNL     1       3.548  -6.643  -5.753  0.00  0.00    +0.013 A 
ATOM      6  C   UNL     1       3.058  -7.911  -6.003  0.00  0.00    +0.001 A 
ATOM      7  C   UNL     1       1.705  -8.173  -5.874  0.00  0.00    +0.004 A 
ATOM      8  C   UNL     1       0.829  -7.174  -5.492  0.00  0.00    +0.046 A 
ATOM      9  C   UNL     1       1.306  -5.900  -5.236  0.00  0.00    +0.131 A 
ATOM     10  O   UNL     1       0.470  -4.902  -4.853  0.00  0.00    -0.479 OA
ATOM     11  C   UNL     1       0.781  -3.575  -5.282  0.00  0.00    +0.234 C 
ATOM     12  N   UNL     1       4.470  -3.998  -4.896  0.00  0.00    -0.216 NA
ATOM     13  C   UNL     1       4.957  -2.804  -4.639  0.00  0.00    +0.209 C 
ATOM     14  N   UNL     1       4.154  -1.709  -4.549  0.00  0.00    -0.182 N 
ATOM     15  N   UNL     1       4.968  -0.612  -4.265  0.00  0.00    -0.169 NA
ATOM     16  C   UNL     1       6.194  -1.021  -4.188  0.00  0.00    +0.208 C 
ATOM     17  N   UNL     1       6.236  -2.366  -4.415  0.00  0.00    -0.275 N 
ATOM     18  H   UNL     1       7.035  -2.917  -4.414  0.00  0.00    +0.156 HD
ENDROOT
BRANCH   1  22
ATOM     19  C   UNL     1       0.707  -0.490  -1.238  0.00  0.00    -0.045 A 
ATOM     20  C   UNL     1       0.222  -0.151  -2.487  0.00  0.00    +0.004 A 
ATOM     21  C   UNL     1       0.869  -0.597  -3.624  0.00  0.00    +0.006 A 
ATOM     22  C   UNL     1       2.002  -1.381  -3.513  0.00  0.00    -0.021 A 
ATOM     23  C   UNL     1       2.488  -1.720  -2.263  0.00  0.00    +0.006 A 
ATOM     24  C   UNL     1       1.843  -1.270  -1.126  0.00  0.00    +0.004 A 
BRANCH  19  26
ATOM     25  C   UNL     1      -0.019   1.526   0.010  0.00  0.00    +0.012 C 
ATOM     26  C   UNL     1       0.002  -0.004   0.002  0.00  0.00    +0.013 C 
ATOM     27  C   UNL     1      -1.433  -0.534   0.013  0.00  0.00    +0.012 C 
ENDBRANCH  19  26
ENDBRANCH   1  22
BRANCH  11  28
ATOM     28  C   UNL     1       0.479  -3.443  -6.752  0.00  0.00    -0.003 A 
ATOM     29  C   UNL     1       0.702  -4.514  -7.599  0.00  0.00    +0.008 A 
ATOM     30  C   UNL     1       0.428  -4.401  -8.947  0.00  0.00    +0.015 A 
ATOM     31  C   UNL     1      -0.075  -3.201  -9.455  0.00  0.00    +0.059 A 
ATOM     32  C   UNL     1      -0.297  -2.124  -8.594  0.00  0.00    +0.015 A 
ATOM     33  C   UNL     1      -0.024  -2.254  -7.248  0.00  0.00    +0.008 A 
BRANCH  31  34
ATOM     34  C   UNL     1      -0.370  -3.072 -10.896  0.00  0.00    +0.339 C 
ATOM     35  O   UNL     1      -0.176  -4.010 -11.643  0.00  0.00    -0.245 OA
BRANCH  34  36
ATOM     36  O   UNL     1      -0.856  -1.913 -11.383  0.00  0.00    -0.464 OA
ATOM     37  C   UNL     1      -1.118  -1.859 -12.787  0.00  0.00    +0.280 C 
ENDBRANCH  34  36
ENDBRANCH  31  34
ENDBRANCH  11  28
TORSDOF 5
