REMARK  Name = ZINC09429691
REMARK  7 active torsions:
REMARK  status: ('A' for Active; 'I' for Inactive)
REMARK    1  A    between atoms: C_1  and  C_2
REMARK    2  A    between atoms: C_2  and  O_3
REMARK    3  A    between atoms: O_3  and  C_4
REMARK    4  A    between atoms: C_9  and  N_10
REMARK    5  A    between atoms: C_11  and  C_13
REMARK    6  A    between atoms: C_23  and  S_26
REMARK    7  A    between atoms: S_26  and  C_29
REMARK                            x       y       z     vdW  Elec       q    Type
REMARK                         _______ _______ _______ _____ _____    ______ ____
ROOT
ATOM      1  C   UNL     1      -6.319  -1.213  -0.157  0.00  0.00    +0.039 A 
ATOM      2  C   UNL     1      -6.149   0.177  -0.157  0.00  0.00    +0.014 A 
ATOM      3  C   UNL     1      -7.231   1.004  -0.244  0.00  0.00    +0.014 A 
ATOM      4  C   UNL     1      -8.515   0.464  -0.335  0.00  0.00    +0.047 A 
ATOM      5  C   UNL     1      -8.699  -0.928  -0.337  0.00  0.00    +0.054 A 
ATOM      6  C   UNL     1      -7.591  -1.765  -0.253  0.00  0.00    +0.039 A 
ATOM      7  N   UNL     1      -9.974  -1.447  -0.426  0.00  0.00    -0.320 N 
ATOM      8  H   UNL     1     -10.095  -2.410  -0.427  0.00  0.00    +0.169 HD
ATOM      9  C   UNL     1     -11.064  -0.641  -0.513  0.00  0.00    +0.278 A 
ATOM     10  O   UNL     1     -12.288  -1.206  -0.598  0.00  0.00    -0.266 OA
ATOM     11  C   UNL     1     -10.965   0.718  -0.516  0.00  0.00    +0.204 A 
ATOM     12  C   UNL     1      -9.705   1.333  -0.429  0.00  0.00    +0.218 A 
ATOM     13  O   UNL     1      -9.597   2.549  -0.431  0.00  0.00    -0.285 OA
ENDROOT
BRANCH   1  15
ATOM     14  N   UNL     1      -3.902  -1.566   0.031  0.00  0.00    -0.279 N 
ATOM     15  C   UNL     1      -5.137  -2.098  -0.062  0.00  0.00    +0.248 C 
ATOM     16  O   UNL     1      -5.280  -3.305  -0.067  0.00  0.00    -0.270 OA
ATOM     17  H   UNL     1      -3.793  -0.606   0.116  0.00  0.00    +0.155 HD
BRANCH  14  23
ATOM     18  C   UNL     1      -1.583  -1.981   0.588  0.00  0.00    +0.142 A 
ATOM     19  C   UNL     1      -0.475  -2.812   0.564  0.00  0.00    +0.047 A 
ATOM     20  C   UNL     1      -0.554  -4.052  -0.044  0.00  0.00    +0.004 A 
ATOM     21  C   UNL     1      -1.737  -4.466  -0.629  0.00  0.00    +0.002 A 
ATOM     22  C   UNL     1      -2.846  -3.643  -0.609  0.00  0.00    +0.027 A 
ATOM     23  C   UNL     1      -2.777  -2.400   0.004  0.00  0.00    +0.076 A 
BRANCH  18  24
ATOM     24  O   UNL     1      -1.508  -0.762   1.185  0.00  0.00    -0.490 OA
BRANCH  24  26
ATOM     25  C   UNL     1      -0.360   0.996   2.382  0.00  0.00    +0.048 C 
ATOM     26  C   UNL     1      -0.252  -0.399   1.762  0.00  0.00    +0.226 C 
ENDBRANCH  24  26
ENDBRANCH  18  24
ENDBRANCH  14  23
ENDBRANCH   1  15
BRANCH  11  27
ATOM     27  S   UNL     1     -12.420   1.705  -0.631  0.00  0.00    +0.034 S 
ATOM     28  O   UNL     1     -12.179   2.666  -1.650  0.00  0.00    -0.164 OA
ATOM     29  O   UNL     1     -13.519   0.805  -0.678  0.00  0.00    -0.164 OA
BRANCH  27  30
ATOM     30  C   UNL     1     -12.564   2.598   0.880  0.00  0.00    +0.094 A 
ATOM     31  C   UNL     1     -13.260   2.052   1.943  0.00  0.00    +0.027 A 
ATOM     32  C   UNL     1     -13.373   2.753   3.129  0.00  0.00    +0.002 A 
ATOM     33  C   UNL     1     -12.790   4.000   3.253  0.00  0.00    +0.000 A 
ATOM     34  C   UNL     1     -12.094   4.546   2.191  0.00  0.00    +0.002 A 
ATOM     35  C   UNL     1     -11.977   3.843   1.006  0.00  0.00    +0.027 A 
ENDBRANCH  27  30
ENDBRANCH  11  27
TORSDOF 6
