REMARK  Name = ZINC33708754
REMARK  5 active torsions:
REMARK  status: ('A' for Active; 'I' for Inactive)
REMARK    1  A    between atoms: C_4  and  C_7
REMARK    2  A    between atoms: C_7  and  N_8
REMARK    3  A    between atoms: C_13  and  C_30
REMARK    4  A    between atoms: C_16  and  C_21
REMARK    5  A    between atoms: C_16  and  C_27
REMARK                            x       y       z     vdW  Elec       q    Type
REMARK                         _______ _______ _______ _____ _____    ______ ____
ROOT
ATOM      1  N   UNL     1      -2.760   5.858  -2.429  0.00  0.00    -0.237 N 
ATOM      2  C   UNL     1      -1.636   6.359  -3.031  0.00  0.00    +0.225 C 
ATOM      3  O   UNL     1      -1.583   7.089  -3.998  0.00  0.00    -0.275 OA
ATOM      4  C   UNL     1      -0.500   5.821  -2.250  0.00  0.00    +0.080 C 
ATOM      5  C   UNL     1       0.772   6.552  -1.893  0.00  0.00    +0.010 C 
ATOM      6  N   UNL     1       1.174   5.890  -0.606  0.00  0.00    +0.400 N 
ATOM      7  C   UNL     1      -0.070   5.347   0.030  0.00  0.00    +0.074 C 
ATOM      8  C   UNL     1      -1.177   5.854  -0.822  0.00  0.00    +0.090 C 
ATOM      9  C   UNL     1      -2.507   5.356  -1.177  0.00  0.00    +0.225 C 
ATOM     10  O   UNL     1      -3.223   4.642  -0.508  0.00  0.00    -0.275 OA
ATOM     11  H   UNL     1       1.884   5.077  -0.818  0.00  0.00    -0.083 HD
ATOM     12  H   UNL     1       1.651   6.630   0.054  0.00  0.00    -0.083 HD
ENDROOT
BRANCH   5  13
ATOM     13  C   UNL     1       1.825   6.350  -2.951  0.00  0.00    +0.093 A 
ATOM     14  C   UNL     1       2.198   7.273  -3.849  0.00  0.00    +0.051 A 
ATOM     15  C   UNL     1       3.240   6.647  -4.671  0.00  0.00    +0.020 A 
ATOM     16  C   UNL     1       4.016   7.069  -5.750  0.00  0.00    +0.011 A 
ATOM     17  C   UNL     1       4.927   6.214  -6.305  0.00  0.00    +0.001 A 
ATOM     18  C   UNL     1       5.083   4.930  -5.802  0.00  0.00    +0.004 A 
ATOM     19  C   UNL     1       4.325   4.495  -4.736  0.00  0.00    +0.047 A 
ATOM     20  C   UNL     1       3.394   5.348  -4.157  0.00  0.00    +0.135 A 
ATOM     21  O   UNL     1       2.532   5.220  -3.128  0.00  0.00    -0.461 OA
ENDBRANCH   5  13
BRANCH   7  22
ATOM     22  C   UNL     1      -0.050   3.840   0.022  0.00  0.00    -0.047 A 
ATOM     23  C   UNL     1      -0.787   3.134   0.955  0.00  0.00    +0.003 A 
ATOM     24  C   UNL     1      -0.768   1.752   0.948  0.00  0.00    +0.000 A 
ATOM     25  C   UNL     1      -0.012   1.076   0.009  0.00  0.00    +0.000 A 
ATOM     26  C   UNL     1       0.729   1.782  -0.920  0.00  0.00    +0.000 A 
ATOM     27  C   UNL     1       0.706   3.164  -0.916  0.00  0.00    +0.003 A 
ENDBRANCH   7  22
BRANCH   7  28
ATOM     28  C   UNL     1      -0.209   5.863   1.439  0.00  0.00    +0.350 C 
ATOM     29  O   UNL     1      -1.300   6.154   1.871  0.00  0.00    -0.248 OA
ATOM     30  O   UNL     1       0.878   5.999   2.214  0.00  0.00    -0.248 OA
ENDBRANCH   7  28
BRANCH   1  31
ATOM     31  C   UNL     1      -4.085   5.858  -3.052  0.00  0.00    +0.151 C 
BRANCH  31  35
ATOM     32  C   UNL     1      -4.619   2.241  -5.261  0.00  0.00    +0.000 A 
ATOM     33  C   UNL     1      -4.989   2.299  -3.931  0.00  0.00    +0.000 A 
ATOM     34  C   UNL     1      -4.817   3.470  -3.216  0.00  0.00    +0.005 A 
ATOM     35  C   UNL     1      -4.273   4.582  -3.832  0.00  0.00    -0.030 A 
ATOM     36  C   UNL     1      -3.907   4.525  -5.163  0.00  0.00    +0.005 A 
ATOM     37  C   UNL     1      -4.075   3.353  -5.877  0.00  0.00    +0.000 A 
ENDBRANCH  31  35
ENDBRANCH   1  31
TORSDOF 5
