REMARK  Name = ZINC33938641
REMARK  10 active torsions:
REMARK  status: ('A' for Active; 'I' for Inactive)
REMARK    1  A    between atoms: C_1  and  C_2
REMARK    2  A    between atoms: C_2  and  O_3
REMARK    3  A    between atoms: O_3  and  C_4
REMARK    4  A    between atoms: C_7  and  N_10
REMARK    5  A    between atoms: C_15  and  C_33
REMARK    6  A    between atoms: C_18  and  C_23
REMARK    7  A    between atoms: C_18  and  C_29
REMARK    8  A    between atoms: C_29  and  O_31
REMARK    9  A    between atoms: O_31  and  C_32
REMARK   10  A    between atoms: C_38  and  C_39
REMARK                            x       y       z     vdW  Elec       q    Type
REMARK                         _______ _______ _______ _____ _____    ______ ____
ROOT
ATOM      1  N   UNL     1       1.030  -6.287  -1.809  0.00  0.00    -0.210 N 
ATOM      2  C   UNL     1       0.726  -7.216  -0.896  0.00  0.00    +0.232 C 
ATOM      3  O   UNL     1       0.158  -7.006   0.155  0.00  0.00    -0.274 OA
ATOM      4  C   UNL     1       1.199  -8.569  -1.378  0.00  0.00    +0.112 C 
ATOM      5  C   UNL     1       2.360  -9.050  -0.482  0.00  0.00    +0.098 C 
ATOM      6  N   UNL     1       3.388  -9.547  -1.432  0.00  0.00    -0.290 NA
ATOM      7  C   UNL     1       3.354  -8.569  -2.550  0.00  0.00    +0.155 C 
ATOM      8  C   UNL     1       1.842  -8.254  -2.755  0.00  0.00    +0.125 C 
ATOM      9  C   UNL     1       1.653  -6.760  -2.895  0.00  0.00    +0.233 C 
ATOM     10  O   UNL     1       2.014  -6.094  -3.842  0.00  0.00    -0.274 OA
ATOM     11  H   UNL     1       4.299  -9.570  -0.999  0.00  0.00    +0.124 HD
ENDROOT
BRANCH   5  12
ATOM     12  C   UNL     1       1.897 -10.161   0.424  0.00  0.00    -0.027 A 
ATOM     13  C   UNL     1       1.700  -9.918   1.771  0.00  0.00    +0.005 A 
ATOM     14  C   UNL     1       1.276 -10.938   2.602  0.00  0.00    +0.000 A 
ATOM     15  C   UNL     1       1.050 -12.201   2.087  0.00  0.00    +0.000 A 
ATOM     16  C   UNL     1       1.246 -12.443   0.741  0.00  0.00    +0.003 A 
ATOM     17  C   UNL     1       1.666 -11.422  -0.091  0.00  0.00    -0.046 A 
ATOM     18  C   UNL     1       1.875 -11.686  -1.560  0.00  0.00    +0.044 C 
ENDBRANCH   5  12
BRANCH   1  22
ATOM     19  C   UNL     1       0.096  -2.251  -1.321  0.00  0.00    +0.121 A 
ATOM     20  C   UNL     1      -0.377  -2.943  -2.426  0.00  0.00    +0.047 A 
ATOM     21  C   UNL     1      -0.068  -4.279  -2.589  0.00  0.00    +0.027 A 
ATOM     22  C   UNL     1       0.716  -4.929  -1.645  0.00  0.00    +0.044 A 
ATOM     23  C   UNL     1       1.188  -4.236  -0.539  0.00  0.00    +0.027 A 
ATOM     24  C   UNL     1       0.883  -2.899  -0.381  0.00  0.00    +0.047 A 
BRANCH  19  25
ATOM     25  O   UNL     1      -0.209  -0.935  -1.162  0.00  0.00    -0.492 OA
BRANCH  25  27
ATOM     26  C   UNL     1      -1.258   1.140  -1.821  0.00  0.00    +0.048 C 
ATOM     27  C   UNL     1      -1.024  -0.332  -2.168  0.00  0.00    +0.225 C 
ENDBRANCH  25  27
ENDBRANCH  19  25
ENDBRANCH   1  22
BRANCH   7  28
ATOM     28  C   UNL     1       4.112  -7.321  -2.179  0.00  0.00    -0.016 A 
ATOM     29  C   UNL     1       3.684  -6.542  -1.120  0.00  0.00    +0.006 A 
ATOM     30  C   UNL     1       4.379  -5.396  -0.779  0.00  0.00    +0.000 A 
ATOM     31  C   UNL     1       5.503  -5.030  -1.497  0.00  0.00    +0.000 A 
ATOM     32  C   UNL     1       5.931  -5.810  -2.555  0.00  0.00    +0.000 A 
ATOM     33  C   UNL     1       5.238  -6.958  -2.893  0.00  0.00    +0.006 A 
ENDBRANCH   7  28
BRANCH   7  34
ATOM     34  C   UNL     1       3.930  -9.182  -3.800  0.00  0.00    +0.333 C 
ATOM     35  O   UNL     1       3.456  -8.913  -4.878  0.00  0.00    -0.248 OA
BRANCH  34  36
ATOM     36  O   UNL     1       4.970 -10.027  -3.716  0.00  0.00    -0.466 OA
ATOM     37  C   UNL     1       5.465 -10.571  -4.942  0.00  0.00    +0.280 C 
ENDBRANCH  34  36
ENDBRANCH   7  34
TORSDOF 7
