REMARK  Name = ZINC20986094
REMARK  5 active torsions:
REMARK  status: ('A' for Active; 'I' for Inactive)
REMARK    1  A    between atoms: C_9  and  N_11
REMARK    2  A    between atoms: N_11  and  N_12
REMARK    3  A    between atoms: C_13  and  C_14
REMARK    4  A    between atoms: C_17  and  O_21
REMARK    5  A    between atoms: C_18  and  O_20
REMARK                            x       y       z     vdW  Elec       q    Type
REMARK                         _______ _______ _______ _____ _____    ______ ____
ROOT
ATOM      1  N   UNL     1       0.923   7.277   0.033  0.00  0.00    -0.221 N 
ATOM      2  H   UNL     1       1.845   7.877   0.028  0.00  0.00    +0.176 HD
ENDROOT
BRANCH   1  11
ATOM      3  C   UNL     1      -0.013   1.076   0.008  0.00  0.00    +0.001 A 
ATOM      4  C   UNL     1      -1.233   1.747   0.017  0.00  0.00    +0.002 A 
ATOM      5  C   UNL     1      -1.286   3.107   0.030  0.00  0.00    +0.028 A 
ATOM      6  C   UNL     1      -0.094   3.852   0.023  0.00  0.00    +0.073 A 
ATOM      7  C   UNL     1       1.146   3.167   0.008  0.00  0.00    +0.001 A 
ATOM      8  C   UNL     1       1.163   1.764   0.000  0.00  0.00    +0.010 A 
ATOM      9  C   UNL     1       2.342   3.914   0.001  0.00  0.00    +0.013 A 
ATOM     10  C   UNL     1       2.255   5.273   0.010  0.00  0.00    +0.046 A 
ATOM     11  C   UNL     1       0.996   5.893   0.025  0.00  0.00    +0.139 A 
ATOM     12  N   UNL     1      -0.118   5.189   0.031  0.00  0.00    -0.231 NA
ENDBRANCH   1  11
BRANCH   1  13
ATOM     13  N   UNL     1      -0.326   7.912   0.048  0.00  0.00    -0.189 NA
ATOM     14  C   UNL     1      -0.394   9.209   0.056  0.00  0.00    +0.138 C 
BRANCH  14  15
ATOM     15  C   UNL     1      -1.708   9.877   0.072  0.00  0.00    -0.002 A 
ATOM     16  C   UNL     1      -2.881   9.117   0.072  0.00  0.00    +0.013 A 
ATOM     17  C   UNL     1      -4.109   9.745   0.092  0.00  0.00    +0.050 A 
ATOM     18  C   UNL     1      -4.183  11.130   0.101  0.00  0.00    +0.158 A 
ATOM     19  C   UNL     1      -3.019  11.894   0.095  0.00  0.00    +0.159 A 
ATOM     20  C   UNL     1      -1.784  11.272   0.080  0.00  0.00    +0.058 A 
BRANCH  19  21
ATOM     21  O   UNL     1      -3.096  13.252   0.104  0.00  0.00    -0.503 OA
ATOM     22  H   UNL     1      -2.176  13.855   0.099  0.00  0.00    +0.292 HD
ENDBRANCH  19  21
BRANCH  18  23
ATOM     23  O   UNL     1      -5.396  11.743   0.116  0.00  0.00    -0.503 OA
ATOM     24  H   UNL     1      -5.457  12.842   0.123  0.00  0.00    +0.292 HD
ENDBRANCH  18  23
ENDBRANCH  14  15
ENDBRANCH   1  13
TORSDOF 5
