REMARK  Name = ZINC63281451
REMARK  7 active torsions:
REMARK  status: ('A' for Active; 'I' for Inactive)
REMARK    1  A    between atoms: C_1  and  O_2
REMARK    2  A    between atoms: O_2  and  C_3
REMARK    3  A    between atoms: C_9  and  C_12
REMARK    4  A    between atoms: C_12  and  C_13
REMARK    5  A    between atoms: C_13  and  N_14
REMARK    6  A    between atoms: N_14  and  C_15
REMARK    7  A    between atoms: N_25  and  C_28
REMARK                            x       y       z     vdW  Elec       q    Type
REMARK                         _______ _______ _______ _____ _____    ______ ____
ROOT
ATOM      1  C   UNL     1       0.444  -7.062   3.141  0.00  0.00    +0.081 C 
ATOM      2  C   UNL     1       0.802  -8.362   2.860  0.00  0.00    +0.059 C 
ATOM      3  C   UNL     1       1.417  -8.719   1.565  0.00  0.00    +0.000 A 
ATOM      4  C   UNL     1       1.658  -7.766   0.582  0.00  0.00    +0.009 A 
ATOM      5  C   UNL     1       2.235  -8.150  -0.612  0.00  0.00    +0.001 A 
ATOM      6  C   UNL     1       2.575  -9.476  -0.836  0.00  0.00    +0.001 A 
ATOM      7  C   UNL     1       2.344 -10.435   0.126  0.00  0.00    +0.014 A 
ATOM      8  C   UNL     1       1.762 -10.068   1.340  0.00  0.00    +0.046 A 
ATOM      9  C   UNL     1       1.498 -11.058   2.392  0.00  0.00    +0.258 C 
ATOM     10  O   UNL     1       1.793 -12.223   2.204  0.00  0.00    -0.269 OA
ATOM     11  N   UNL     1       0.938 -10.699   3.559  0.00  0.00    -0.202 N 
ATOM     12  C   UNL     1       0.591  -9.433   3.841  0.00  0.00    +0.259 C 
ATOM     13  O   UNL     1       0.091  -9.171   4.920  0.00  0.00    -0.269 OA
ENDROOT
BRANCH  11  14
ATOM     14  C   UNL     1       0.711 -11.687   4.525  0.00  0.00    +0.046 A 
ATOM     15  C   UNL     1      -0.490 -12.384   4.539  0.00  0.00    +0.024 A 
ATOM     16  C   UNL     1      -0.712 -13.357   5.493  0.00  0.00    +0.003 A 
ATOM     17  C   UNL     1       0.261 -13.639   6.435  0.00  0.00    +0.020 A 
ATOM     18  C   UNL     1       1.459 -12.947   6.425  0.00  0.00    +0.043 A 
ATOM     19  C   UNL     1       1.689 -11.976   5.468  0.00  0.00    +0.044 A 
ATOM     20 CL   UNL     1       2.677 -13.303   7.609  0.00  0.00    -0.083 Cl
ENDBRANCH  11  14
BRANCH   1  21
ATOM     21  N   UNL     1       0.116  -6.215   2.131  0.00  0.00    -0.349 N 
ATOM     22  H   UNL     1       0.037  -6.549   1.224  0.00  0.00    +0.146 HD
BRANCH  21  23
ATOM     23  C   UNL     1      -0.117  -4.796   2.412  0.00  0.00    +0.105 C 
BRANCH  23  24
ATOM     24  C   UNL     1      -0.467  -4.069   1.111  0.00  0.00    +0.052 C 
BRANCH  24  31
ATOM     25  C   UNL     1       2.259  -0.380   0.895  0.00  0.00    +0.121 A 
ATOM     26  C   UNL     1       1.636   0.828   1.254  0.00  0.00    +0.047 A 
ATOM     27  C   UNL     1       0.341   0.893   1.631  0.00  0.00    +0.029 A 
ATOM     28  C   UNL     1      -0.467  -0.330   1.676  0.00  0.00    +0.043 A 
ATOM     29  N   UNL     1      -1.718  -0.542   2.000  0.00  0.00    -0.380 N 
ATOM     30  C   UNL     1      -2.000  -1.976   1.863  0.00  0.00    +0.144 C 
ATOM     31  C   UNL     1      -0.707  -2.610   1.400  0.00  0.00    -0.040 C 
ATOM     32  C   UNL     1       0.189  -1.603   1.297  0.00  0.00    +0.002 A 
ATOM     33  C   UNL     1       1.600  -1.563   0.898  0.00  0.00    +0.055 A 
ATOM     34  H   UNL     1      -2.352   0.135   2.283  0.00  0.00    +0.160 HD
BRANCH  25  36
ATOM     35  C   UNL     1       4.224   0.911   0.538  0.00  0.00    +0.277 C 
ATOM     36  O   UNL     1       3.568  -0.358   0.527  0.00  0.00    -0.495 OA
ENDBRANCH  25  36
ENDBRANCH  24  31
ENDBRANCH  23  24
ENDBRANCH  21  23
ENDBRANCH   1  21
TORSDOF 6
