REMARK  Name = ZINC36271727
REMARK  6 active torsions:
REMARK  status: ('A' for Active; 'I' for Inactive)
REMARK    1  A    between atoms: C_1  and  C_2
REMARK    2  A    between atoms: C_7  and  C_31
REMARK    3  A    between atoms: N_9  and  C_10
REMARK    4  A    between atoms: C_10  and  C_11
REMARK    5  A    between atoms: C_12  and  C_21
REMARK    6  A    between atoms: C_17  and  N_20
REMARK                            x       y       z     vdW  Elec       q    Type
REMARK                         _______ _______ _______ _____ _____    ______ ____
ROOT
ATOM      1  C   UNL     1       2.683  -1.090   2.461  0.00  0.00    +0.035 A 
ATOM      2  C   UNL     1       3.136  -0.572   3.638  0.00  0.00    +0.091 A 
ATOM      3  N   UNL     1       3.926  -1.485   4.222  0.00  0.00    -0.228 NA
ATOM      4  C   UNL     1       3.986  -2.564   3.453  0.00  0.00    +0.138 A 
ATOM      5  N   UNL     1       3.211  -2.345   2.345  0.00  0.00    -0.303 N 
ATOM      6  C   UNL     1       3.090  -3.308   1.381  0.00  0.00    +0.115 A 
ATOM      7  C   UNL     1       3.733  -4.494   1.510  0.00  0.00    +0.041 A 
ATOM      8  C   UNL     1       4.534  -4.746   2.642  0.00  0.00    +0.028 A 
ATOM      9  C   UNL     1       4.666  -3.790   3.599  0.00  0.00    +0.048 A 
ENDROOT
BRANCH   2  10
ATOM     10  C   UNL     1       2.812   0.771   4.178  0.00  0.00    +0.006 A 
ATOM     11  C   UNL     1       2.784   1.877   3.331  0.00  0.00    +0.014 A 
ATOM     12  C   UNL     1       2.484   3.125   3.836  0.00  0.00    +0.050 A 
ATOM     13  C   UNL     1       2.210   3.285   5.187  0.00  0.00    +0.162 A 
ATOM     14  C   UNL     1       2.234   2.185   6.037  0.00  0.00    +0.163 A 
ATOM     15  C   UNL     1       2.531   0.929   5.533  0.00  0.00    +0.059 A 
ATOM     16  O   UNL     1       1.960   2.323   7.363  0.00  0.00    -0.485 OA
ATOM     17  C   UNL     1       2.027   3.648   7.900  0.00  0.00    +0.270 C 
ATOM     18  C   UNL     1       1.284   4.592   6.945  0.00  0.00    +0.270 C 
ATOM     19  O   UNL     1       1.921   4.527   5.665  0.00  0.00    -0.485 OA
ENDBRANCH   2  10
BRANCH   7  20
ATOM     20  N   UNL     1       3.601  -5.473   0.515  0.00  0.00    -0.357 N 
ATOM     21  H   UNL     1       3.050  -5.300  -0.264  0.00  0.00    +0.142 HD
ATOM     22  H   UNL     1       4.061  -6.322   0.606  0.00  0.00    +0.142 HD
ENDBRANCH   7  20
BRANCH   1  23
ATOM     23  C   UNL     1       1.766  -0.409   1.478  0.00  0.00    -0.021 C 
BRANCH  23  30
ATOM     24  C   UNL     1       0.059  -2.487   0.455  0.00  0.00    -0.013 C 
ATOM     25  C   UNL     1      -0.002  -1.973   1.895  0.00  0.00    -0.071 C 
ATOM     26  C   UNL     1      -1.424  -2.138   2.435  0.00  0.00    -0.016 C 
ATOM     27  C   UNL     1      -2.392  -1.333   1.563  0.00  0.00    -0.003 C 
ATOM     28  C   UNL     1      -1.946   0.132   1.541  0.00  0.00    -0.016 C 
ATOM     29  C   UNL     1      -0.505   0.213   1.034  0.00  0.00    -0.071 C 
ATOM     30  N   UNL     1       0.374  -0.554   1.924  0.00  0.00    +0.387 N 
ATOM     31  C   UNL     1      -0.055   1.675   1.010  0.00  0.00    -0.013 C 
ATOM     32  H   UNL     1       0.286  -0.204   2.866  0.00  0.00    -0.081 HD
ENDBRANCH  23  30
ENDBRANCH   1  23
TORSDOF 4
