REMARK  Name = ZINC13065427
REMARK  9 active torsions:
REMARK  status: ('A' for Active; 'I' for Inactive)
REMARK    1  A    between atoms: C_1  and  O_2
REMARK    2  A    between atoms: O_2  and  C_3
REMARK    3  A    between atoms: C_6  and  C_9
REMARK    4  A    between atoms: C_9  and  N_10
REMARK    5  A    between atoms: C_11  and  C_15
REMARK    6  A    between atoms: C_15  and  N_67
REMARK    7  A    between atoms: C_16  and  C_17
REMARK    8  A    between atoms: C_16  and  N_67
REMARK    9  A    between atoms: C_32  and  N_67
REMARK                            x       y       z     vdW  Elec       q    Type
REMARK                         _______ _______ _______ _____ _____    ______ ____
ROOT
ATOM      1  N   UNL     1      -2.953   0.946  -1.324  0.00  0.00    +0.389 N 
ATOM      2  H   UNL     1      -2.841   1.920  -1.628  0.00  0.00    -0.080 HD
ENDROOT
BRANCH   1   3
ATOM      3  C   UNL     1      -1.946   0.109  -2.010  0.00  0.00    -0.068 C 
ATOM      4  C   UNL     1      -1.767   0.631  -3.437  0.00  0.00    -0.015 C 
ATOM      5  C   UNL     1      -0.715  -0.212  -4.160  0.00  0.00    -0.002 C 
ATOM      6  C   UNL     1      -1.172  -1.671  -4.204  0.00  0.00    -0.000 C 
ATOM      7  C   UNL     1      -1.351  -2.193  -2.776  0.00  0.00    -0.002 C 
ATOM      8  C   UNL     1      -2.403  -1.350  -2.053  0.00  0.00    -0.015 C 
ENDBRANCH   1   3
BRANCH   1   9
ATOM      9  C   UNL     1      -4.314   0.487  -1.674  0.00  0.00    +0.001 C 
BRANCH   9  11
ATOM     10  N   UNL     1      -4.876   1.844  -3.759  0.00  0.00    -0.227 N 
ATOM     11  C   UNL     1      -4.533   0.693  -3.151  0.00  0.00    +0.135 A 
ATOM     12  N   UNL     1      -4.431  -0.213  -4.091  0.00  0.00    -0.115 NA
ATOM     13  N   UNL     1      -4.694   0.352  -5.219  0.00  0.00    -0.023 NA
ATOM     14  N   UNL     1      -4.960   1.596  -5.022  0.00  0.00    -0.044 NA
BRANCH  10  15
ATOM     15  C   UNL     1      -5.108   3.136  -3.108  0.00  0.00    +0.182 C 
BRANCH  15  19
ATOM     16  C   UNL     1      -1.438   5.317  -2.926  0.00  0.00    +0.120 A 
ATOM     17  C   UNL     1      -2.275   5.457  -4.024  0.00  0.00    +0.046 A 
ATOM     18  C   UNL     1      -3.461   4.751  -4.080  0.00  0.00    +0.009 A 
ATOM     19  C   UNL     1      -3.814   3.906  -3.044  0.00  0.00    -0.026 A 
ATOM     20  C   UNL     1      -2.984   3.769  -1.947  0.00  0.00    +0.009 A 
ATOM     21  C   UNL     1      -1.794   4.469  -1.888  0.00  0.00    +0.046 A 
BRANCH  16  23
ATOM     22  C   UNL     1       0.542   5.819  -1.708  0.00  0.00    +0.277 C 
ATOM     23  O   UNL     1      -0.271   6.011  -2.868  0.00  0.00    -0.495 OA
ENDBRANCH  16  23
ENDBRANCH  15  19
ENDBRANCH  10  15
ENDBRANCH   9  11
ENDBRANCH   1   9
BRANCH   1  24
ATOM     24  C   UNL     1      -2.757   0.874   0.140  0.00  0.00    -0.037 C 
BRANCH  24  25
ATOM     25  C   UNL     1      -1.602   1.766   0.516  0.00  0.00    +0.001 A 
ATOM     26  C   UNL     1      -1.831   3.057   0.868  0.00  0.00    +0.017 A 
ATOM     27  C   UNL     1      -0.689   3.898   1.223  0.00  0.00    +0.002 A 
ATOM     28  C   UNL     1      -0.865   5.239   1.588  0.00  0.00    +0.059 A 
ATOM     29  C   UNL     1       0.230   6.006   1.919  0.00  0.00    +0.167 A 
ATOM     30  C   UNL     1       1.515   5.451   1.891  0.00  0.00    +0.168 A 
ATOM     31  C   UNL     1       1.699   4.129   1.530  0.00  0.00    +0.075 A 
ATOM     32  C   UNL     1       0.605   3.342   1.193  0.00  0.00    +0.053 A 
ATOM     33  N   UNL     1       0.769   2.020   0.829  0.00  0.00    -0.322 N 
ATOM     34  H   UNL     1       1.660   1.638   0.808  0.00  0.00    +0.169 HD
ATOM     35  C   UNL     1      -0.288   1.256   0.505  0.00  0.00    +0.251 A 
ATOM     36  O   UNL     1      -0.105   0.093   0.188  0.00  0.00    -0.268 OA
ATOM     37  O   UNL     1       2.410   6.413   2.259  0.00  0.00    -0.453 OA
ATOM     38  C   UNL     1       1.632   7.436   2.906  0.00  0.00    +0.466 C 
ATOM     39  O   UNL     1       0.330   7.313   2.304  0.00  0.00    -0.453 OA
ENDBRANCH  24  25
ENDBRANCH   1  24
TORSDOF 8
