REMARK  Name = ZINC63385055
REMARK  10 active torsions:
REMARK  status: ('A' for Active; 'I' for Inactive)
REMARK    1  A    between atoms: C_1  and  C_2
REMARK    2  A    between atoms: C_3  and  O_19
REMARK    3  A    between atoms: C_12  and  C_13
REMARK    4  A    between atoms: O_19  and  C_20
REMARK    5  A    between atoms: C_20  and  C_21
REMARK    6  A    between atoms: N_23  and  C_24
REMARK    7  A    between atoms: C_24  and  C_25
REMARK    8  A    between atoms: C_25  and  C_26
REMARK    9  A    between atoms: C_29  and  O_35
REMARK   10  A    between atoms: O_35  and  C_36
REMARK                            x       y       z     vdW  Elec       q    Type
REMARK                         _______ _______ _______ _____ _____    ______ ____
ROOT
ATOM      1  O   UNL     1      -0.010  -0.004  -2.370  0.00  0.00    -0.482 OA
ENDROOT
BRANCH   1   4
ATOM      2  C   UNL     1      -0.018   1.503   0.010  0.00  0.00    +0.051 C 
ATOM      3  C   UNL     1       0.002  -0.004   0.002  0.00  0.00    +0.034 A 
ATOM      4  C   UNL     1       0.006  -0.692  -1.200  0.00  0.00    +0.128 A 
ATOM      5  C   UNL     1       0.025  -2.085  -1.218  0.00  0.00    +0.047 A 
ATOM      6  C   UNL     1       0.040  -2.790  -0.049  0.00  0.00    +0.016 A 
ATOM      7  C   UNL     1       0.037  -2.111   1.172  0.00  0.00    +0.026 A 
ATOM      8  C   UNL     1       0.023  -0.706   1.198  0.00  0.00    +0.146 A 
ATOM      9  O   UNL     1       0.024  -0.052   2.380  0.00  0.00    -0.422 OA
ATOM     10  C   UNL     1       0.044  -0.706   3.552  0.00  0.00    +0.338 A 
ATOM     11  O   UNL     1       0.044  -0.064   4.588  0.00  0.00    -0.245 OA
ATOM     12  C   UNL     1       0.064  -2.109   3.617  0.00  0.00    +0.101 A 
ATOM     13  C   UNL     1       0.053  -2.846   2.448  0.00  0.00    -0.000 A 
BRANCH  13  14
ATOM     14  C   UNL     1       0.073  -4.325   2.477  0.00  0.00    -0.017 A 
ATOM     15  C   UNL     1       1.177  -5.021   1.981  0.00  0.00    +0.008 A 
ATOM     16  C   UNL     1       1.189  -6.400   2.012  0.00  0.00    +0.001 A 
ATOM     17  C   UNL     1       0.111  -7.093   2.533  0.00  0.00    +0.000 A 
ATOM     18  C   UNL     1      -0.986  -6.410   3.026  0.00  0.00    +0.001 A 
ATOM     19  C   UNL     1      -1.009  -5.030   3.006  0.00  0.00    +0.008 A 
ENDBRANCH  13  14
ENDBRANCH   1   4
BRANCH   1  20
ATOM     20  C   UNL     1      -0.005  -0.773  -3.575  0.00  0.00    +0.324 C 
BRANCH  20  21
ATOM     21  C   UNL     1      -0.024   0.155  -4.763  0.00  0.00    +0.251 C 
ATOM     22  O   UNL     1      -0.041   1.356  -4.594  0.00  0.00    -0.272 OA
ATOM     23  N   UNL     1      -0.023  -0.350  -6.012  0.00  0.00    -0.312 N 
ATOM     24  H   UNL     1      -0.010  -1.310  -6.147  0.00  0.00    +0.149 HD
BRANCH  23  25
ATOM     25  C   UNL     1      -0.042   0.552  -7.167  0.00  0.00    +0.108 C 
BRANCH  25  26
ATOM     26  C   UNL     1      -0.037  -0.271  -8.457  0.00  0.00    +0.052 C 
BRANCH  26  27
ATOM     27  C   UNL     1      -0.056   0.656  -9.644  0.00  0.00    -0.040 C 
ATOM     28  C   UNL     1       1.010   1.094 -10.352  0.00  0.00    +0.002 A 
ATOM     29  C   UNL     1       2.452   0.848 -10.233  0.00  0.00    +0.055 A 
ATOM     30  C   UNL     1       3.303   1.438 -11.106  0.00  0.00    +0.121 A 
ATOM     31  C   UNL     1       2.855   2.287 -12.134  0.00  0.00    +0.047 A 
ATOM     32  C   UNL     1       1.549   2.574 -12.323  0.00  0.00    +0.029 A 
ATOM     33  C   UNL     1       0.540   1.988 -11.435  0.00  0.00    +0.043 A 
ATOM     34  N   UNL     1      -0.764   2.099 -11.398  0.00  0.00    -0.380 N 
ATOM     35  C   UNL     1      -1.272   1.281 -10.290  0.00  0.00    +0.144 C 
ATOM     36  H   UNL     1      -1.305   2.629 -12.004  0.00  0.00    +0.160 HD
BRANCH  30  37
ATOM     37  O   UNL     1       4.636   1.202 -10.985  0.00  0.00    -0.495 OA
ATOM     38  C   UNL     1       5.497   1.845 -11.926  0.00  0.00    +0.277 C 
ENDBRANCH  30  37
ENDBRANCH  26  27
ENDBRANCH  25  26
ENDBRANCH  23  25
ENDBRANCH  20  21
ENDBRANCH   1  20
TORSDOF 8
