REMARK  Name = ZINC52594534
REMARK  5 active torsions:
REMARK  status: ('A' for Active; 'I' for Inactive)
REMARK    1  A    between atoms: C_15  and  C_17
REMARK    2  A    between atoms: C_17  and  C_19
REMARK    3  A    between atoms: C_17  and  N_29
REMARK    4  A    between atoms: C_19  and  C_20
REMARK    5  A    between atoms: N_32  and  C_33
REMARK                            x       y       z     vdW  Elec       q    Type
REMARK                         _______ _______ _______ _____ _____    ______ ____
ROOT
ATOM      1  C   UNL     1       8.139  -1.668   2.024  0.00  0.00    +0.165 C 
ENDROOT
BRANCH   1  16
ATOM      2  C   UNL     1       1.825   3.660  -1.128  0.00  0.00    +0.000 A 
ATOM      3  C   UNL     1       3.168   3.947  -0.975  0.00  0.00    +0.000 A 
ATOM      4  C   UNL     1       4.077   2.922  -0.803  0.00  0.00    +0.004 A 
ATOM      5  C   UNL     1       3.648   1.605  -0.783  0.00  0.00    -0.038 A 
ATOM      6  C   UNL     1       2.304   1.318  -0.934  0.00  0.00    -0.044 A 
ATOM      7  C   UNL     1       1.394   2.348  -1.107  0.00  0.00    +0.004 A 
ATOM      8  C   UNL     1       2.090  -0.179  -0.871  0.00  0.00    +0.036 C 
ATOM      9  C   UNL     1       3.486  -0.797  -1.104  0.00  0.00    +0.016 C 
ATOM     10  C   UNL     1       4.425   0.321  -0.616  0.00  0.00    -0.001 C 
ATOM     11  C   UNL     1       5.688   0.351  -1.474  0.00  0.00    +0.030 C 
ATOM     12  C   UNL     1       6.426  -0.985  -1.339  0.00  0.00    +0.108 C 
ATOM     13  N   UNL     1       6.657  -1.255   0.087  0.00  0.00    -0.300 N 
ATOM     14  C   UNL     1       5.510  -1.237   1.005  0.00  0.00    +0.108 C 
ATOM     15  C   UNL     1       4.778   0.101   0.852  0.00  0.00    +0.030 C 
ATOM     16  C   UNL     1       7.897  -1.516   0.544  0.00  0.00    +0.236 C 
ATOM     17  O   UNL     1       8.820  -1.628  -0.236  0.00  0.00    -0.274 OA
ENDBRANCH   1  16
BRANCH   1  18
ATOM     18  N   UNL     1       9.574  -1.564   2.298  0.00  0.00    -0.288 N 
ATOM     19  C   UNL     1      10.000  -1.127   3.499  0.00  0.00    +0.300 C 
ATOM     20  O   UNL     1       9.194  -0.819   4.355  0.00  0.00    -0.253 OA
ATOM     21  N   UNL     1      11.321  -1.030   3.751  0.00  0.00    -0.298 N 
ATOM     22  H   UNL     1      10.217  -1.810   1.615  0.00  0.00    +0.151 HD
ATOM     23  H   UNL     1      11.964  -1.276   3.068  0.00  0.00    +0.150 HD
BRANCH  21  24
ATOM     24  C   UNL     1      11.785  -0.555   5.057  0.00  0.00    +0.061 C 
ATOM     25  C   UNL     1      11.829   0.975   5.060  0.00  0.00    -0.056 C 
ATOM     26  N   UNL     1      13.195   1.436   5.318  0.00  0.00    +0.381 N 
ATOM     27  C   UNL     1      13.653   0.982   6.633  0.00  0.00    -0.078 C 
ATOM     28  C   UNL     1      13.669  -0.548   6.683  0.00  0.00    -0.014 C 
ATOM     29  C   UNL     1      13.195  -1.095   5.330  0.00  0.00    +0.004 C 
ATOM     30  C   UNL     1      14.135  -0.563   4.240  0.00  0.00    -0.014 C 
ATOM     31  C   UNL     1      14.104   0.972   4.266  0.00  0.00    -0.078 C 
ATOM     32  H   UNL     1      13.197   2.445   5.318  0.00  0.00    -0.082 HD
ENDBRANCH  21  24
ENDBRANCH   1  18
BRANCH   1  33
ATOM     33  C   UNL     1       7.629  -3.035   2.485  0.00  0.00    +0.065 C 
BRANCH  33  34
ATOM     34  C   UNL     1       8.384  -4.122   1.764  0.00  0.00    -0.039 C 
ATOM     35  C   UNL     1       9.469  -4.794   2.212  0.00  0.00    -0.001 A 
ATOM     36  C   UNL     1      10.242  -4.716   3.458  0.00  0.00    +0.010 A 
ATOM     37  C   UNL     1      11.304  -5.537   3.623  0.00  0.00    +0.001 A 
ATOM     38  C   UNL     1      11.684  -6.458   2.637  0.00  0.00    +0.002 A 
ATOM     39  C   UNL     1      11.024  -6.588   1.467  0.00  0.00    +0.026 A 
ATOM     40  C   UNL     1       9.890  -5.775   1.187  0.00  0.00    +0.043 A 
ATOM     41  N   UNL     1       9.097  -5.712   0.145  0.00  0.00    -0.380 N 
ATOM     42  C   UNL     1       8.078  -4.687   0.395  0.00  0.00    +0.144 C 
ATOM     43  H   UNL     1       9.170  -6.256  -0.655  0.00  0.00    +0.160 HD
ENDBRANCH  33  34
ENDBRANCH   1  33
TORSDOF 5
