REMARK  Name = ZINC39686228
REMARK  10 active torsions:
REMARK  status: ('A' for Active; 'I' for Inactive)
REMARK    1  A    between atoms: C_1  and  C_2
REMARK    2  A    between atoms: C_2  and  C_4
REMARK    3  A    between atoms: C_2  and  O_32
REMARK    4  A    between atoms: C_8  and  C_17
REMARK    5  A    between atoms: N_19  and  C_20
REMARK    6  A    between atoms: C_26  and  C_28
REMARK    7  A    between atoms: C_28  and  C_29
REMARK    8  A    between atoms: C_29  and  C_30
REMARK    9  A    between atoms: C_29  and  C_31
REMARK   10  A    between atoms: O_32  and  C_33
REMARK                            x       y       z     vdW  Elec       q    Type
REMARK                         _______ _______ _______ _____ _____    ______ ____
ROOT
ATOM      1  C   UNL     1       0.850  -0.293  -1.670  0.00  0.00    +0.256 C 
ATOM      2  O   UNL     1       0.275  -0.747  -2.636  0.00  0.00    -0.272 OA
ATOM      3  N   UNL     1       2.160   0.013  -1.747  0.00  0.00    -0.297 N 
ATOM      4  C   UNL     1       3.029   0.566  -0.681  0.00  0.00    +0.121 C 
ATOM      5  C   UNL     1       4.377  -0.169  -0.856  0.00  0.00    +0.100 C 
ATOM      6  C   UNL     1       4.391  -0.619  -2.326  0.00  0.00    -0.004 C 
ATOM      7  C   UNL     1       3.059  -0.133  -2.917  0.00  0.00    +0.115 C 
ATOM      8  C   UNL     1       4.474  -2.140  -2.412  0.00  0.00    -0.010 C 
ATOM      9  C   UNL     1       4.544  -2.561  -3.883  0.00  0.00    -0.082 C 
ATOM     10  N   UNL     1       5.721  -1.949  -4.513  0.00  0.00    +0.379 N 
ATOM     11  C   UNL     1       5.589  -0.487  -4.508  0.00  0.00    -0.082 C 
ATOM     12  C   UNL     1       5.563   0.020  -3.064  0.00  0.00    -0.010 C 
ATOM     13  H   UNL     1       6.550  -2.212  -4.000  0.00  0.00    -0.086 HD
ATOM     14  H   UNL     1       5.799  -2.276  -5.464  0.00  0.00    -0.086 HD
ENDROOT
BRANCH   5  15
ATOM     15  C   UNL     1       4.446  -1.363   0.062  0.00  0.00    +0.218 C 
ATOM     16  O   UNL     1       3.432  -1.955   0.364  0.00  0.00    -0.275 OA
ATOM     17  N   UNL     1       5.635  -1.772   0.546  0.00  0.00    -0.312 N 
ATOM     18  H   UNL     1       6.446  -1.298   0.304  0.00  0.00    +0.149 HD
BRANCH  17  19
ATOM     19  C   UNL     1       5.702  -2.932   1.438  0.00  0.00    +0.076 C 
ATOM     20  C   UNL     1       5.765  -4.214   0.604  0.00  0.00    +0.041 C 
ATOM     21  C   UNL     1       5.800  -5.426   1.539  0.00  0.00    +0.109 C 
ATOM     22  N   UNL     1       6.916  -5.264   2.481  0.00  0.00    -0.301 N 
ATOM     23  C   UNL     1       7.002  -4.027   3.269  0.00  0.00    +0.109 C 
ATOM     24  C   UNL     1       6.953  -2.830   2.314  0.00  0.00    +0.041 C 
ATOM     25  C   UNL     1       7.843  -6.233   2.620  0.00  0.00    +0.216 C 
ATOM     26  O   UNL     1       7.761  -7.250   1.964  0.00  0.00    -0.276 OA
BRANCH  25  27
ATOM     27  C   UNL     1       8.982  -6.052   3.590  0.00  0.00    +0.099 C 
BRANCH  27  28
ATOM     28  C   UNL     1       9.884  -7.287   3.554  0.00  0.00    -0.008 C 
ATOM     29  C   UNL     1      10.540  -7.400   2.177  0.00  0.00    +0.008 C 
ATOM     30  C   UNL     1      10.968  -7.159   4.627  0.00  0.00    +0.008 C 
ENDBRANCH  27  28
ENDBRANCH  25  27
ENDBRANCH  17  19
ENDBRANCH   5  15
BRANCH   1  32
ATOM     31  C   UNL     1       0.049   1.426  -0.072  0.00  0.00    +0.062 C 
ATOM     32  C   UNL     1       0.100  -0.072  -0.382  0.00  0.00    +0.256 C 
BRANCH  32  33
ATOM     33  O   UNL     1      -1.231  -0.577  -0.512  0.00  0.00    -0.480 OA
BRANCH  33  34
ATOM     34  C   UNL     1      -1.865  -0.947   0.631  0.00  0.00    +0.122 A 
ATOM     35  C   UNL     1      -3.113  -1.551   0.569  0.00  0.00    +0.045 A 
ATOM     36  C   UNL     1      -3.756  -1.926   1.732  0.00  0.00    +0.004 A 
ATOM     37  C   UNL     1      -3.158  -1.700   2.958  0.00  0.00    +0.000 A 
ATOM     38  C   UNL     1      -1.914  -1.098   3.023  0.00  0.00    +0.004 A 
ATOM     39  C   UNL     1      -1.265  -0.727   1.862  0.00  0.00    +0.045 A 
ENDBRANCH  33  34
ENDBRANCH  32  33
ENDBRANCH   1  32
TORSDOF 7
