REMARK  Name = ZINC15016192
REMARK  7 active torsions:
REMARK  status: ('A' for Active; 'I' for Inactive)
REMARK    1  A    between atoms: C_1  and  C_2
REMARK    2  A    between atoms: C_3  and  C_12
REMARK    3  A    between atoms: C_12  and  C_13
REMARK    4  A    between atoms: C_12  and  C_24
REMARK    5  A    between atoms: C_15  and  N_21
REMARK    6  A    between atoms: C_18  and  O_19
REMARK    7  A    between atoms: C_25  and  C_34
REMARK                            x       y       z     vdW  Elec       q    Type
REMARK                         _______ _______ _______ _____ _____    ______ ____
ROOT
ATOM      1  C   UNL     1       0.108  -0.097  -2.460  0.00  0.00    +0.087 C 
ENDROOT
BRANCH   1   4
ATOM      2  C   UNL     1       1.951  -2.417  -3.385  0.00  0.00    +0.063 C 
ATOM      3  C   UNL     1       1.041  -2.449  -2.184  0.00  0.00    +0.018 A 
ATOM      4  C   UNL     1       0.247  -1.440  -1.792  0.00  0.00    -0.007 A 
ATOM      5  C   UNL     1      -0.459  -1.893  -0.591  0.00  0.00    +0.004 A 
ATOM      6  C   UNL     1      -1.399  -1.310   0.261  0.00  0.00    +0.010 A 
ATOM      7  C   UNL     1      -1.877  -2.015   1.328  0.00  0.00    +0.001 A 
ATOM      8  C   UNL     1      -1.436  -3.308   1.574  0.00  0.00    +0.002 A 
ATOM      9  C   UNL     1      -0.509  -3.903   0.747  0.00  0.00    +0.026 A 
ATOM     10  C   UNL     1      -0.008  -3.204  -0.346  0.00  0.00    +0.047 A 
ATOM     11  N   UNL     1       0.897  -3.513  -1.336  0.00  0.00    -0.358 N 
ATOM     12  H   UNL     1       1.366  -4.358  -1.418  0.00  0.00    +0.166 HD
ENDBRANCH   1   4
BRANCH   1  13
ATOM     13  C   UNL     1       1.430   0.625  -2.417  0.00  0.00    -0.007 A 
ATOM     14  C   UNL     1       2.036   1.242  -3.443  0.00  0.00    +0.018 A 
ATOM     15  N   UNL     1       3.221   1.786  -3.026  0.00  0.00    -0.358 N 
ATOM     16  H   UNL     1       3.835   2.282  -3.590  0.00  0.00    +0.166 HD
ATOM     17  C   UNL     1       3.410   1.525  -1.688  0.00  0.00    +0.047 A 
ATOM     18  C   UNL     1       2.294   0.791  -1.246  0.00  0.00    +0.004 A 
ATOM     19  C   UNL     1       2.210   0.386   0.087  0.00  0.00    +0.010 A 
ATOM     20  C   UNL     1       3.212   0.708   0.958  0.00  0.00    +0.001 A 
ATOM     21  C   UNL     1       4.314   1.435   0.528  0.00  0.00    +0.002 A 
ATOM     22  C   UNL     1       4.420   1.839  -0.785  0.00  0.00    +0.026 A 
ATOM     23  C   UNL     1       1.493   1.324  -4.847  0.00  0.00    +0.063 C 
ENDBRANCH   1  13
BRANCH   1  24
ATOM     24  C   UNL     1      -0.933   0.719  -1.737  0.00  0.00    +0.009 A 
ATOM     25  C   UNL     1      -0.632   1.302  -0.521  0.00  0.00    +0.041 A 
ATOM     26  C   UNL     1      -1.587   2.050   0.143  0.00  0.00    +0.128 A 
ATOM     27  C   UNL     1      -2.845   2.216  -0.406  0.00  0.00    +0.051 A 
ATOM     28  C   UNL     1      -3.151   1.634  -1.622  0.00  0.00    +0.062 A 
ATOM     29  C   UNL     1      -2.192   0.888  -2.294  0.00  0.00    +0.135 A 
ATOM     30 BR   UNL     1      -4.871   1.861  -2.373  0.00  0.00    -0.046 Br
BRANCH  26  31
ATOM     31  N   UNL     1      -1.261   2.674   1.446  0.00  0.00    +0.056 N 
ATOM     32  O   UNL     1      -0.162   2.529   1.927  0.00  0.00    -0.126 OA
ATOM     33  O   UNL     1      -2.095   3.328   2.027  0.00  0.00    -0.126 OA
ENDBRANCH  26  31
BRANCH  29  34
ATOM     34  O   UNL     1      -2.488   0.320  -3.493  0.00  0.00    -0.505 OA
ATOM     35  H   UNL     1      -2.856  -0.572  -3.425  0.00  0.00    +0.292 HD
ENDBRANCH  29  34
ENDBRANCH   1  24
TORSDOF 5
