REMARK  Name = ZINC00629024
REMARK  11 active torsions:
REMARK  status: ('A' for Active; 'I' for Inactive)
REMARK    1  A    between atoms: C_1  and  C_2
REMARK    2  A    between atoms: C_3  and  C_30
REMARK    3  A    between atoms: C_4  and  C_20
REMARK    4  A    between atoms: C_6  and  C_10
REMARK    5  A    between atoms: C_7  and  C_9
REMARK    6  A    between atoms: C_10  and  O_12
REMARK    7  A    between atoms: O_12  and  C_13
REMARK    8  A    between atoms: C_13  and  C_14
REMARK    9  A    between atoms: C_25  and  C_26
REMARK   10  A    between atoms: C_30  and  O_32
REMARK   11  A    between atoms: O_32  and  C_33
REMARK                            x       y       z     vdW  Elec       q    Type
REMARK                         _______ _______ _______ _____ _____    ______ ____
ROOT
ATOM      1  C   UNL     1       4.507   3.781  -0.962  0.00  0.00    +0.061 C 
ATOM      2  C   UNL     1       3.325   3.223  -0.212  0.00  0.00    +0.016 C 
ATOM      3  C   UNL     1       2.128   3.825  -0.316  0.00  0.00    +0.065 C 
ATOM      4  C   UNL     1       0.925   3.309   0.421  0.00  0.00    +0.096 C 
ATOM      5  C   UNL     1       1.159   1.906   0.905  0.00  0.00    +0.065 C 
ATOM      6  C   UNL     1       2.396   1.383   0.966  0.00  0.00    +0.016 C 
ATOM      7  N   UNL     1       3.484   2.109   0.568  0.00  0.00    -0.321 N 
ATOM      8  C   UNL     1       2.584  -0.024   1.473  0.00  0.00    +0.061 C 
ATOM      9  H   UNL     1       4.492   1.794   0.878  0.00  0.00    +0.152 HD
ENDROOT
BRANCH   4  10
ATOM     10  C   UNL     1       0.646   4.202   1.603  0.00  0.00    -0.023 A 
ATOM     11  C   UNL     1       1.594   4.347   2.598  0.00  0.00    +0.005 A 
ATOM     12  C   UNL     1       1.341   5.170   3.679  0.00  0.00    +0.000 A 
ATOM     13  C   UNL     1       0.134   5.839   3.771  0.00  0.00    +0.001 A 
ATOM     14  C   UNL     1      -0.816   5.690   2.778  0.00  0.00    +0.012 A 
ATOM     15  C   UNL     1      -0.560   4.871   1.694  0.00  0.00    +0.059 A 
BRANCH  15  16
ATOM     16  C   UNL     1      -1.596   4.707   0.612  0.00  0.00    +0.418 C 
ATOM     17  F   UNL     1      -2.730   5.460   0.935  0.00  0.00    -0.166 F 
ATOM     18  F   UNL     1      -1.072   5.152  -0.607  0.00  0.00    -0.166 F 
ATOM     19  F   UNL     1      -1.948   3.357   0.503  0.00  0.00    -0.166 F 
ENDBRANCH  15  16
ENDBRANCH   4  10
BRANCH   5  20
ATOM     20  C   UNL     1       0.055   1.121   1.312  0.00  0.00    +0.338 C 
ATOM     21  O   UNL     1      -0.656   0.592   0.478  0.00  0.00    -0.245 OA
BRANCH  20  22
ATOM     22  O   UNL     1      -0.214   0.964   2.625  0.00  0.00    -0.459 OA
BRANCH  22  23
ATOM     23  C   UNL     1      -1.348   0.163   2.964  0.00  0.00    +0.264 C 
BRANCH  23  24
ATOM     24  C   UNL     1      -1.492   0.100   4.486  0.00  0.00    +0.156 C 
ATOM     25  C   UNL     1      -2.768  -0.689   4.873  0.00  0.00    +0.037 C 
ATOM     26  C   UNL     1      -2.389  -1.179   6.298  0.00  0.00    +0.031 C 
ATOM     27  C   UNL     1      -0.868  -1.413   6.172  0.00  0.00    +0.160 C 
ATOM     28  O   UNL     1      -0.403  -0.640   5.059  0.00  0.00    -0.373 OA
ENDBRANCH  23  24
ENDBRANCH  22  23
ENDBRANCH  20  22
ENDBRANCH   5  20
BRANCH   3  29
ATOM     29  C   UNL     1       1.998   4.968  -1.137  0.00  0.00    +0.337 C 
ATOM     30  O   UNL     1       1.507   4.868  -2.246  0.00  0.00    -0.245 OA
BRANCH  29  31
ATOM     31  O   UNL     1       2.419   6.171  -0.692  0.00  0.00    -0.465 OA
ATOM     32  C   UNL     1       2.257   7.283  -1.574  0.00  0.00    +0.280 C 
ENDBRANCH  29  31
ENDBRANCH   3  29
TORSDOF 8
