REMARK  Name = ZINC04057091
REMARK  7 active torsions:
REMARK  status: ('A' for Active; 'I' for Inactive)
REMARK    1  A    between atoms: C_1  and  C_2
REMARK    2  A    between atoms: N_6  and  C_25
REMARK    3  A    between atoms: C_7  and  S_13
REMARK    4  A    between atoms: S_13  and  C_14
REMARK    5  A    between atoms: C_14  and  C_15
REMARK    6  A    between atoms: N_17  and  C_18
REMARK    7  A    between atoms: C_18  and  C_19
REMARK                            x       y       z     vdW  Elec       q    Type
REMARK                         _______ _______ _______ _____ _____    ______ ____
ROOT
ATOM      1  C   UNL     1       1.576  -0.140   0.945  0.00  0.00    +0.068 C 
ATOM      2  C   UNL     1       0.851  -1.347   0.408  0.00  0.00    +0.072 A 
ATOM      3  C   UNL     1       0.478  -1.553  -0.915  0.00  0.00    +0.082 A 
ATOM      4  C   UNL     1       0.629  -0.751  -2.143  0.00  0.00    +0.124 A 
ATOM      5  N   UNL     1       0.891   0.533  -2.143  0.00  0.00    -0.384 N 
ATOM      6  N   UNL     1       0.463  -1.509  -3.309  0.00  0.00    -0.275 N 
ATOM      7  C   UNL     1      -0.354  -2.611  -3.272  0.00  0.00    +0.177 A 
ATOM      8  N   UNL     1      -0.636  -3.268  -2.163  0.00  0.00    -0.204 NA
ATOM      9  C   UNL     1      -0.172  -2.806  -0.989  0.00  0.00    +0.162 A 
ATOM     10  N   UNL     1      -0.178  -3.306   0.262  0.00  0.00    -0.260 N 
ATOM     11  H   UNL     1      -0.559  -4.156   0.533  0.00  0.00    +0.191 HD
ATOM     12  N   UNL     1       0.468  -2.387   1.106  0.00  0.00    -0.177 NA
ATOM     13  H   UNL     1       0.970   1.012  -1.303  0.00  0.00    +0.157 HD
ATOM     14  H   UNL     1       1.006   1.005  -2.983  0.00  0.00    +0.157 HD
ENDROOT
BRANCH   6  15
ATOM     15  C   UNL     1       1.120  -1.148  -4.493  0.00  0.00    +0.050 A 
ATOM     16  C   UNL     1       2.416  -1.587  -4.731  0.00  0.00    +0.027 A 
ATOM     17  C   UNL     1       3.061  -1.231  -5.899  0.00  0.00    +0.017 A 
ATOM     18  C   UNL     1       2.417  -0.436  -6.831  0.00  0.00    +0.018 A 
ATOM     19  C   UNL     1       1.126   0.003  -6.596  0.00  0.00    +0.017 A 
ATOM     20  C   UNL     1       0.475  -0.356  -5.433  0.00  0.00    +0.027 A 
ATOM     21 BR   UNL     1       3.304   0.051  -8.429  0.00  0.00    -0.050 Br
ENDBRANCH   6  15
BRANCH   7  22
ATOM     22  S   UNL     1      -1.064  -3.176  -4.783  0.00  0.00    -0.078 S 
BRANCH  22  23
ATOM     23  C   UNL     1      -2.050  -4.617  -4.292  0.00  0.00    +0.173 C 
BRANCH  23  24
ATOM     24  C   UNL     1      -2.721  -5.205  -5.506  0.00  0.00    +0.223 C 
ATOM     25  O   UNL     1      -2.551  -4.700  -6.596  0.00  0.00    -0.275 OA
ATOM     26  N   UNL     1      -3.509  -6.290  -5.382  0.00  0.00    -0.312 N 
ATOM     27  H   UNL     1      -3.645  -6.694  -4.510  0.00  0.00    +0.149 HD
BRANCH  26  28
ATOM     28  C   UNL     1      -4.162  -6.861  -6.563  0.00  0.00    +0.135 C 
BRANCH  28  29
ATOM     29  C   UNL     1      -4.993  -8.077  -6.149  0.00  0.00    +0.135 C 
ATOM     30  C   UNL     1      -5.664  -8.718  -7.390  0.00  0.00    +0.035 C 
ATOM     31  C   UNL     1      -5.865 -10.177  -6.896  0.00  0.00    +0.031 C 
ATOM     32  C   UNL     1      -4.625 -10.393  -6.001  0.00  0.00    +0.160 C 
ATOM     33  O   UNL     1      -4.143  -9.102  -5.609  0.00  0.00    -0.375 OA
ENDBRANCH  28  29
ENDBRANCH  26  28
ENDBRANCH  23  24
ENDBRANCH  22  23
ENDBRANCH   7  22
TORSDOF 6
