REMARK  Name = ZINC67044723
REMARK  9 active torsions:
REMARK  status: ('A' for Active; 'I' for Inactive)
REMARK    1  A    between atoms: C_1  and  C_2
REMARK    2  A    between atoms: C_2  and  C_3
REMARK    3  A    between atoms: C_3  and  C_4
REMARK    4  A    between atoms: C_4  and  N_5
REMARK    5  A    between atoms: N_8  and  C_9
REMARK    6  A    between atoms: C_9  and  C_15
REMARK    7  A    between atoms: C_21  and  N_24
REMARK    8  A    between atoms: N_24  and  C_25
REMARK    9  A    between atoms: N_24  and  C_26
REMARK                            x       y       z     vdW  Elec       q    Type
REMARK                         _______ _______ _______ _____ _____    ______ ____
ROOT
ATOM      1  C   UNL     1       2.523  -5.671  -3.937  0.00  0.00    +0.112 C 
ATOM      2  C   UNL     1       3.330  -6.335  -2.819  0.00  0.00    +0.035 C 
ATOM      3  C   UNL     1       4.706  -5.672  -2.721  0.00  0.00    +0.003 C 
ATOM      4  C   UNL     1       5.446  -5.835  -4.050  0.00  0.00    +0.000 C 
ATOM      5  C   UNL     1       4.639  -5.172  -5.168  0.00  0.00    +0.003 C 
ATOM      6  C   UNL     1       3.264  -5.835  -5.266  0.00  0.00    +0.035 C 
ENDROOT
BRANCH   1   7
ATOM      7  C   UNL     1       1.168  -6.324  -4.034  0.00  0.00    +0.239 C 
ATOM      8  O   UNL     1       0.986  -7.418  -3.542  0.00  0.00    -0.273 OA
ATOM      9  N   UNL     1       0.160  -5.693  -4.667  0.00  0.00    -0.301 N 
ATOM     10  C   UNL     1       0.397  -4.429  -5.379  0.00  0.00    +0.107 C 
ATOM     11  C   UNL     1      -0.114  -4.570  -6.816  0.00  0.00    +0.017 C 
ATOM     12  C   UNL     1      -1.579  -5.012  -6.791  0.00  0.00    -0.012 C 
ATOM     13  C   UNL     1      -1.691  -6.374  -6.103  0.00  0.00    -0.052 C 
ATOM     14  C   UNL     1      -1.196  -6.257  -4.663  0.00  0.00    +0.092 C 
BRANCH  13  15
ATOM     15  N   UNL     1      -3.093  -6.812  -6.108  0.00  0.00    +0.379 N 
ATOM     16  C   UNL     1      -3.567  -6.924  -7.495  0.00  0.00    -0.096 C 
ATOM     17  C   UNL     1      -3.200  -8.120  -5.448  0.00  0.00    -0.096 C 
ATOM     18  H   UNL     1      -3.658  -6.138  -5.613  0.00  0.00    -0.082 HD
ENDBRANCH  13  15
ENDBRANCH   1   7
BRANCH   1  22
ATOM     19  N   UNL     1       1.407  -2.550  -2.351  0.00  0.00    -0.299 N 
ATOM     20  C   UNL     1       1.643  -3.859  -2.567  0.00  0.00    +0.300 C 
ATOM     21  O   UNL     1       1.210  -4.691  -1.794  0.00  0.00    -0.253 OA
ATOM     22  N   UNL     1       2.359  -4.246  -3.642  0.00  0.00    -0.285 N 
ATOM     23  H   UNL     1       1.689  -1.891  -3.005  0.00  0.00    +0.150 HD
ATOM     24  H   UNL     1       2.765  -3.581  -4.219  0.00  0.00    +0.151 HD
BRANCH  19  25
ATOM     25  C   UNL     1       0.725  -2.121  -1.128  0.00  0.00    +0.106 C 
BRANCH  25  26
ATOM     26  C   UNL     1       0.694  -0.592  -1.070  0.00  0.00    +0.018 C 
BRANCH  26  28
ATOM     27  C   UNL     1      -0.050   1.384   0.265  0.00  0.00    +0.004 C 
ATOM     28  C   UNL     1      -0.019  -0.144   0.207  0.00  0.00    -0.002 C 
ENDBRANCH  26  28
ENDBRANCH  25  26
ENDBRANCH  19  25
ENDBRANCH   1  22
TORSDOF 6
