REMARK  Name = ZINC08790428
REMARK  4 active torsions:
REMARK  status: ('A' for Active; 'I' for Inactive)
REMARK    1  A    between atoms: C_1  and  C_2
REMARK    2  A    between atoms: C_13  and  C_15
REMARK    3  A    between atoms: C_15  and  C_16
REMARK    4  A    between atoms: N_28  and  C_31
REMARK                            x       y       z     vdW  Elec       q    Type
REMARK                         _______ _______ _______ _____ _____    ______ ____
ROOT
ATOM      1  C   UNL     1       2.008  -9.888   0.140  0.00  0.00    +0.044 C 
ATOM      2  C   UNL     1       2.796  -8.677   0.569  0.00  0.00    -0.050 A 
ATOM      3  C   UNL     1       4.133  -8.802   0.899  0.00  0.00    +0.005 A 
ATOM      4  C   UNL     1       4.859  -7.697   1.294  0.00  0.00    +0.024 A 
ATOM      5  C   UNL     1       4.250  -6.446   1.361  0.00  0.00    +0.036 A 
ATOM      6  C   UNL     1       2.904  -6.333   1.027  0.00  0.00    -0.027 A 
ATOM      7  C   UNL     1       2.183  -7.439   0.634  0.00  0.00    +0.008 A 
ATOM      8  C   UNL     1       2.558  -4.881   1.202  0.00  0.00    +0.050 C 
ATOM      9  C   UNL     1       2.045  -4.264  -0.105  0.00  0.00    +0.088 C 
ATOM     10  C   UNL     1       0.497  -4.289   0.033  0.00  0.00    +0.074 C 
ATOM     11  C   UNL     1       0.232  -4.933   1.410  0.00  0.00    -0.053 C 
ATOM     12  C   UNL     1       0.129  -2.824   0.090  0.00  0.00    +0.228 C 
ATOM     13  O   UNL     1      -0.996  -2.389   0.215  0.00  0.00    -0.275 OA
ATOM     14  N   UNL     1       1.237  -2.082  -0.020  0.00  0.00    -0.210 N 
ATOM     15  C   UNL     1       2.368  -2.787  -0.133  0.00  0.00    +0.229 C 
ATOM     16  O   UNL     1       3.480  -2.316  -0.240  0.00  0.00    -0.275 OA
ATOM     17  C   UNL     1       3.833  -4.227   1.657  0.00  0.00    +0.211 C 
ATOM     18  O   UNL     1       3.994  -3.053   1.913  0.00  0.00    -0.277 OA
ATOM     19  N   UNL     1       4.764  -5.199   1.724  0.00  0.00    -0.286 N 
ATOM     20  H   UNL     1       5.684  -5.050   1.994  0.00  0.00    +0.155 HD
ATOM     21  N   UNL     1       1.474  -4.707   2.152  0.00  0.00    +0.394 N 
ATOM     22  H   UNL     1       1.489  -3.756   2.538  0.00  0.00    -0.083 HD
ATOM     23  H   UNL     1       1.559  -5.388   2.916  0.00  0.00    -0.083 HD
ENDROOT
BRANCH  14  24
ATOM     24  C   UNL     1       1.214  -0.680  -0.013  0.00  0.00    +0.044 A 
ATOM     25  C   UNL     1       1.557   0.027  -1.158  0.00  0.00    +0.024 A 
ATOM     26  C   UNL     1       1.534   1.408  -1.148  0.00  0.00    +0.002 A 
ATOM     27  C   UNL     1       1.170   2.086   0.001  0.00  0.00    +0.000 A 
ATOM     28  C   UNL     1       0.828   1.385   1.142  0.00  0.00    +0.002 A 
ATOM     29  C   UNL     1       0.849   0.004   1.138  0.00  0.00    +0.024 A 
ENDBRANCH  14  24
BRANCH  11  30
ATOM     30  C   UNL     1      -0.958  -4.257   2.093  0.00  0.00    +0.022 C 
BRANCH  30  31
ATOM     31  C   UNL     1      -1.229  -4.931   3.413  0.00  0.00    -0.024 A 
ATOM     32  C   UNL     1      -2.114  -5.915   3.640  0.00  0.00    +0.087 A 
ATOM     33  N   UNL     1      -2.082  -6.277   4.960  0.00  0.00    -0.360 N 
ATOM     34  H   UNL     1      -2.632  -6.967   5.362  0.00  0.00    +0.165 HD
ATOM     35  C   UNL     1      -1.152  -5.514   5.631  0.00  0.00    +0.047 A 
ATOM     36  C   UNL     1      -0.573  -4.643   4.691  0.00  0.00    +0.003 A 
ATOM     37  C   UNL     1       0.410  -3.737   5.093  0.00  0.00    +0.010 A 
ATOM     38  C   UNL     1       0.814  -3.710   6.399  0.00  0.00    +0.001 A 
ATOM     39  C   UNL     1       0.250  -4.572   7.329  0.00  0.00    +0.002 A 
ATOM     40  C   UNL     1      -0.726  -5.470   6.954  0.00  0.00    +0.026 A 
ENDBRANCH  30  31
ENDBRANCH  11  30
TORSDOF 3
