REMARK  Name = ZINC09860270
REMARK  10 active torsions:
REMARK  status: ('A' for Active; 'I' for Inactive)
REMARK    1  A    between atoms: C_1  and  C_2
REMARK    2  A    between atoms: C_7  and  C_39
REMARK    3  A    between atoms: C_9  and  C_10
REMARK    4  A    between atoms: C_9  and  N_72
REMARK    5  A    between atoms: C_10  and  N_11
REMARK    6  A    between atoms: C_12  and  C_14
REMARK    7  A    between atoms: C_14  and  C_15
REMARK    8  A    between atoms: C_15  and  C_16
REMARK    9  A    between atoms: C_16  and  C_17
REMARK   10  A    between atoms: C_31  and  C_33
REMARK                            x       y       z     vdW  Elec       q    Type
REMARK                         _______ _______ _______ _____ _____    ______ ____
ROOT
ATOM      1  C   UNL     1       3.116  -7.349   6.545  0.00  0.00    +0.139 A 
ATOM      2  N   UNL     1       2.610  -7.786   7.666  0.00  0.00    -0.132 NA
ATOM      3  N   UNL     1       3.548  -8.189   8.447  0.00  0.00    -0.108 NA
ATOM      4  C   UNL     1       4.715  -8.022   7.865  0.00  0.00    +0.259 A 
ATOM      5  N   UNL     1       4.470  -7.481   6.636  0.00  0.00    -0.263 N 
ATOM      6  C   UNL     1       5.509  -7.181   5.762  0.00  0.00    +0.062 A 
ATOM      7  C   UNL     1       5.260  -6.632   4.513  0.00  0.00    +0.027 A 
ATOM      8  C   UNL     1       6.311  -6.344   3.666  0.00  0.00    +0.002 A 
ATOM      9  C   UNL     1       7.617  -6.598   4.051  0.00  0.00    +0.001 A 
ATOM     10  C   UNL     1       7.884  -7.144   5.289  0.00  0.00    +0.013 A 
ATOM     11  C   UNL     1       6.832  -7.439   6.153  0.00  0.00    +0.043 A 
ATOM     12  C   UNL     1       7.074  -8.023   7.485  0.00  0.00    +0.169 A 
ATOM     13  N   UNL     1       6.004  -8.291   8.288  0.00  0.00    -0.177 N 
ATOM     14  N   UNL     1       6.527  -8.832   9.472  0.00  0.00    -0.142 NA
ATOM     15  C   UNL     1       7.837  -8.863   9.334  0.00  0.00    +0.182 A 
ATOM     16  N   UNL     1       8.164  -8.374   8.132  0.00  0.00    -0.206 NA
ENDROOT
BRANCH  15  17
ATOM     17  C   UNL     1       8.797  -9.361  10.349  0.00  0.00    +0.021 A 
ATOM     18  C   UNL     1      10.165  -9.348  10.084  0.00  0.00    +0.011 A 
ATOM     19  C   UNL     1      11.054  -9.809  11.034  0.00  0.00    +0.001 A 
ATOM     20  C   UNL     1      10.588 -10.293  12.243  0.00  0.00    +0.000 A 
ATOM     21  C   UNL     1       9.231 -10.313  12.510  0.00  0.00    +0.001 A 
ATOM     22  C   UNL     1       8.334  -9.850  11.569  0.00  0.00    +0.011 A 
ENDBRANCH  15  17
BRANCH   1  23
ATOM     23  C   UNL     1       2.348  -6.795   5.373  0.00  0.00    +0.077 C 
BRANCH  23  24
ATOM     24  C   UNL     1       2.329  -5.268   5.451  0.00  0.00    +0.017 C 
BRANCH  24  25
ATOM     25  C   UNL     1       1.550  -4.706   4.260  0.00  0.00    +0.096 C 
BRANCH  25  27
ATOM     26  N   UNL     1       0.897  -2.485   3.387  0.00  0.00    -0.317 N 
ATOM     27  C   UNL     1       1.531  -3.201   4.337  0.00  0.00    +0.213 C 
ATOM     28  O   UNL     1       2.087  -2.634   5.253  0.00  0.00    -0.276 OA
ATOM     29  H   UNL     1       0.453  -2.939   2.654  0.00  0.00    +0.149 HD
BRANCH  26  30
ATOM     30  C   UNL     1       0.880  -1.022   3.461  0.00  0.00    +0.085 C 
BRANCH  30  31
ATOM     31  C   UNL     1       0.100  -0.460   2.271  0.00  0.00    -0.059 C 
BRANCH  31  39
ATOM     32  C   UNL     1       0.333   1.054  -0.089  0.00  0.00    -0.013 C 
ATOM     33  C   UNL     1      -0.453   1.590   1.109  0.00  0.00    -0.071 C 
ATOM     34  C   UNL     1      -0.322   3.114   1.164  0.00  0.00    -0.016 C 
ATOM     35  C   UNL     1      -1.093   3.644   2.376  0.00  0.00    -0.003 C 
ATOM     36  C   UNL     1      -0.548   2.985   3.646  0.00  0.00    -0.016 C 
ATOM     37  C   UNL     1      -0.673   1.465   3.519  0.00  0.00    -0.071 C 
ATOM     38  C   UNL     1      -2.146   1.086   3.357  0.00  0.00    -0.013 C 
ATOM     39  N   UNL     1       0.111   1.015   2.349  0.00  0.00    +0.384 N 
ATOM     40  H   UNL     1       1.080   1.336   2.454  0.00  0.00    -0.081 HD
ENDBRANCH  31  39
ENDBRANCH  30  31
ENDBRANCH  26  30
ENDBRANCH  25  27
ENDBRANCH  24  25
ENDBRANCH  23  24
ENDBRANCH   1  23
TORSDOF 8
