REMARK  Name = ZINC12364210
REMARK  9 active torsions:
REMARK  status: ('A' for Active; 'I' for Inactive)
REMARK    1  A    between atoms: C_1  and  C_2
REMARK    2  A    between atoms: C_7  and  N_8
REMARK    3  A    between atoms: C_12  and  C_13
REMARK    4  A    between atoms: C_15  and  C_28
REMARK    5  A    between atoms: N_16  and  C_19
REMARK    6  A    between atoms: C_17  and  C_18
REMARK    7  A    between atoms: C_22  and  N_25
REMARK    8  A    between atoms: N_25  and  C_26
REMARK    9  A    between atoms: N_25  and  C_27
REMARK                            x       y       z     vdW  Elec       q    Type
REMARK                         _______ _______ _______ _____ _____    ______ ____
ROOT
ATOM      1  N   UNL     1      -1.511   1.950  -2.553  0.00  0.00    -0.190 N 
ATOM      2  C   UNL     1      -1.263   2.850  -1.579  0.00  0.00    +0.263 C 
ATOM      3  O   UNL     1      -2.135   3.180  -0.797  0.00  0.00    -0.269 OA
ATOM      4  C   UNL     1       0.090   3.427  -1.492  0.00  0.00    +0.100 C 
ATOM      5  C   UNL     1       0.418   4.357  -0.518  0.00  0.00    +0.028 C 
ATOM      6  C   UNL     1       1.079   2.973  -2.486  0.00  0.00    +0.257 C 
ATOM      7  O   UNL     1       2.217   3.404  -2.479  0.00  0.00    -0.270 OA
ATOM      8  N   UNL     1       0.688   2.066  -3.405  0.00  0.00    -0.235 N 
ATOM      9  C   UNL     1      -0.561   1.582  -3.425  0.00  0.00    +0.320 C 
ATOM     10  O   UNL     1      -0.850   0.767  -4.279  0.00  0.00    -0.251 OA
ATOM     11  H   UNL     1       1.327   1.756  -4.067  0.00  0.00    +0.159 HD
ENDROOT
BRANCH   1  18
ATOM     12  C   UNL     1      -2.043  -0.453  -1.123  0.00  0.00    +0.045 C 
ATOM     13  C   UNL     1      -3.091   0.216  -1.975  0.00  0.00    -0.029 A 
ATOM     14  C   UNL     1      -4.355  -0.334  -2.074  0.00  0.00    +0.005 A 
ATOM     15  C   UNL     1      -5.316   0.276  -2.859  0.00  0.00    +0.000 A 
ATOM     16  C   UNL     1      -5.017   1.440  -3.544  0.00  0.00    +0.002 A 
ATOM     17  C   UNL     1      -3.757   1.997  -3.444  0.00  0.00    +0.024 A 
ATOM     18  C   UNL     1      -2.790   1.387  -2.656  0.00  0.00    +0.049 A 
ENDBRANCH   1  18
BRANCH   5  19
ATOM     19  C   UNL     1       1.763   4.766  -0.355  0.00  0.00    -0.003 A 
ATOM     20  C   UNL     1       2.956   3.906  -0.340  0.00  0.00    +0.031 A 
ATOM     21  C   UNL     1       4.008   4.720  -0.160  0.00  0.00    +0.022 A 
ATOM     22  N   UNL     1       3.568   6.012  -0.062  0.00  0.00    -0.317 N 
ATOM     23  C   UNL     1       2.228   6.062  -0.183  0.00  0.00    +0.028 A 
ATOM     24  C   UNL     1       1.382   7.308  -0.134  0.00  0.00    +0.064 C 
ATOM     25  C   UNL     1       5.447   4.281  -0.079  0.00  0.00    +0.064 C 
BRANCH  22  26
ATOM     26  C   UNL     1       4.396   7.127   0.130  0.00  0.00    +0.047 A 
ATOM     27  C   UNL     1       4.298   7.872   1.298  0.00  0.00    +0.028 A 
ATOM     28  C   UNL     1       5.117   8.966   1.489  0.00  0.00    +0.025 A 
ATOM     29  C   UNL     1       6.032   9.329   0.509  0.00  0.00    +0.029 A 
ATOM     30  C   UNL     1       6.126   8.587  -0.662  0.00  0.00    +0.025 A 
ATOM     31  C   UNL     1       5.311   7.489  -0.851  0.00  0.00    +0.028 A 
BRANCH  29  32
ATOM     32  N   UNL     1       6.858  10.440   0.701  0.00  0.00    -0.336 N 
ATOM     33  C   UNL     1       7.797  10.845  -0.349  0.00  0.00    +0.129 C 
ATOM     34  C   UNL     1       6.785  11.200   1.951  0.00  0.00    +0.129 C 
ENDBRANCH  29  32
ENDBRANCH  22  26
ENDBRANCH   5  19
TORSDOF 4
