REMARK  Name = ZINC20242835
REMARK  14 active torsions:
REMARK  status: ('A' for Active; 'I' for Inactive)
REMARK    1  A    between atoms: C_1  and  C_2
REMARK    2  A    between atoms: C_2  and  C_3
REMARK    3  A    between atoms: C_2  and  C_4
REMARK    4  A    between atoms: C_4  and  N_5
REMARK    5  A    between atoms: N_5  and  C_6
REMARK    6  A    between atoms: N_5  and  C_35
REMARK    7  A    between atoms: C_6  and  C_7
REMARK    8  A    between atoms: C_7  and  N_8
REMARK    9  A    between atoms: C_9  and  C_11
REMARK   10  A    between atoms: N_17  and  C_28
REMARK   11  A    between atoms: C_28  and  C_29
REMARK   12  A    between atoms: C_35  and  C_36
REMARK   13  A    between atoms: C_36  and  C_37
REMARK   14  A    between atoms: C_36  and  C_38
REMARK                            x       y       z     vdW  Elec       q    Type
REMARK                         _______ _______ _______ _____ _____    ______ ____
ROOT
ATOM      1  C   UNL     1       1.637   2.265  -0.012  0.00  0.00    +0.039 A 
ATOM      2  C   UNL     1       0.379   1.676  -0.157  0.00  0.00    +0.014 A 
ATOM      3  C   UNL     1      -0.745   2.472  -0.210  0.00  0.00    +0.020 A 
ATOM      4  C   UNL     1      -0.636   3.849  -0.111  0.00  0.00    +0.065 A 
ATOM      5  C   UNL     1       0.605   4.449   0.031  0.00  0.00    +0.054 A 
ATOM      6  C   UNL     1       1.746   3.649   0.081  0.00  0.00    +0.037 A 
ATOM      7  N   UNL     1       0.759   5.821   0.120  0.00  0.00    -0.262 N 
ATOM      8  C   UNL     1       0.102   6.707   0.821  0.00  0.00    +0.252 C 
ATOM      9  O   UNL     1       0.489   7.854   0.713  0.00  0.00    -0.270 OA
ATOM     10  C   UNL     1      -1.038   6.506   1.720  0.00  0.00    +0.053 A 
ATOM     11  C   UNL     1      -1.063   7.171   2.953  0.00  0.00    +0.014 A 
ATOM     12  C   UNL     1      -2.124   6.993   3.813  0.00  0.00    +0.001 A 
ATOM     13  C   UNL     1      -3.171   6.157   3.466  0.00  0.00    +0.001 A 
ATOM     14  C   UNL     1      -3.156   5.498   2.251  0.00  0.00    +0.018 A 
ATOM     15  C   UNL     1      -2.099   5.671   1.380  0.00  0.00    +0.056 A 
ATOM     16  S   UNL     1      -2.097   4.834  -0.170  0.00  0.00    +0.088 S 
ATOM     17  O   UNL     1      -1.788   5.853  -1.111  0.00  0.00    -0.247 OA
ENDROOT
BRANCH   1  19
ATOM     18  N   UNL     1       2.742   0.080  -0.047  0.00  0.00    -0.313 N 
ATOM     19  C   UNL     1       2.849   1.421   0.043  0.00  0.00    +0.244 C 
ATOM     20  O   UNL     1       3.943   1.935   0.168  0.00  0.00    -0.270 OA
ATOM     21  H   UNL     1       1.752  -0.386  -0.161  0.00  0.00    +0.149 HD
BRANCH  18  22
ATOM     22  C   UNL     1       3.943  -0.756   0.007  0.00  0.00    +0.086 C 
BRANCH  22  23
ATOM     23  C   UNL     1       3.545  -2.229  -0.115  0.00  0.00    -0.060 C 
BRANCH  23  24
ATOM     24  N   UNL     1       4.750  -3.068  -0.061  0.00  0.00    +0.381 N 
ATOM     25  H   UNL     1       5.463  -2.684  -0.805  0.00  0.00    -0.082 HD
BRANCH  24  26
ATOM     26  C   UNL     1       5.388  -2.987   1.260  0.00  0.00    -0.076 C 
BRANCH  26  28
ATOM     27  C   UNL     1       7.637  -2.638   0.229  0.00  0.00    +0.005 C 
ATOM     28  C   UNL     1       6.818  -3.525   1.168  0.00  0.00    -0.034 C 
ATOM     29  C   UNL     1       7.455  -3.519   2.560  0.00  0.00    +0.005 C 
ENDBRANCH  26  28
ENDBRANCH  24  26
BRANCH  24  30
ATOM     30  C   UNL     1       4.438  -4.460  -0.411  0.00  0.00    -0.076 C 
BRANCH  30  31
ATOM     31  C   UNL     1       4.221  -4.570  -1.921  0.00  0.00    -0.034 C 
ATOM     32  C   UNL     1       5.534  -4.270  -2.648  0.00  0.00    +0.005 C 
ATOM     33  C   UNL     1       3.758  -5.986  -2.268  0.00  0.00    +0.005 C 
ENDBRANCH  30  31
ENDBRANCH  24  30
ENDBRANCH  23  24
ENDBRANCH  22  23
ENDBRANCH  18  22
ENDBRANCH   1  19
BRANCH   7  34
ATOM     34  C   UNL     1       1.836   6.372  -0.706  0.00  0.00    +0.149 C 
BRANCH  34  35
ATOM     35  C   UNL     1       1.293   6.733  -2.064  0.00  0.00    -0.030 A 
ATOM     36  C   UNL     1       1.307   5.801  -3.085  0.00  0.00    +0.005 A 
ATOM     37  C   UNL     1       0.805   6.131  -4.330  0.00  0.00    +0.000 A 
ATOM     38  C   UNL     1       0.297   7.396  -4.556  0.00  0.00    +0.000 A 
ATOM     39  C   UNL     1       0.287   8.330  -3.537  0.00  0.00    +0.000 A 
ATOM     40  C   UNL     1       0.785   7.999  -2.291  0.00  0.00    +0.005 A 
ENDBRANCH  34  35
ENDBRANCH   7  34
TORSDOF 10
