REMARK  Name = ZINC15077485
REMARK  7 active torsions:
REMARK  status: ('A' for Active; 'I' for Inactive)
REMARK    1  A    between atoms: C_1  and  N_2
REMARK    2  A    between atoms: N_2  and  C_3
REMARK    3  A    between atoms: C_3  and  C_4
REMARK    4  A    between atoms: C_14  and  C_16
REMARK    5  A    between atoms: C_16  and  C_17
REMARK    6  A    between atoms: N_24  and  C_25
REMARK    7  A    between atoms: C_25  and  C_26
REMARK                            x       y       z     vdW  Elec       q    Type
REMARK                         _______ _______ _______ _____ _____    ______ ____
ROOT
ATOM      1  C   UNL     1       0.307  -1.108  -3.669  0.00  0.00    +0.152 C 
ATOM      2  C   UNL     1      -1.037  -1.742  -3.893  0.00  0.00    +0.231 C 
ATOM      3  O   UNL     1      -2.029  -1.049  -3.803  0.00  0.00    -0.274 OA
ATOM      4  N   UNL     1      -1.186  -3.038  -4.187  0.00  0.00    -0.313 N 
ATOM      5  C   UNL     1      -0.061  -3.964  -4.283  0.00  0.00    +0.119 C 
ATOM      6  C   UNL     1       1.245  -3.187  -4.453  0.00  0.00    +0.104 C 
ATOM      7  N   UNL     1       1.313  -2.147  -3.414  0.00  0.00    -0.285 NA
ATOM      8  H   UNL     1      -2.081  -3.378  -4.343  0.00  0.00    +0.149 HD
ENDROOT
BRANCH   1   9
ATOM      9  C   UNL     1       0.231  -0.168  -2.464  0.00  0.00    +0.124 C 
BRANCH   9  12
ATOM     10  C   UNL     1       0.080   1.091   0.073  0.00  0.00    +0.132 C 
ATOM     11  N   UNL     1      -0.107  -0.359  -0.021  0.00  0.00    -0.304 N 
ATOM     12  C   UNL     1      -0.091  -0.964  -1.226  0.00  0.00    +0.217 C 
ATOM     13  O   UNL     1      -0.335  -2.149  -1.312  0.00  0.00    -0.276 OA
BRANCH  11  14
ATOM     14  C   UNL     1      -0.311  -1.152   1.194  0.00  0.00    +0.114 C 
BRANCH  14  15
ATOM     15  C   UNL     1      -1.805  -1.215   1.517  0.00  0.00    -0.013 C 
ATOM     16  C   UNL     1      -2.366   0.205   1.613  0.00  0.00    +0.012 C 
ATOM     17  C   UNL     1      -3.861   0.141   1.936  0.00  0.00    -0.010 C 
ATOM     18  C   UNL     1      -4.064  -0.579   3.270  0.00  0.00    +0.007 C 
ATOM     19  C   UNL     1      -3.502  -1.999   3.174  0.00  0.00    -0.010 C 
ATOM     20  C   UNL     1      -2.008  -1.936   2.851  0.00  0.00    +0.012 C 
ATOM     21  C   UNL     1      -4.231  -2.762   2.066  0.00  0.00    +0.007 C 
ATOM     22  C   UNL     1      -4.028  -2.042   0.732  0.00  0.00    -0.010 C 
ATOM     23  C   UNL     1      -4.590  -0.622   0.828  0.00  0.00    +0.007 C 
ATOM     24  C   UNL     1      -2.534  -1.978   0.409  0.00  0.00    +0.012 C 
ENDBRANCH  14  15
ENDBRANCH  11  14
ENDBRANCH   9  12
ENDBRANCH   1   9
BRANCH   7  25
ATOM     25  C   UNL     1       2.661  -1.568  -3.339  0.00  0.00    +0.123 C 
BRANCH  25  26
ATOM     26  C   UNL     1       3.639  -2.626  -2.897  0.00  0.00    +0.005 A 
ATOM     27  C   UNL     1       3.966  -2.749  -1.560  0.00  0.00    +0.008 A 
ATOM     28  C   UNL     1       4.862  -3.719  -1.152  0.00  0.00    +0.003 A 
ATOM     29  C   UNL     1       5.434  -4.568  -2.082  0.00  0.00    +0.041 A 
ATOM     30  C   UNL     1       5.109  -4.447  -3.421  0.00  0.00    +0.159 A 
ATOM     31  C   UNL     1       4.205  -3.477  -3.829  0.00  0.00    +0.163 A 
ATOM     32  F   UNL     1       3.882  -3.361  -5.136  0.00  0.00    -0.202 F 
ATOM     33  F   UNL     1       5.668  -5.276  -4.330  0.00  0.00    -0.202 F 
ENDBRANCH  25  26
ENDBRANCH   7  25
TORSDOF 6
