REMARK  Name = ZINC39266182
REMARK  14 active torsions:
REMARK  status: ('A' for Active; 'I' for Inactive)
REMARK    1  A    between atoms: C_1  and  C_2
REMARK    2  A    between atoms: C_2  and  C_3
REMARK    3  A    between atoms: C_2  and  C_4
REMARK    4  A    between atoms: C_2  and  C_35
REMARK    5  A    between atoms: C_4  and  N_5
REMARK    6  A    between atoms: C_6  and  C_8
REMARK    7  A    between atoms: C_8  and  N_9
REMARK    8  A    between atoms: C_10  and  C_29
REMARK    9  A    between atoms: C_19  and  O_21
REMARK   10  A    between atoms: O_21  and  C_22
REMARK   11  A    between atoms: C_22  and  C_23
REMARK   12  A    between atoms: C_35  and  N_36
REMARK   13  A    between atoms: N_36  and  C_37
REMARK   14  A    between atoms: N_36  and  C_38
REMARK                            x       y       z     vdW  Elec       q    Type
REMARK                         _______ _______ _______ _____ _____    ______ ____
ROOT
ATOM      1  N   UNL     1      -5.642   1.772   2.367  0.00  0.00    -0.281 N 
ATOM      2  C   UNL     1      -6.822   2.403   1.787  0.00  0.00    +0.139 C 
ATOM      3  C   UNL     1      -7.665   1.437   2.600  0.00  0.00    +0.139 C 
ATOM      4  C   UNL     1      -6.359   0.902   3.092  0.00  0.00    +0.243 C 
ATOM      5  O   UNL     1      -6.060   0.013   3.860  0.00  0.00    -0.273 OA
ATOM      6  C   UNL     1      -8.562   2.086   3.668  0.00  0.00    +0.039 C 
ATOM      7  C   UNL     1      -9.988   1.893   3.083  0.00  0.00    +0.022 C 
ATOM      8  C   UNL     1      -9.855   0.515   2.386  0.00  0.00    +0.112 C 
ATOM      9  N   UNL     1      -8.488   0.502   1.830  0.00  0.00    -0.251 N 
ATOM     10  C   UNL     1      -8.068  -0.244   0.789  0.00  0.00    +0.404 C 
ATOM     11  O   UNL     1      -6.895  -0.241   0.473  0.00  0.00    -0.226 OA
ENDROOT
BRANCH   2  12
ATOM     12  C   UNL     1      -6.941   2.202   0.298  0.00  0.00    -0.024 A 
ATOM     13  C   UNL     1      -8.188   2.082  -0.285  0.00  0.00    +0.005 A 
ATOM     14  C   UNL     1      -8.297   1.896  -1.651  0.00  0.00    +0.000 A 
ATOM     15  C   UNL     1      -7.159   1.832  -2.433  0.00  0.00    +0.000 A 
ATOM     16  C   UNL     1      -5.912   1.952  -1.849  0.00  0.00    +0.000 A 
ATOM     17  C   UNL     1      -5.803   2.142  -0.484  0.00  0.00    +0.005 A 
ENDBRANCH   2  12
BRANCH   1  18
ATOM     18  C   UNL     1      -4.204   1.999   2.210  0.00  0.00    +0.204 C 
BRANCH  18  20
ATOM     19  N   UNL     1      -2.333   1.038   0.909  0.00  0.00    -0.314 N 
ATOM     20  C   UNL     1      -3.648   1.025   1.204  0.00  0.00    +0.230 C 
ATOM     21  O   UNL     1      -4.383   0.230   0.659  0.00  0.00    -0.274 OA
ATOM     22  H   UNL     1      -1.744   1.674   1.344  0.00  0.00    +0.149 HD
BRANCH  19  23
ATOM     23  C   UNL     1      -1.792   0.091  -0.070  0.00  0.00    +0.108 C 
BRANCH  23  25
ATOM     24  C   UNL     1      -0.029   1.746  -0.697  0.00  0.00    +0.010 C 
ATOM     25  C   UNL     1      -0.286   0.316  -0.219  0.00  0.00    -0.034 C 
ATOM     26  C   UNL     1       0.398   0.099   1.132  0.00  0.00    +0.010 C 
BRANCH  25  27
ATOM     27  C   UNL     1       0.278  -0.673  -1.241  0.00  0.00    -0.072 C 
BRANCH  27  28
ATOM     28  N   UNL     1       1.739  -0.528  -1.308  0.00  0.00    +0.376 N 
ATOM     29  C   UNL     1       2.362  -1.359  -0.269  0.00  0.00    -0.097 C 
ATOM     30  C   UNL     1       2.213  -0.958  -2.630  0.00  0.00    -0.097 C 
ATOM     31  H   UNL     1       1.988   0.439  -1.159  0.00  0.00    -0.083 HD
ENDBRANCH  27  28
ENDBRANCH  25  27
ENDBRANCH  23  25
ENDBRANCH  19  23
ENDBRANCH  18  20
ENDBRANCH   1  18
BRANCH  10  32
ATOM     32  O   UNL     1      -8.949  -0.993   0.099  0.00  0.00    -0.445 OA
BRANCH  32  33
ATOM     33  C   UNL     1      -8.434  -1.759  -0.993  0.00  0.00    +0.269 C 
BRANCH  33  34
ATOM     34  C   UNL     1      -9.557  -2.527  -1.641  0.00  0.00    -0.010 A 
ATOM     35  C   UNL     1      -9.874  -3.796  -1.194  0.00  0.00    +0.007 A 
ATOM     36  C   UNL     1     -10.904  -4.501  -1.789  0.00  0.00    +0.000 A 
ATOM     37  C   UNL     1     -11.617  -3.936  -2.830  0.00  0.00    +0.000 A 
ATOM     38  C   UNL     1     -11.301  -2.666  -3.276  0.00  0.00    +0.000 A 
ATOM     39  C   UNL     1     -10.274  -1.960  -2.678  0.00  0.00    +0.007 A 
ENDBRANCH  33  34
ENDBRANCH  32  33
ENDBRANCH  10  32
TORSDOF 10
