REMARK  Name = ZINC36205736
REMARK  16 active torsions:
REMARK  status: ('A' for Active; 'I' for Inactive)
REMARK    1  A    between atoms: C_1  and  C_2
REMARK    2  A    between atoms: C_7  and  C_8
REMARK    3  A    between atoms: C_17  and  C_19
REMARK    4  A    between atoms: C_19  and  N_20
REMARK    5  A    between atoms: N_20  and  C_21
REMARK    6  A    between atoms: N_20  and  C_31
REMARK    7  A    between atoms: C_21  and  C_22
REMARK    8  A    between atoms: C_22  and  C_24
REMARK    9  A    between atoms: C_22  and  O_30
REMARK   10  A    between atoms: C_24  and  O_25
REMARK   11  A    between atoms: O_25  and  C_26
REMARK   12  A    between atoms: C_26  and  C_27
REMARK   13  A    between atoms: C_26  and  C_28
REMARK   14  A    between atoms: C_26  and  C_29
REMARK   15  A    between atoms: C_31  and  C_32
REMARK   16  A    between atoms: C_31  and  C_33
REMARK                            x       y       z     vdW  Elec       q    Type
REMARK                         _______ _______ _______ _____ _____    ______ ____
ROOT
ATOM      1  C   UNL     1       1.000   3.964   1.315  0.00  0.00    +0.004 A 
ATOM      2  C   UNL     1       2.055   4.406   2.042  0.00  0.00    +0.056 A 
ATOM      3  S   UNL     1       1.345   4.729   3.644  0.00  0.00    -0.076 S 
ATOM      4  C   UNL     1      -0.335   4.269   3.304  0.00  0.00    +0.116 A 
ATOM      5  C   UNL     1      -0.307   3.880   1.955  0.00  0.00    +0.080 A 
ATOM      6  C   UNL     1      -1.559   3.455   1.407  0.00  0.00    +0.260 A 
ATOM      7  O   UNL     1      -1.635   3.094   0.245  0.00  0.00    -0.267 OA
ATOM      8  N   UNL     1      -2.651   3.459   2.193  0.00  0.00    -0.312 N 
ATOM      9  H   UNL     1      -3.502   3.172   1.827  0.00  0.00    +0.170 HD
ATOM     10  C   UNL     1      -2.584   3.857   3.490  0.00  0.00    +0.094 A 
ATOM     11  N   UNL     1      -1.455   4.242   4.021  0.00  0.00    -0.229 NA
ENDROOT
BRANCH   1  18
ATOM     12  C   UNL     1      -0.317   5.499  -0.754  0.00  0.00    +0.044 C 
ATOM     13  C   UNL     1       0.540   4.312  -1.111  0.00  0.00    -0.043 A 
ATOM     14  C   UNL     1       0.708   3.952  -2.433  0.00  0.00    +0.004 A 
ATOM     15  C   UNL     1       1.494   2.863  -2.762  0.00  0.00    +0.000 A 
ATOM     16  C   UNL     1       2.118   2.128  -1.769  0.00  0.00    +0.001 A 
ATOM     17  C   UNL     1       1.958   2.478  -0.444  0.00  0.00    +0.009 A 
ATOM     18  C   UNL     1       1.171   3.579  -0.107  0.00  0.00    -0.014 A 
ENDBRANCH   1  18
BRANCH  10  19
ATOM     19  C   UNL     1      -3.833   3.845   4.333  0.00  0.00    -0.003 C 
BRANCH  19  20
ATOM     20  N   UNL     1      -3.484   4.135   5.730  0.00  0.00    +0.388 N 
ATOM     21  H   UNL     1      -2.709   4.781   5.755  0.00  0.00    -0.081 HD
BRANCH  20  22
ATOM     22  C   UNL     1      -3.105   2.889   6.409  0.00  0.00    -0.074 C 
ATOM     23  C   UNL     1      -4.270   1.898   6.344  0.00  0.00    -0.014 C 
ATOM     24  C   UNL     1      -1.881   2.283   5.719  0.00  0.00    -0.014 C 
ENDBRANCH  20  22
BRANCH  20  25
ATOM     25  C   UNL     1      -4.641   4.731   6.410  0.00  0.00    -0.044 C 
BRANCH  25  26
ATOM     26  C   UNL     1      -4.232   5.180   7.815  0.00  0.00    +0.124 C 
BRANCH  26  27
ATOM     27  O   UNL     1      -3.975   4.031   8.625  0.00  0.00    -0.391 OA
ATOM     28  H   UNL     1      -4.715   3.411   8.674  0.00  0.00    +0.210 HD
ENDBRANCH  26  27
BRANCH  26  29
ATOM     29  C   UNL     1      -5.362   6.001   8.438  0.00  0.00    +0.189 C 
BRANCH  29  30
ATOM     30  O   UNL     1      -4.936   6.517   9.700  0.00  0.00    -0.372 OA
BRANCH  30  31
ATOM     31  C   UNL     1      -5.924   7.304  10.370  0.00  0.00    +0.061 C 
ATOM     32  C   UNL     1      -7.168   6.451  10.627  0.00  0.00    +0.041 C 
ATOM     33  C   UNL     1      -5.362   7.801  11.703  0.00  0.00    +0.041 C 
ATOM     34  C   UNL     1      -6.300   8.502   9.496  0.00  0.00    +0.041 C 
ENDBRANCH  30  31
ENDBRANCH  29  30
ENDBRANCH  26  29
ENDBRANCH  25  26
ENDBRANCH  20  25
ENDBRANCH  19  20
ENDBRANCH  10  19
TORSDOF 10
