REMARK  Name = ZINC05214928
REMARK  4 active torsions:
REMARK  status: ('A' for Active; 'I' for Inactive)
REMARK    1  A    between atoms: C_9  and  N_19
REMARK    2  A    between atoms: C_10  and  N_13
REMARK    3  A    between atoms: N_19  and  C_20
REMARK    4  A    between atoms: C_23  and  C_26
REMARK                            x       y       z     vdW  Elec       q    Type
REMARK                         _______ _______ _______ _____ _____    ______ ____
ROOT
ATOM      1  C   UNL     1       0.776   7.931   0.154  0.00  0.00    +0.001 A 
ATOM      2  C   UNL     1      -0.473   8.516   0.222  0.00  0.00    +0.001 A 
ATOM      3  C   UNL     1      -1.616   7.731   0.244  0.00  0.00    +0.012 A 
ATOM      4  C   UNL     1      -1.504   6.347   0.198  0.00  0.00    +0.034 A 
ATOM      5  C   UNL     1      -0.233   5.752   0.129  0.00  0.00    +0.034 A 
ATOM      6  C   UNL     1       0.903   6.551   0.107  0.00  0.00    +0.012 A 
ATOM      7  C   UNL     1      -0.121   4.276   0.080  0.00  0.00    +0.210 C 
ATOM      8  O   UNL     1       0.973   3.749   0.021  0.00  0.00    -0.285 OA
ATOM      9  C   UNL     1      -1.338   3.449   0.105  0.00  0.00    +0.104 C 
ATOM     10  C   UNL     1      -2.568   4.026   0.166  0.00  0.00    +0.103 C 
ATOM     11  C   UNL     1      -2.710   5.490   0.221  0.00  0.00    +0.210 C 
ATOM     12  O   UNL     1      -3.815   5.993   0.280  0.00  0.00    -0.285 OA
ENDROOT
BRANCH  10  13
ATOM     13  N   UNL     1      -3.704   3.224   0.182  0.00  0.00    -0.325 N 
ATOM     14  C   UNL     1      -3.953   2.301   1.299  0.00  0.00    +0.105 C 
ATOM     15  C   UNL     1      -5.356   2.579   1.859  0.00  0.00    +0.019 C 
ATOM     16  C   UNL     1      -6.380   2.484   0.725  0.00  0.00    +0.003 C 
ATOM     17  C   UNL     1      -6.067   3.541  -0.337  0.00  0.00    +0.019 C 
ATOM     18  C   UNL     1      -4.675   3.278  -0.919  0.00  0.00    +0.105 C 
ENDBRANCH  10  13
BRANCH   9  19
ATOM     19  N   UNL     1      -1.230   2.064   0.059  0.00  0.00    -0.310 N 
ATOM     20  H   UNL     1      -1.635   1.570  -0.671  0.00  0.00    +0.152 HD
BRANCH  19  21
ATOM     21  C   UNL     1      -0.540   1.387   1.058  0.00  0.00    +0.032 A 
ATOM     22  C   UNL     1      -0.097   2.075   2.185  0.00  0.00    +0.024 A 
ATOM     23  C   UNL     1       0.591   1.409   3.174  0.00  0.00    +0.020 A 
ATOM     24  C   UNL     1       0.845   0.040   3.046  0.00  0.00    +0.052 A 
ATOM     25  C   UNL     1       0.399  -0.648   1.913  0.00  0.00    +0.020 A 
ATOM     26  C   UNL     1      -0.288   0.024   0.928  0.00  0.00    +0.024 A 
BRANCH  24  27
ATOM     27  C   UNL     1       1.560  -0.656   4.073  0.00  0.00    +0.099 C 
ATOM     28  N   UNL     1       2.128  -1.208   4.887  0.00  0.00    -0.191 NA
ENDBRANCH  24  27
ENDBRANCH  19  21
ENDBRANCH   9  19
TORSDOF 4
