REMARK  Name = ZINC12550388
REMARK  6 active torsions:
REMARK  status: ('A' for Active; 'I' for Inactive)
REMARK    1  A    between atoms: C_1  and  C_2
REMARK    2  A    between atoms: C_11  and  N_15
REMARK    3  A    between atoms: N_15  and  C_16
REMARK    4  A    between atoms: C_16  and  C_18
REMARK    5  A    between atoms: C_16  and  C_25
REMARK    6  A    between atoms: N_29  and  C_30
REMARK                            x       y       z     vdW  Elec       q    Type
REMARK                         _______ _______ _______ _____ _____    ______ ____
ROOT
ATOM      1  N   UNL     1      -2.854   0.432   0.034  0.00  0.00    -0.315 N 
ATOM      2  H   UNL     1      -2.129  -0.207  -0.049  0.00  0.00    +0.148 HD
ENDROOT
BRANCH   1  12
ATOM      3  C   UNL     1       3.821  -0.469  -0.002  0.00  0.00    +0.008 C 
ATOM      4  C   UNL     1       2.473   0.191  -0.303  0.00  0.00    -0.009 C 
ATOM      5  C   UNL     1       1.375  -0.483   0.525  0.00  0.00    +0.008 C 
ATOM      6  C   UNL     1       0.002  -0.004   0.053  0.00  0.00    +0.037 C 
ATOM      7  C   UNL     1      -0.019   1.522   0.056  0.00  0.00    -0.025 A 
ATOM      8  C   UNL     1       1.137   2.224   0.066  0.00  0.00    -0.004 A 
ATOM      9  S   UNL     1       0.648   3.931   0.065  0.00  0.00    -0.073 S 
ATOM     10  C   UNL     1      -1.101   3.704   0.051  0.00  0.00    +0.114 A 
ATOM     11  C   UNL     1      -1.250   2.294   0.042  0.00  0.00    +0.051 A 
ATOM     12  C   UNL     1      -2.582   1.789   0.037  0.00  0.00    +0.131 A 
ATOM     13  N   UNL     1      -3.550   2.704   0.031  0.00  0.00    -0.220 NA
ATOM     14  C   UNL     1      -3.334   4.004   0.034  0.00  0.00    +0.224 A 
ATOM     15  N   UNL     1      -2.120   4.540   0.044  0.00  0.00    -0.228 NA
ATOM     16  C   UNL     1       2.531   1.677   0.075  0.00  0.00    +0.046 C 
ENDBRANCH   1  12
BRANCH   1  17
ATOM     17  C   UNL     1      -4.236  -0.038   0.156  0.00  0.00    +0.171 C 
BRANCH  17  18
ATOM     18  C   UNL     1      -4.357  -1.406  -0.466  0.00  0.00    +0.015 A 
ATOM     19  C   UNL     1      -3.246  -2.222  -0.564  0.00  0.00    +0.009 A 
ATOM     20  C   UNL     1      -3.358  -3.478  -1.129  0.00  0.00    +0.001 A 
ATOM     21  C   UNL     1      -4.580  -3.917  -1.606  0.00  0.00    +0.003 A 
ATOM     22  C   UNL     1      -5.691  -3.101  -1.514  0.00  0.00    +0.039 A 
ATOM     23  C   UNL     1      -5.581  -1.844  -0.943  0.00  0.00    +0.129 A 
ATOM     24  F   UNL     1      -6.667  -1.045  -0.852  0.00  0.00    -0.205 F 
ENDBRANCH  17  18
BRANCH  17  25
ATOM     25  C   UNL     1      -4.614  -0.113   1.613  0.00  0.00    +0.134 A 
ATOM     26  N   UNL     1      -3.880  -0.622   2.564  0.00  0.00    -0.238 NA
ATOM     27  C   UNL     1      -4.532  -0.516   3.731  0.00  0.00    +0.130 A 
ATOM     28  C   UNL     1      -5.719   0.075   3.493  0.00  0.00    +0.106 A 
ATOM     29  N   UNL     1      -5.771   0.330   2.149  0.00  0.00    -0.336 N 
ATOM     30  C   UNL     1      -6.876   0.966   1.427  0.00  0.00    +0.150 C 
ENDBRANCH  17  25
ENDBRANCH   1  17
TORSDOF 4
