REMARK  Name = ZINC15731168
REMARK  7 active torsions:
REMARK  status: ('A' for Active; 'I' for Inactive)
REMARK    1  A    between atoms: C_1  and  C_2
REMARK    2  A    between atoms: C_9  and  S_15
REMARK    3  A    between atoms: S_15  and  N_18
REMARK    4  A    between atoms: N_18  and  C_19
REMARK    5  A    between atoms: C_19  and  C_20
REMARK    6  A    between atoms: C_25  and  C_26
REMARK    7  A    between atoms: C_25  and  N_60
REMARK                            x       y       z     vdW  Elec       q    Type
REMARK                         _______ _______ _______ _____ _____    ______ ____
ROOT
ATOM      1  N   UNL     1      -0.844   5.741   5.860  0.00  0.00    -0.190 NA
ATOM      2  H   UNL     1      -1.663   5.596   5.361  0.00  0.00    +0.148 HD
ENDROOT
BRANCH   1   3
ATOM      3  S   UNL     1      -0.866   5.712   7.515  0.00  0.00    +0.058 S 
ATOM      4  O   UNL     1      -2.215   5.482   7.900  0.00  0.00    -0.153 OA
ATOM      5  O   UNL     1       0.198   4.861   7.920  0.00  0.00    -0.153 OA
BRANCH   3  13
ATOM      6  C   UNL     1      -2.432  14.053   9.024  0.00  0.00    +0.018 C 
ATOM      7  C   UNL     1      -1.730  12.761   9.447  0.00  0.00    +0.082 C 
ATOM      8  C   UNL     1      -0.371  12.715   8.809  0.00  0.00    +0.087 C 
ATOM      9  S   UNL     1       0.710  11.473   9.501  0.00  0.00    -0.123 S 
ATOM     10  C   UNL     1       0.172   9.905   8.948  0.00  0.00    +0.029 A 
ATOM     11  C   UNL     1       1.169   8.944   8.733  0.00  0.00    +0.018 A 
ATOM     12  C   UNL     1       0.866   7.673   8.305  0.00  0.00    +0.030 A 
ATOM     13  C   UNL     1      -0.454   7.333   8.070  0.00  0.00    +0.107 A 
ATOM     14  C   UNL     1      -1.442   8.264   8.278  0.00  0.00    +0.053 A 
ATOM     15  C   UNL     1      -1.152   9.567   8.717  0.00  0.00    +0.049 A 
ATOM     16  N   UNL     1      -2.249  10.371   8.879  0.00  0.00    -0.284 N 
ATOM     17  C   UNL     1      -2.578  11.602   9.058  0.00  0.00    +0.221 C 
ATOM     18  O   UNL     1      -3.751  11.855   8.883  0.00  0.00    -0.275 OA
ATOM     19  H   UNL     1      -3.052   9.828   8.850  0.00  0.00    +0.155 HD
ENDBRANCH   3  13
ENDBRANCH   1   3
BRANCH   1  20
ATOM     20  C   UNL     1       0.412   5.987   5.148  0.00  0.00    +0.109 C 
BRANCH  20  21
ATOM     21  C   UNL     1       0.250   5.599   3.677  0.00  0.00    +0.001 C 
ATOM     22  C   UNL     1       1.519   5.970   2.906  0.00  0.00    -0.014 C 
ATOM     23  C   UNL     1       1.374   5.526   1.449  0.00  0.00    -0.078 C 
ATOM     24  C   UNL     1      -0.083   3.700   2.091  0.00  0.00    -0.078 C 
ATOM     25  C   UNL     1       0.019   4.089   3.567  0.00  0.00    -0.014 C 
ATOM     26  N   UNL     1       1.179   4.061   1.411  0.00  0.00    +0.382 N 
ATOM     27  H   UNL     1       1.961   3.608   1.898  0.00  0.00    -0.081 HD
BRANCH  26  28
ATOM     28  C   UNL     1       1.150   3.592   0.010  0.00  0.00    -0.043 C 
BRANCH  28  29
ATOM     29  C   UNL     1       1.171   2.086   0.002  0.00  0.00    -0.064 A 
ATOM     30  C   UNL     1      -0.017   1.378   0.010  0.00  0.00    +0.003 A 
ATOM     31  C   UNL     1       0.002  -0.004   0.002  0.00  0.00    +0.020 A 
ATOM     32  C   UNL     1       1.210  -0.679  -0.013  0.00  0.00    +0.041 A 
ATOM     33  C   UNL     1       2.398   0.030  -0.021  0.00  0.00    +0.020 A 
ATOM     34  C   UNL     1       2.378   1.412  -0.013  0.00  0.00    +0.003 A 
ATOM     35 CL   UNL     1       1.234  -2.415  -0.022  0.00  0.00    -0.084 Cl
ENDBRANCH  28  29
ENDBRANCH  26  28
ENDBRANCH  20  21
ENDBRANCH   1  20
TORSDOF 6
