REMARK  Name = ZINC40322679
REMARK  12 active torsions:
REMARK  status: ('A' for Active; 'I' for Inactive)
REMARK    1  A    between atoms: C_1  and  C_2
REMARK    2  A    between atoms: C_2  and  N_3
REMARK    3  A    between atoms: N_3  and  C_4
REMARK    4  A    between atoms: N_3  and  C_6
REMARK    5  A    between atoms: C_4  and  C_5
REMARK    6  A    between atoms: C_6  and  C_8
REMARK    7  A    between atoms: C_6  and  C_27
REMARK    8  A    between atoms: C_8  and  N_9
REMARK    9  A    between atoms: C_10  and  C_12
REMARK   10  A    between atoms: C_15  and  S_17
REMARK   11  A    between atoms: S_17  and  C_20
REMARK   12  A    between atoms: C_23  and  C_26
REMARK                            x       y       z     vdW  Elec       q    Type
REMARK                         _______ _______ _______ _____ _____    ______ ____
ROOT
ATOM      1  N   UNL     1      -2.109   1.160   2.183  0.00  0.00    -0.310 N 
ATOM      2  C   UNL     1      -2.516   2.260   2.848  0.00  0.00    +0.279 C 
ATOM      3  O   UNL     1      -3.698   2.427   3.081  0.00  0.00    -0.267 OA
ATOM      4  H   UNL     1      -1.162   0.990   2.060  0.00  0.00    +0.149 HD
ENDROOT
BRANCH   2   5
ATOM      5  C   UNL     1      -1.533   3.254   3.291  0.00  0.00    +0.192 A 
ATOM      6  C   UNL     1      -1.794   4.355   4.055  0.00  0.00    +0.056 A 
ATOM      7  C   UNL     1      -0.571   5.019   4.237  0.00  0.00    +0.070 A 
ATOM      8  C   UNL     1       0.371   4.303   3.584  0.00  0.00    +0.246 A 
ATOM      9  O   UNL     1      -0.211   3.238   3.020  0.00  0.00    -0.433 OA
BRANCH   8  10
ATOM     10  S   UNL     1       2.085   4.703   3.495  0.00  0.00    +0.058 S 
ATOM     11  O   UNL     1       2.588   4.075   2.324  0.00  0.00    -0.161 OA
ATOM     12  O   UNL     1       2.188   6.103   3.713  0.00  0.00    -0.161 OA
BRANCH  10  13
ATOM     13  C   UNL     1       2.874   3.921   4.864  0.00  0.00    +0.097 A 
ATOM     14  C   UNL     1       2.986   4.588   6.070  0.00  0.00    +0.028 A 
ATOM     15  C   UNL     1       3.604   3.975   7.143  0.00  0.00    +0.005 A 
ATOM     16  C   UNL     1       4.111   2.695   7.011  0.00  0.00    -0.050 A 
ATOM     17  C   UNL     1       3.998   2.029   5.805  0.00  0.00    +0.005 A 
ATOM     18  C   UNL     1       3.376   2.640   4.733  0.00  0.00    +0.028 A 
ATOM     19  C   UNL     1       4.786   2.028   8.181  0.00  0.00    +0.044 C 
ENDBRANCH  10  13
ENDBRANCH   8  10
ENDBRANCH   2   5
BRANCH   1  20
ATOM     20  C   UNL     1      -3.098   0.222   1.646  0.00  0.00    +0.094 C 
BRANCH  20  21
ATOM     21  C   UNL     1      -2.379  -0.991   1.052  0.00  0.00    -0.019 C 
BRANCH  21  22
ATOM     22  C   UNL     1      -3.396  -1.950   0.486  0.00  0.00    -0.041 A 
ATOM     23  C   UNL     1      -3.667  -1.949  -0.869  0.00  0.00    +0.003 A 
ATOM     24  C   UNL     1      -4.599  -2.828  -1.389  0.00  0.00    +0.000 A 
ATOM     25  C   UNL     1      -5.260  -3.708  -0.552  0.00  0.00    +0.001 A 
ATOM     26  C   UNL     1      -4.990  -3.710   0.803  0.00  0.00    +0.020 A 
ATOM     27  C   UNL     1      -4.053  -2.834   1.322  0.00  0.00    +0.043 A 
ATOM     28 CL   UNL     1      -3.708  -2.841   3.023  0.00  0.00    -0.083 Cl
ENDBRANCH  21  22
BRANCH  21  29
ATOM     29  N   UNL     1      -1.474  -0.550  -0.017  0.00  0.00    +0.385 N 
ATOM     30  H   UNL     1      -0.725  -0.004   0.381  0.00  0.00    -0.081 HD
BRANCH  29  32
ATOM     31  C   UNL     1      -0.013  -2.495   0.263  0.00  0.00    -0.017 C 
ATOM     32  C   UNL     1      -0.916  -1.723  -0.702  0.00  0.00    -0.081 C 
ENDBRANCH  29  32
BRANCH  29  33
ATOM     33  C   UNL     1      -2.219   0.271  -0.981  0.00  0.00    -0.081 C 
ATOM     34  C   UNL     1      -1.852   1.744  -0.788  0.00  0.00    -0.017 C 
ENDBRANCH  29  33
ENDBRANCH  21  29
ENDBRANCH  20  21
ENDBRANCH   1  20
TORSDOF 9
