REMARK  Name = ZINC21248548
REMARK  11 active torsions:
REMARK  status: ('A' for Active; 'I' for Inactive)
REMARK    1  A    between atoms: C_1  and  C_2
REMARK    2  A    between atoms: C_2  and  C_3
REMARK    3  A    between atoms: C_3  and  C_5
REMARK    4  A    between atoms: C_3  and  O_6
REMARK    5  A    between atoms: O_6  and  C_7
REMARK    6  A    between atoms: C_10  and  C_13
REMARK    7  A    between atoms: C_18  and  C_23
REMARK    8  A    between atoms: C_25  and  O_31
REMARK    9  A    between atoms: C_28  and  O_29
REMARK   10  A    between atoms: O_29  and  C_30
REMARK   11  A    between atoms: O_31  and  C_32
REMARK                            x       y       z     vdW  Elec       q    Type
REMARK                         _______ _______ _______ _____ _____    ______ ____
ROOT
ATOM      1  C   UNL     1      -2.049   3.387   2.445  0.00  0.00    +0.136 C 
ATOM      2  C   UNL     1      -1.321   2.743   1.288  0.00  0.00    +0.036 C 
ATOM      3  C   UNL     1      -0.710   1.550   1.307  0.00  0.00    +0.017 C 
ATOM      4  C   UNL     1       0.021   1.039   0.075  0.00  0.00    +0.060 C 
ATOM      5  C   UNL     1      -0.685   1.533  -1.187  0.00  0.00    +0.036 C 
ATOM      6  C   UNL     1      -0.669   3.066  -1.160  0.00  0.00    +0.088 C 
ATOM      7  C   UNL     1      -1.317   3.528   0.110  0.00  0.00    +0.163 C 
ATOM      8  O   UNL     1      -1.860   4.615   0.129  0.00  0.00    -0.292 OA
ATOM      9  N   UNL     1      -0.667   0.709   2.374  0.00  0.00    -0.316 N 
ATOM     10  C   UNL     1      -0.354   1.091   3.675  0.00  0.00    +0.052 A 
ATOM     11  C   UNL     1       0.750   0.599   4.346  0.00  0.00    +0.025 A 
ATOM     12  C   UNL     1       0.959   0.961   5.666  0.00  0.00    +0.002 A 
ATOM     13  C   UNL     1       0.071   1.809   6.304  0.00  0.00    +0.002 A 
ATOM     14  C   UNL     1      -1.021   2.320   5.626  0.00  0.00    +0.025 A 
ATOM     15  C   UNL     1      -1.224   1.973   4.298  0.00  0.00    +0.049 A 
ATOM     16  N   UNL     1      -2.283   2.502   3.566  0.00  0.00    -0.331 N 
ATOM     17  H   UNL     1      -0.889  -0.360   2.240  0.00  0.00    +0.152 HD
ATOM     18  H   UNL     1      -3.312   2.236   3.852  0.00  0.00    +0.147 HD
ENDROOT
BRANCH   1  22
ATOM     19  C   UNL     1       0.253   6.717   3.814  0.00  0.00    +0.121 A 
ATOM     20  C   UNL     1      -1.007   6.920   3.269  0.00  0.00    +0.046 A 
ATOM     21  C   UNL     1      -1.749   5.842   2.827  0.00  0.00    +0.009 A 
ATOM     22  C   UNL     1      -1.237   4.561   2.928  0.00  0.00    -0.023 A 
ATOM     23  C   UNL     1       0.015   4.356   3.476  0.00  0.00    +0.009 A 
ATOM     24  C   UNL     1       0.764   5.431   3.914  0.00  0.00    +0.046 A 
BRANCH  19  25
ATOM     25  O   UNL     1       0.984   7.776   4.250  0.00  0.00    -0.489 OA
BRANCH  25  26
ATOM     26  C   UNL     1       0.348   9.056   4.231  0.00  0.00    +0.170 C 
ATOM     27  C   UNL     1       0.496   9.678   2.841  0.00  0.00    +0.052 C 
BRANCH  26  29
ATOM     28  C   UNL     1       0.750   9.409   6.672  0.00  0.00    +0.007 C 
ATOM     29  C   UNL     1       1.005   9.967   5.270  0.00  0.00    +0.041 C 
ENDBRANCH  26  29
ENDBRANCH  25  26
ENDBRANCH  19  25
ENDBRANCH   1  22
BRANCH   5  30
ATOM     30  C   UNL     1       0.045   1.035  -2.408  0.00  0.00    +0.002 A 
ATOM     31  C   UNL     1       1.364   1.388  -2.616  0.00  0.00    +0.053 A 
ATOM     32  C   UNL     1       2.037   0.926  -3.737  0.00  0.00    +0.121 A 
ATOM     33  C   UNL     1       1.382   0.119  -4.656  0.00  0.00    +0.049 A 
ATOM     34  C   UNL     1       0.061  -0.229  -4.451  0.00  0.00    +0.049 A 
ATOM     35  C   UNL     1      -0.610   0.228  -3.326  0.00  0.00    +0.124 A 
BRANCH  35  36
ATOM     36  O   UNL     1      -1.910  -0.114  -3.124  0.00  0.00    -0.495 OA
ATOM     37  C   UNL     1      -2.522  -0.948  -4.111  0.00  0.00    +0.277 C 
ENDBRANCH  35  36
BRANCH  32  38
ATOM     38  O   UNL     1       3.338   1.269  -3.938  0.00  0.00    -0.495 OA
ATOM     39  C   UNL     1       3.966   0.763  -5.118  0.00  0.00    +0.277 C 
ENDBRANCH  32  38
ENDBRANCH   5  30
TORSDOF 7
