REMARK  Name = ZINC21775716
REMARK  9 active torsions:
REMARK  status: ('A' for Active; 'I' for Inactive)
REMARK    1  A    between atoms: C_1  and  N_2
REMARK    2  A    between atoms: N_5  and  C_8
REMARK    3  A    between atoms: C_8  and  C_10
REMARK    4  A    between atoms: C_8  and  C_23
REMARK    5  A    between atoms: C_10  and  N_11
REMARK    6  A    between atoms: N_11  and  S_12
REMARK    7  A    between atoms: S_12  and  C_15
REMARK    8  A    between atoms: C_15  and  C_16
REMARK    9  A    between atoms: N_32  and  C_33
REMARK                            x       y       z     vdW  Elec       q    Type
REMARK                         _______ _______ _______ _____ _____    ______ ____
ROOT
ATOM      1  C   UNL     1       4.091  -1.767   4.106  0.00  0.00    +0.102 C 
ENDROOT
BRANCH   1   2
ATOM      2  C   UNL     1       3.160  -1.062   3.154  0.00  0.00    -0.029 A 
ATOM      3  C   UNL     1       1.936  -1.623   2.838  0.00  0.00    +0.007 A 
ATOM      4  C   UNL     1       1.088  -0.978   1.965  0.00  0.00    +0.024 A 
ATOM      5  C   UNL     1       1.455   0.243   1.395  0.00  0.00    +0.033 A 
ATOM      6  C   UNL     1       2.678   0.803   1.719  0.00  0.00    -0.026 A 
ATOM      7  C   UNL     1       3.528   0.146   2.595  0.00  0.00    +0.010 A 
ATOM      8  C   UNL     1       3.127   2.126   1.151  0.00  0.00    +0.038 C 
ATOM      9  C   UNL     1       2.257   2.491  -0.054  0.00  0.00    +0.024 C 
ATOM     10  C   UNL     1       0.790   2.277   0.341  0.00  0.00    +0.105 C 
ATOM     11  N   UNL     1       0.556   0.842   0.514  0.00  0.00    -0.333 N 
ATOM     12  C   UNL     1      -0.832   0.581   0.919  0.00  0.00    +0.129 C 
ENDBRANCH   1   2
BRANCH   1  17
ATOM     13  C   UNL     1       4.857  -6.506   1.129  0.00  0.00    -0.096 C 
ATOM     14  N   UNL     1       4.392  -5.252   1.737  0.00  0.00    +0.379 N 
ATOM     15  C   UNL     1       4.171  -5.418   3.181  0.00  0.00    -0.064 C 
ATOM     16  C   UNL     1       3.613  -4.116   3.761  0.00  0.00    +0.066 C 
ATOM     17  N   UNL     1       4.556  -3.021   3.498  0.00  0.00    -0.298 NA
ATOM     18  C   UNL     1       4.777  -2.856   2.054  0.00  0.00    +0.066 C 
ATOM     19  C   UNL     1       5.336  -4.157   1.474  0.00  0.00    -0.064 C 
ATOM     20  H   UNL     1       3.429  -4.990   1.274  0.00  0.00    -0.082 HD
ENDBRANCH   1  17
BRANCH   1  21
ATOM     21  C   UNL     1       3.350  -2.077   5.408  0.00  0.00    +0.129 C 
BRANCH  21  22
ATOM     22  N   UNL     1       4.255  -2.763   6.334  0.00  0.00    -0.192 NA
ATOM     23  H   UNL     1       5.068  -3.392   5.943  0.00  0.00    +0.148 HD
BRANCH  22  24
ATOM     24  S   UNL     1       3.912  -2.797   7.954  0.00  0.00    +0.034 S 
ATOM     25  O   UNL     1       4.993  -3.510   8.538  0.00  0.00    -0.158 OA
ATOM     26  O   UNL     1       3.666  -1.442   8.301  0.00  0.00    -0.158 OA
BRANCH  24  27
ATOM     27  C   UNL     1       2.382  -3.764   8.086  0.00  0.00    +0.220 C 
BRANCH  27  28
ATOM     28  C   UNL     1       1.973  -3.861   9.533  0.00  0.00    -0.025 A 
ATOM     29  C   UNL     1       2.424  -4.912  10.309  0.00  0.00    +0.008 A 
ATOM     30  C   UNL     1       2.053  -4.999  11.638  0.00  0.00    +0.038 A 
ATOM     31  C   UNL     1       1.221  -4.039  12.188  0.00  0.00    +0.123 A 
ATOM     32  C   UNL     1       0.765  -2.990  11.408  0.00  0.00    +0.038 A 
ATOM     33  C   UNL     1       1.141  -2.902  10.081  0.00  0.00    +0.008 A 
ATOM     34  F   UNL     1       0.854  -4.126  13.486  0.00  0.00    -0.205 F 
ENDBRANCH  27  28
ENDBRANCH  24  27
ENDBRANCH  22  24
ENDBRANCH  21  22
ENDBRANCH   1  21
TORSDOF 7
