REMARK  Name = ZINC64502355
REMARK  7 active torsions:
REMARK  status: ('A' for Active; 'I' for Inactive)
REMARK    1  A    between atoms: C_1  and  C_2
REMARK    2  A    between atoms: C_2  and  N_3
REMARK    3  A    between atoms: C_11  and  N_15
REMARK    4  A    between atoms: C_18  and  C_21
REMARK    5  A    between atoms: N_23  and  C_24
REMARK    6  A    between atoms: C_24  and  C_25
REMARK    7  A    between atoms: C_25  and  C_26
REMARK                            x       y       z     vdW  Elec       q    Type
REMARK                         _______ _______ _______ _____ _____    ______ ____
ROOT
ATOM      1  N   UNL     1       2.789  -2.688  -2.318  0.00  0.00    +0.398 N 
ATOM      2  C   UNL     1       3.496  -3.104  -1.100  0.00  0.00    -0.075 C 
ATOM      3  C   UNL     1       3.474  -4.630  -0.990  0.00  0.00    -0.006 C 
ATOM      4  C   UNL     1       4.166  -5.235  -2.215  0.00  0.00    +0.071 C 
ATOM      5  C   UNL     1       3.467  -4.735  -3.482  0.00  0.00    -0.006 C 
ATOM      6  C   UNL     1       3.488  -3.205  -3.500  0.00  0.00    -0.075 C 
ATOM      7  H   UNL     1       1.848  -3.052  -2.299  0.00  0.00    -0.078 HD
ENDROOT
BRANCH   1  16
ATOM      8  N   UNL     1       0.688  -0.476  -1.203  0.00  0.00    -0.255 N 
ATOM      9  C   UNL     1      -0.046  -0.704  -2.369  0.00  0.00    +0.148 A 
ATOM     10  C   UNL     1       0.630  -0.862  -3.583  0.00  0.00    +0.067 A 
ATOM     11  C   UNL     1      -0.090  -1.081  -4.744  0.00  0.00    +0.028 A 
ATOM     12  C   UNL     1      -1.476  -1.140  -4.654  0.00  0.00    +0.022 A 
ATOM     13  C   UNL     1      -2.079  -0.980  -3.422  0.00  0.00    +0.113 A 
ATOM     14  N   UNL     1      -1.366  -0.770  -2.331  0.00  0.00    -0.238 NA
ATOM     15  N   UNL     1       2.029  -0.801  -3.594  0.00  0.00    -0.346 N 
ATOM     16  C   UNL     1       2.744  -1.221  -2.379  0.00  0.00    +0.105 C 
ATOM     17  C   UNL     1       2.018  -0.680  -1.174  0.00  0.00    +0.224 C 
ATOM     18  O   UNL     1       2.639  -0.429  -0.164  0.00  0.00    -0.275 OA
ATOM     19  H   UNL     1       2.511  -0.492  -4.377  0.00  0.00    +0.145 HD
BRANCH   8  21
ATOM     20  C   UNL     1      -0.019   1.526   0.010  0.00  0.00    +0.025 C 
ATOM     21  C   UNL     1       0.002  -0.004   0.002  0.00  0.00    +0.112 C 
ENDBRANCH   8  21
ENDBRANCH   1  16
BRANCH   4  22
ATOM     22  C   UNL     1       4.080  -6.738  -2.151  0.00  0.00    +0.216 C 
ATOM     23  O   UNL     1       3.521  -7.274  -1.218  0.00  0.00    -0.276 OA
ATOM     24  N   UNL     1       4.625  -7.486  -3.131  0.00  0.00    -0.315 N 
ATOM     25  H   UNL     1       5.072  -7.057  -3.877  0.00  0.00    +0.149 HD
BRANCH  24  26
ATOM     26  C   UNL     1       4.541  -8.947  -3.069  0.00  0.00    +0.108 C 
BRANCH  26  27
ATOM     27  C   UNL     1       5.232  -9.550  -4.294  0.00  0.00    +0.052 C 
BRANCH  27  28
ATOM     28  C   UNL     1       5.146 -11.053  -4.230  0.00  0.00    -0.040 C 
ATOM     29  C   UNL     1       4.219 -11.840  -4.822  0.00  0.00    +0.000 A 
ATOM     30  C   UNL     1       3.058 -11.544  -5.669  0.00  0.00    +0.030 A 
ATOM     31  C   UNL     1       2.298 -12.568  -6.123  0.00  0.00    +0.042 A 
ATOM     32  C   UNL     1       2.591 -13.902  -5.803  0.00  0.00    +0.022 A 
ATOM     33  C   UNL     1       3.641 -14.252  -5.031  0.00  0.00    +0.027 A 
ATOM     34  C   UNL     1       4.508 -13.256  -4.500  0.00  0.00    +0.043 A 
ATOM     35  N   UNL     1       5.572 -13.341  -3.739  0.00  0.00    -0.380 N 
ATOM     36  C   UNL     1       6.083 -11.987  -3.497  0.00  0.00    +0.144 C 
ATOM     37 CL   UNL     1       0.923 -12.221  -7.125  0.00  0.00    -0.084 Cl
ATOM     38  H   UNL     1       5.959 -14.162  -3.397  0.00  0.00    +0.160 HD
ENDBRANCH  27  28
ENDBRANCH  26  27
ENDBRANCH  24  26
ENDBRANCH   4  22
TORSDOF 6
