REMARK  Name = ZINC51693416
REMARK  5 active torsions:
REMARK  status: ('A' for Active; 'I' for Inactive)
REMARK    1  A    between atoms: C_3  and  S_11
REMARK    2  A    between atoms: C_4  and  N_8
REMARK    3  A    between atoms: S_11  and  N_14
REMARK    4  A    between atoms: N_14  and  C_15
REMARK    5  A    between atoms: C_18  and  N_21
REMARK                            x       y       z     vdW  Elec       q    Type
REMARK                         _______ _______ _______ _____ _____    ______ ____
ROOT
ATOM      1  S   UNL     1       3.636   2.848  -0.095  0.00  0.00    +0.061 S 
ATOM      2  O   UNL     1       4.368   2.591  -1.285  0.00  0.00    -0.153 OA
ATOM      3  O   UNL     1       3.009   4.097   0.159  0.00  0.00    -0.153 OA
ENDROOT
BRANCH   1   6
ATOM      4  C   UNL     1       1.222  -0.242  -0.969  0.00  0.00    +0.022 A 
ATOM      5  C   UNL     1       2.212   0.720  -1.039  0.00  0.00    +0.032 A 
ATOM      6  C   UNL     1       2.374   1.623  -0.005  0.00  0.00    +0.135 A 
ATOM      7  C   UNL     1       1.545   1.563   1.101  0.00  0.00    +0.154 A 
ATOM      8  C   UNL     1       0.555   0.602   1.171  0.00  0.00    +0.054 A 
ATOM      9  C   UNL     1       0.393  -0.301   0.136  0.00  0.00    +0.043 A 
ATOM     10 CL   UNL     1      -0.851  -1.509   0.224  0.00  0.00    -0.083 Cl
BRANCH   7  11
ATOM     11  N   UNL     1       1.720   2.529   2.208  0.00  0.00    +0.058 N 
ATOM     12  O   UNL     1       0.921   2.560   3.115  0.00  0.00    -0.126 OA
ATOM     13  O   UNL     1       2.661   3.288   2.207  0.00  0.00    -0.126 OA
ENDBRANCH   7  11
ENDBRANCH   1   6
BRANCH   1  14
ATOM     14  N   UNL     1       4.674   2.575   1.167  0.00  0.00    -0.187 NA
ATOM     15  H   UNL     1       4.766   3.236   1.871  0.00  0.00    +0.148 HD
BRANCH  14  16
ATOM     16  C   UNL     1       5.453   1.335   1.219  0.00  0.00    +0.076 C 
ATOM     17  C   UNL     1       4.710   0.302   2.069  0.00  0.00    +0.019 C 
ATOM     18  C   UNL     1       4.523   0.847   3.486  0.00  0.00    -0.015 C 
ATOM     19  C   UNL     1       5.891   1.131   4.109  0.00  0.00    -0.075 C 
ATOM     20  C   UNL     1       6.634   2.164   3.259  0.00  0.00    -0.015 C 
ATOM     21  C   UNL     1       6.822   1.619   1.842  0.00  0.00    +0.019 C 
BRANCH  19  22
ATOM     22  N   UNL     1       5.711   1.654   5.470  0.00  0.00    +0.380 N 
ATOM     23  H   UNL     1       5.221   0.972   6.030  0.00  0.00    -0.090 HD
ATOM     24  H   UNL     1       6.614   1.841   5.880  0.00  0.00    -0.090 HD
ATOM     25  H   UNL     1       5.175   2.507   5.433  0.00  0.00    -0.090 HD
ENDBRANCH  19  22
ENDBRANCH  14  16
ENDBRANCH   1  14
TORSDOF 5
