REMARK  Name = ZINC30941488
REMARK  6 active torsions:
REMARK  status: ('A' for Active; 'I' for Inactive)
REMARK    1  A    between atoms: C_1  and  S_2
REMARK    2  A    between atoms: S_2  and  N_5
REMARK    3  A    between atoms: C_8  and  C_18
REMARK    4  A    between atoms: N_20  and  C_21
REMARK    5  A    between atoms: C_26  and  O_27
REMARK    6  A    between atoms: O_27  and  C_28
REMARK                            x       y       z     vdW  Elec       q    Type
REMARK                         _______ _______ _______ _____ _____    ______ ____
ROOT
ATOM      1  C   UNL     1      -1.228   5.693  -0.023  0.00  0.00    +0.258 C 
ATOM      2  O   UNL     1      -2.238   5.029  -0.120  0.00  0.00    -0.271 OA
ATOM      3  N   UNL     1      -0.022   5.091  -0.050  0.00  0.00    -0.280 N 
ATOM      4  H   UNL     1       0.896   5.698  -0.033  0.00  0.00    +0.155 HD
ENDROOT
BRANCH   1   8
ATOM      5  N   UNL     1      -1.925   9.957  -0.846  0.00  0.00    -0.204 N 
ATOM      6  C   UNL     1      -0.586   9.360  -0.938  0.00  0.00    +0.135 C 
ATOM      7  C   UNL     1      -0.688   7.854  -1.087  0.00  0.00    +0.075 C 
ATOM      8  C   UNL     1      -1.320   7.189   0.129  0.00  0.00    +0.260 C 
ATOM      9  O   UNL     1      -2.690   7.561   0.265  0.00  0.00    -0.478 OA
ATOM     10  C   UNL     1      -2.939   8.716   0.953  0.00  0.00    +0.144 A 
ATOM     11  C   UNL     1      -2.571   9.939   0.400  0.00  0.00    +0.094 A 
ATOM     12  C   UNL     1      -2.841  11.117   1.075  0.00  0.00    +0.048 A 
ATOM     13  C   UNL     1      -3.472  11.070   2.308  0.00  0.00    +0.043 A 
ATOM     14  C   UNL     1      -3.830   9.854   2.861  0.00  0.00    +0.024 A 
ATOM     15  C   UNL     1      -3.565   8.675   2.186  0.00  0.00    +0.049 A 
ATOM     16 CL   UNL     1      -3.814  12.543   3.160  0.00  0.00    -0.083 Cl
BRANCH   5  18
ATOM     17  C   UNL     1      -3.573   9.271  -2.941  0.00  0.00    +0.218 C 
ATOM     18  S   UNL     1      -2.651  10.631  -2.172  0.00  0.00    +0.043 S 
ATOM     19  O   UNL     1      -3.552  11.594  -1.643  0.00  0.00    -0.155 OA
ATOM     20  O   UNL     1      -1.576  11.029  -3.011  0.00  0.00    -0.155 OA
ENDBRANCH   5  18
ENDBRANCH   1   8
BRANCH   3  21
ATOM     21  C   UNL     1       0.063   3.694  -0.099  0.00  0.00    +0.076 A 
ATOM     22  C   UNL     1      -0.885   2.963  -0.801  0.00  0.00    +0.027 A 
ATOM     23  C   UNL     1      -0.795   1.585  -0.853  0.00  0.00    +0.002 A 
ATOM     24  C   UNL     1       0.231   0.930  -0.197  0.00  0.00    +0.004 A 
ATOM     25  C   UNL     1       1.179   1.651   0.505  0.00  0.00    +0.048 A 
ATOM     26  C   UNL     1       1.100   3.033   0.557  0.00  0.00    +0.150 A 
BRANCH  26  27
ATOM     27  O   UNL     1       2.032   3.744   1.247  0.00  0.00    -0.454 OA
BRANCH  27  28
ATOM     28  C   UNL     1       1.711   4.173   2.495  0.00  0.00    +0.129 A 
ATOM     29  C   UNL     1       0.506   3.798   3.071  0.00  0.00    +0.046 A 
ATOM     30  C   UNL     1       0.184   4.232   4.343  0.00  0.00    +0.004 A 
ATOM     31  C   UNL     1       1.058   5.048   5.038  0.00  0.00    +0.000 A 
ATOM     32  C   UNL     1       2.258   5.427   4.464  0.00  0.00    +0.004 A 
ATOM     33  C   UNL     1       2.586   4.992   3.195  0.00  0.00    +0.046 A 
ENDBRANCH  27  28
ENDBRANCH  26  27
ENDBRANCH   3  21
TORSDOF 5
