REMARK  Name = ZINC19847865
REMARK  4 active torsions:
REMARK  status: ('A' for Active; 'I' for Inactive)
REMARK    1  A    between atoms: C_8  and  S_10
REMARK    2  A    between atoms: S_10  and  C_11
REMARK    3  A    between atoms: C_14  and  C_17
REMARK    4  A    between atoms: N_18  and  O_19
REMARK                            x       y       z     vdW  Elec       q    Type
REMARK                         _______ _______ _______ _____ _____    ______ ____
ROOT
ATOM      1  C   UNL     1      -3.028   4.397   0.055  0.00  0.00    +0.106 A 
ATOM      2  C   UNL     1      -4.101   5.285   0.070  0.00  0.00    +0.036 A 
ATOM      3  C   UNL     1      -5.388   4.786   0.079  0.00  0.00    +0.015 A 
ATOM      4  C   UNL     1      -5.564   3.396   0.072  0.00  0.00    +0.036 A 
ATOM      5  C   UNL     1      -4.440   2.571   0.057  0.00  0.00    +0.123 A 
ATOM      6  N   UNL     1      -3.228   3.087   0.044  0.00  0.00    -0.248 NA
ENDROOT
BRANCH   4   7
ATOM      7  C   UNL     1      -6.923   2.812   0.081  0.00  0.00    +0.164 C 
ATOM      8  N   UNL     1      -7.965   3.590   0.095  0.00  0.00    -0.071 NA
ATOM      9  N   UNL     1      -7.085   1.436   0.075  0.00  0.00    -0.340 N 
ATOM     10  H   UNL     1      -8.096   1.002   0.082  0.00  0.00    +0.144 HD
ATOM     11  H   UNL     1      -6.204   0.778   0.064  0.00  0.00    +0.144 HD
BRANCH   8  12
ATOM     12  O   UNL     1      -9.266   3.031   0.103  0.00  0.00    -0.408 OA
ATOM     13  H   UNL     1     -10.148   3.689   0.115  0.00  0.00    +0.328 HD
ENDBRANCH   8  12
ENDBRANCH   4   7
BRANCH   1  14
ATOM     14  S   UNL     1      -1.381   5.024   0.042  0.00  0.00    -0.011 S 
BRANCH  14  22
ATOM     15  C   UNL     1       1.207  -0.671  -0.013  0.00  0.00    +0.002 A 
ATOM     16  C   UNL     1       2.400   0.036  -0.021  0.00  0.00    +0.004 A 
ATOM     17  C   UNL     1       2.396   1.416  -0.014  0.00  0.00    +0.048 A 
ATOM     18  C   UNL     1       1.192   2.103   0.002  0.00  0.00    +0.156 A 
ATOM     19  C   UNL     1      -0.017   1.392   0.010  0.00  0.00    +0.110 A 
ATOM     20  C   UNL     1       0.002  -0.004   0.002  0.00  0.00    +0.031 A 
ATOM     21  N   UNL     1      -1.014   2.318   0.019  0.00  0.00    -0.203 NA
ATOM     22  C   UNL     1      -0.478   3.512   0.025  0.00  0.00    +0.264 A 
ATOM     23  O   UNL     1       0.864   3.415   0.012  0.00  0.00    -0.430 OA
ENDBRANCH  14  22
ENDBRANCH   1  14
TORSDOF 4
