REMARK  Name = ZINC20726665
REMARK  8 active torsions:
REMARK  status: ('A' for Active; 'I' for Inactive)
REMARK    1  A    between atoms: C_1  and  C_2
REMARK    2  A    between atoms: C_2  and  C_3
REMARK    3  A    between atoms: C_2  and  C_4
REMARK    4  A    between atoms: C_4  and  C_6
REMARK    5  A    between atoms: C_4  and  N_10
REMARK    6  A    between atoms: C_6  and  O_8
REMARK    7  A    between atoms: O_8  and  C_9
REMARK    8  A    between atoms: C_22  and  C_24
REMARK                            x       y       z     vdW  Elec       q    Type
REMARK                         _______ _______ _______ _____ _____    ______ ____
ROOT
ATOM      1  N   UNL     1      -1.261  -2.302  -2.372  0.00  0.00    -0.286 N 
ATOM      2  C   UNL     1      -1.858  -1.094  -2.331  0.00  0.00    +0.304 C 
ATOM      3  O   UNL     1      -1.897  -0.471  -1.288  0.00  0.00    -0.253 OA
ATOM      4  N   UNL     1      -2.411  -0.578  -3.446  0.00  0.00    -0.273 N 
ATOM      5  C   UNL     1      -3.065   0.739  -3.424  0.00  0.00    +0.116 C 
ATOM      6  C   UNL     1      -4.558   0.566  -3.728  0.00  0.00    +0.076 C 
ATOM      7  C   UNL     1      -4.711  -0.368  -4.903  0.00  0.00    +0.066 A 
ATOM      8  C   UNL     1      -3.747  -1.206  -5.340  0.00  0.00    +0.064 A 
ATOM      9  N   UNL     1      -4.254  -1.882  -6.406  0.00  0.00    -0.346 N 
ATOM     10  H   UNL     1      -3.797  -2.557  -6.932  0.00  0.00    +0.167 HD
ATOM     11  C   UNL     1      -5.518  -1.435  -6.593  0.00  0.00    +0.197 A 
ATOM     12  N   UNL     1      -5.780  -0.528  -5.688  0.00  0.00    -0.240 NA
ATOM     13  C   UNL     1      -2.371  -1.316  -4.722  0.00  0.00    +0.158 C 
ATOM     14  H   UNL     1      -1.291  -2.830  -3.185  0.00  0.00    +0.151 HD
ENDROOT
BRANCH  13  15
ATOM     15  C   UNL     1      -1.342  -0.704  -5.637  0.00  0.00    -0.001 A 
ATOM     16  C   UNL     1      -1.744   0.064  -6.714  0.00  0.00    +0.007 A 
ATOM     17  C   UNL     1      -0.801   0.625  -7.554  0.00  0.00    +0.002 A 
ATOM     18  C   UNL     1       0.546   0.419  -7.318  0.00  0.00    +0.021 A 
ATOM     19  C   UNL     1       0.950  -0.348  -6.241  0.00  0.00    +0.060 A 
ATOM     20  C   UNL     1       0.005  -0.906  -5.396  0.00  0.00    +0.065 A 
ATOM     21 CL   UNL     1       0.510  -1.864  -4.039  0.00  0.00    -0.082 Cl
ATOM     22 CL   UNL     1       2.640  -0.607  -5.944  0.00  0.00    -0.082 Cl
ENDBRANCH  13  15
BRANCH   1  23
ATOM     23  C   UNL     1      -0.568  -2.817  -1.189  0.00  0.00    +0.186 C 
BRANCH  23  25
ATOM     24  C   UNL     1      -2.146  -4.742  -0.972  0.00  0.00    +0.009 C 
ATOM     25  C   UNL     1      -1.576  -3.509  -0.268  0.00  0.00    +0.014 C 
ATOM     26  C   UNL     1      -0.876  -3.937   1.024  0.00  0.00    +0.009 C 
ENDBRANCH  23  25
BRANCH  23  27
ATOM     27  C   UNL     1       0.485  -3.807  -1.615  0.00  0.00    +0.328 C 
ATOM     28  O   UNL     1       0.641  -4.056  -2.786  0.00  0.00    -0.249 OA
BRANCH  27  29
ATOM     29  O   UNL     1       1.251  -4.411  -0.692  0.00  0.00    -0.467 OA
ATOM     30  C   UNL     1       2.229  -5.338  -1.167  0.00  0.00    +0.280 C 
ENDBRANCH  27  29
ENDBRANCH  23  27
ENDBRANCH   1  23
TORSDOF 5
