REMARK  Name = ZINC36028082
REMARK  8 active torsions:
REMARK  status: ('A' for Active; 'I' for Inactive)
REMARK    1  A    between atoms: C_1  and  C_2
REMARK    2  A    between atoms: C_2  and  C_3
REMARK    3  A    between atoms: C_3  and  C_5
REMARK    4  A    between atoms: C_3  and  C_6
REMARK    5  A    between atoms: N_10  and  C_29
REMARK    6  A    between atoms: N_15  and  S_18
REMARK    7  A    between atoms: S_18  and  C_21
REMARK    8  A    between atoms: C_29  and  C_30
REMARK                            x       y       z     vdW  Elec       q    Type
REMARK                         _______ _______ _______ _____ _____    ______ ____
ROOT
ATOM      1  C   UNL     1       1.631  -1.679  -1.425  0.00  0.00    +0.022 C 
ATOM      2  C   UNL     1       2.401  -2.365  -0.318  0.00  0.00    +0.201 C 
ATOM      3  O   UNL     1       2.671  -1.883   0.762  0.00  0.00    -0.277 OA
ATOM      4  N   UNL     1       2.738  -3.603  -0.734  0.00  0.00    -0.306 N 
ATOM      5  C   UNL     1       2.228  -3.818  -2.091  0.00  0.00    +0.006 C 
ATOM      6  N   UNL     1       1.916  -2.480  -2.640  0.00  0.00    +0.401 N 
ATOM      7  C   UNL     1       0.957  -4.665  -2.050  0.00  0.00    +0.023 C 
ATOM      8  C   UNL     1       1.280  -6.035  -1.444  0.00  0.00    +0.109 C 
ATOM      9  N   UNL     1       2.392  -6.634  -2.195  0.00  0.00    -0.177 NA
ATOM     10  C   UNL     1       3.633  -5.865  -2.356  0.00  0.00    +0.109 C 
ATOM     11  C   UNL     1       3.291  -4.496  -2.954  0.00  0.00    +0.023 C 
ATOM     12  H   UNL     1       1.105  -2.519  -3.239  0.00  0.00    -0.082 HD
ATOM     13  H   UNL     1       2.710  -2.104  -3.136  0.00  0.00    -0.082 HD
ENDROOT
BRANCH   9  14
ATOM     14  S   UNL     1       2.248  -8.149  -2.849  0.00  0.00    +0.062 S 
ATOM     15  O   UNL     1       3.549  -8.722  -2.835  0.00  0.00    -0.153 OA
ATOM     16  O   UNL     1       1.139  -8.764  -2.209  0.00  0.00    -0.153 OA
BRANCH  14  17
ATOM     17  C   UNL     1       1.805  -7.946  -4.542  0.00  0.00    +0.125 A 
ATOM     18  C   UNL     1       2.697  -8.302  -5.537  0.00  0.00    +0.030 A 
ATOM     19  C   UNL     1       2.350  -8.143  -6.866  0.00  0.00    +0.003 A 
ATOM     20  C   UNL     1       1.111  -7.628  -7.201  0.00  0.00    +0.021 A 
ATOM     21  C   UNL     1       0.219  -7.271  -6.207  0.00  0.00    +0.061 A 
ATOM     22  C   UNL     1       0.564  -7.436  -4.876  0.00  0.00    +0.086 A 
ATOM     23 CL   UNL     1      -0.559  -6.997  -3.627  0.00  0.00    -0.080 Cl
ATOM     24 CL   UNL     1      -1.336  -6.624  -6.627  0.00  0.00    -0.082 Cl
ENDBRANCH  14  17
ENDBRANCH   9  14
BRANCH   1  25
ATOM     25  C   UNL     1       2.125  -0.242  -1.606  0.00  0.00    -0.020 C 
ATOM     26  C   UNL     1       3.627  -0.252  -1.894  0.00  0.00    +0.006 C 
BRANCH  25  28
ATOM     27  C   UNL     1       2.235   2.020  -0.551  0.00  0.00    +0.004 C 
ATOM     28  C   UNL     1       1.856   0.555  -0.328  0.00  0.00    -0.001 C 
ENDBRANCH  25  28
ENDBRANCH   1  25
BRANCH   4  29
ATOM     29  C   UNL     1       3.496  -4.582   0.049  0.00  0.00    +0.180 C 
BRANCH  29  30
ATOM     30  C   UNL     1       4.971  -4.337  -0.133  0.00  0.00    +0.122 A 
ATOM     31  C   UNL     1       5.712  -3.451   0.557  0.00  0.00    +0.046 A 
ATOM     32  C   UNL     1       7.034  -3.551   0.066  0.00  0.00    +0.041 A 
ATOM     33  C   UNL     1       7.022  -4.493  -0.894  0.00  0.00    +0.195 A 
ATOM     34  O   UNL     1       5.771  -4.969  -1.006  0.00  0.00    -0.466 OA
ENDBRANCH  29  30
ENDBRANCH   4  29
TORSDOF 6
