REMARK  Name = ZINC31420478
REMARK  7 active torsions:
REMARK  status: ('A' for Active; 'I' for Inactive)
REMARK    1  A    between atoms: C_1  and  C_2
REMARK    2  A    between atoms: C_5  and  N_9
REMARK    3  A    between atoms: C_10  and  C_12
REMARK    4  A    between atoms: C_12  and  S_13
REMARK    5  A    between atoms: S_13  and  C_14
REMARK    6  A    between atoms: C_14  and  C_15
REMARK    7  A    between atoms: C_18  and  C_20
REMARK                            x       y       z     vdW  Elec       q    Type
REMARK                         _______ _______ _______ _____ _____    ______ ____
ROOT
ATOM      1  C   UNL     1      -3.702   2.128  -0.184  0.00  0.00    +0.165 C 
ENDROOT
BRANCH   1   3
ATOM      2  N   UNL     1      -1.237   2.069   0.019  0.00  0.00    -0.284 N 
ATOM      3  C   UNL     1      -2.394   1.385  -0.081  0.00  0.00    +0.227 C 
ATOM      4  O   UNL     1      -2.384   0.173  -0.088  0.00  0.00    -0.275 OA
ATOM      5  H   UNL     1      -1.252   3.165   0.117  0.00  0.00    +0.155 HD
BRANCH   2  10
ATOM      6  C   UNL     1       3.716  -0.696  -0.080  0.00  0.00    +0.044 C 
ATOM      7  C   UNL     1       2.401   0.038  -0.052  0.00  0.00    -0.049 A 
ATOM      8  C   UNL     1       1.283  -0.526  -0.640  0.00  0.00    +0.005 A 
ATOM      9  C   UNL     1       0.076   0.144  -0.617  0.00  0.00    +0.024 A 
ATOM     10  C   UNL     1      -0.016   1.385  -0.001  0.00  0.00    +0.047 A 
ATOM     11  C   UNL     1       1.108   1.950   0.589  0.00  0.00    +0.039 A 
ATOM     12  C   UNL     1       2.313   1.274   0.561  0.00  0.00    +0.020 A 
ATOM     13 BR   UNL     1       0.989   3.640   1.428  0.00  0.00    -0.048 Br
ENDBRANCH   2  10
ENDBRANCH   1   3
BRANCH   1  14
ATOM     14  S   UNL     1      -5.065   0.937  -0.304  0.00  0.00    -0.145 S 
BRANCH  14  15
ATOM     15  C   UNL     1      -6.547   1.978  -0.420  0.00  0.00    +0.125 C 
BRANCH  15  16
ATOM     16  C   UNL     1      -7.769   1.101  -0.527  0.00  0.00    +0.059 A 
ATOM     17  C   UNL     1      -8.417   0.698   0.598  0.00  0.00    +0.071 A 
ATOM     18  S   UNL     1      -9.736  -0.278  -0.112  0.00  0.00    -0.072 S 
ATOM     19  C   UNL     1      -9.282  -0.044  -1.826  0.00  0.00    +0.144 A 
ATOM     20  N   UNL     1      -8.211   0.731  -1.706  0.00  0.00    -0.240 NA
BRANCH  19  21
ATOM     21  C   UNL     1      -9.926  -0.565  -3.042  0.00  0.00    +0.160 A 
ATOM     22  C   UNL     1     -11.031  -1.361  -3.084  0.00  0.00    +0.052 A 
ATOM     23  C   UNL     1     -11.297  -1.615  -4.443  0.00  0.00    +0.042 A 
ATOM     24  C   UNL     1     -10.348  -0.976  -5.157  0.00  0.00    +0.196 A 
ATOM     25  O   UNL     1      -9.522  -0.344  -4.308  0.00  0.00    -0.461 OA
ENDBRANCH  19  21
ENDBRANCH  15  16
ENDBRANCH  14  15
ENDBRANCH   1  14
TORSDOF 6
