REMARK  Name = ZINC08994740
REMARK  8 active torsions:
REMARK  status: ('A' for Active; 'I' for Inactive)
REMARK    1  A    between atoms: C_1  and  C_2
REMARK    2  A    between atoms: C_2  and  O_3
REMARK    3  A    between atoms: O_3  and  C_4
REMARK    4  A    between atoms: C_4  and  C_6
REMARK    5  A    between atoms: C_6  and  S_7
REMARK    6  A    between atoms: S_7  and  C_8
REMARK    7  A    between atoms: C_9  and  C_25
REMARK    8  A    between atoms: C_10  and  C_16
REMARK                            x       y       z     vdW  Elec       q    Type
REMARK                         _______ _______ _______ _____ _____    ______ ____
ROOT
ATOM      1  C   UNL     1      -1.305   3.587  -0.081  0.00  0.00    +0.082 C 
ATOM      2  C   UNL     1      -1.014   3.052   1.137  0.00  0.00    +0.065 C 
ATOM      3  C   UNL     1      -0.728   1.579   1.267  0.00  0.00    +0.071 C 
ATOM      4  C   UNL     1      -0.013   1.086   0.008  0.00  0.00    +0.109 C 
ATOM      5  C   UNL     1      -0.740   1.584  -1.213  0.00  0.00    +0.218 C 
ATOM      6  O   UNL     1      -0.786   0.895  -2.209  0.00  0.00    -0.275 OA
ATOM      7  N   UNL     1      -1.340   2.789  -1.205  0.00  0.00    -0.279 N 
ATOM      8  H   UNL     1      -1.863   3.135  -2.109  0.00  0.00    +0.155 HD
ENDROOT
BRANCH   3   9
ATOM      9  C   UNL     1      -2.024   0.828   1.435  0.00  0.00    -0.036 A 
ATOM     10  C   UNL     1      -2.995   0.900   0.454  0.00  0.00    +0.023 A 
ATOM     11  C   UNL     1      -4.183   0.208   0.604  0.00  0.00    +0.066 A 
ATOM     12  C   UNL     1      -4.404  -0.551   1.744  0.00  0.00    +0.207 A 
ATOM     13  C   UNL     1      -3.429  -0.617   2.730  0.00  0.00    +0.066 A 
ATOM     14  C   UNL     1      -2.241   0.073   2.573  0.00  0.00    +0.023 A 
ATOM     15 BR   UNL     1      -3.725  -1.649   4.286  0.00  0.00    -0.046 Br
ATOM     16  O   UNL     1      -5.572  -1.228   1.897  0.00  0.00    -0.286 OA
ATOM     17 BR   UNL     1      -5.508   0.300  -0.742  0.00  0.00    -0.046 Br
ENDBRANCH   3   9
BRANCH   2  18
ATOM     18  C   UNL     1      -0.980   3.892   2.296  0.00  0.00    +0.098 C 
ATOM     19  N   UNL     1      -0.953   4.558   3.216  0.00  0.00    -0.191 NA
ENDBRANCH   2  18
BRANCH   1  20
ATOM     20  S   UNL     1      -1.640   5.311  -0.222  0.00  0.00    -0.098 S 
BRANCH  20  21
ATOM     21  C   UNL     1      -1.945   5.428  -2.002  0.00  0.00    +0.196 C 
BRANCH  21  22
ATOM     22  C   UNL     1      -2.262   6.856  -2.365  0.00  0.00    +0.317 C 
ATOM     23  O   UNL     1      -2.279   7.707  -1.508  0.00  0.00    -0.250 OA
BRANCH  22  24
ATOM     24  O   UNL     1      -2.525   7.181  -3.640  0.00  0.00    -0.464 OA
BRANCH  24  26
ATOM     25  C   UNL     1      -3.092   8.753  -5.412  0.00  0.00    +0.048 C 
ATOM     26  C   UNL     1      -2.821   8.576  -3.916  0.00  0.00    +0.229 C 
ENDBRANCH  24  26
ENDBRANCH  22  24
ENDBRANCH  21  22
ENDBRANCH  20  21
ENDBRANCH   1  20
TORSDOF 7
