REMARK  Name = ZINC08764216
REMARK  9 active torsions:
REMARK  status: ('A' for Active; 'I' for Inactive)
REMARK    1  A    between atoms: C_1  and  C_2
REMARK    2  A    between atoms: C_12  and  C_13
REMARK    3  A    between atoms: C_13  and  C_14
REMARK    4  A    between atoms: N_16  and  CA_17
REMARK    5  A    between atoms: CA_17  and  CB_19
REMARK    6  A    between atoms: CA_17  and  C_30
REMARK    7  A    between atoms: CB_19  and  CG_20
REMARK    8  A    between atoms: C_33  and  C_36
REMARK    9  A    between atoms: C_33  and  C_37
REMARK                            x       y       z     vdW  Elec       q    Type
REMARK                         _______ _______ _______ _____ _____    ______ ____
ROOT
ATOM      1  C   UNK A   0      -4.989   3.796   0.080  0.00  0.00    +0.138 C 
ENDROOT
BRANCH   1  13
ATOM      2  C   UNK A   0      -2.560   5.374   0.059  0.00  0.00    +0.045 C 
ATOM      3  C   UNK A   0      -2.505   3.868   0.050  0.00  0.00    -0.029 A 
ATOM      4  C   UNK A   0      -1.224   3.156   0.030  0.00  0.00    +0.021 A 
ATOM      5  C   UNK A   0      -0.013   3.855   0.018  0.00  0.00    +0.019 A 
ATOM      6  C   UNK A   0       1.174   3.175   0.003  0.00  0.00    -0.005 A 
ATOM      7  C   UNK A   0       1.183   1.784   0.000  0.00  0.00    +0.128 A 
ATOM      8  C   UNK A   0      -0.013   1.076   0.008  0.00  0.00    +0.093 A 
ATOM      9  C   UNK A   0      -1.225   1.750   0.017  0.00  0.00    +0.143 A 
ATOM     10  O   UNK A   0      -2.385   1.065   0.031  0.00  0.00    -0.422 OA
ATOM     11  C   UNK A   0      -3.552   1.717   0.050  0.00  0.00    +0.341 A 
ATOM     12  O   UNK A   0      -4.583   1.067   0.058  0.00  0.00    -0.245 OA
ATOM     13  C   UNK A   0      -3.641   3.122   0.059  0.00  0.00    +0.049 A 
ATOM     14  O   UNK A   0       2.344   1.079  -0.003  0.00  0.00    -0.486 OA
ATOM     15  C   UNK A   0       3.539   1.762  -0.384  0.00  0.00    +0.105 C 
ATOM     16  C   UNK A   0       3.622   3.072   0.410  0.00  0.00    +0.052 C 
ATOM     17  C   UNK A   0       2.457   3.968  -0.017  0.00  0.00    +0.043 C 
ATOM     18  C   UNK A   0       3.501   2.070  -1.882  0.00  0.00    +0.055 C 
ATOM     19  C   UNK A   0       4.755   0.890  -0.068  0.00  0.00    +0.055 C 
ENDBRANCH   1  13
BRANCH   1  20
ATOM     20  C   UNK A   0      -5.456   4.029  -1.334  0.00  0.00    +0.218 C 
ATOM     21  O   UNK A   0      -4.762   3.682  -2.267  0.00  0.00    -0.275 OA
ATOM     22  N   TRP A   1      -6.644   4.623  -1.563  0.00  0.00    -0.302 N 
ATOM     23  H   TRP A   1      -7.198   4.901  -0.817  0.00  0.00    +0.150 HD
BRANCH  22  24
ATOM     24  CA  TRP A   1      -7.097   4.849  -2.937  0.00  0.00    +0.191 C 
BRANCH  24  25
ATOM     25  C   TRP A   1      -6.516   6.141  -3.452  0.00  0.00    +0.376 C 
ATOM     26  O   TRP A   1      -5.797   6.804  -2.743  0.00  0.00    -0.244 OA
ATOM     27  OXT TRP A   1      -6.797   6.554  -4.697  0.00  0.00    -0.244 OA
ENDBRANCH  24  25
BRANCH  24  28
ATOM     28  CB  TRP A   1      -8.625   4.931  -2.963  0.00  0.00    +0.071 C 
BRANCH  28  29
ATOM     29  CG  TRP A   1      -9.206   3.599  -2.566  0.00  0.00    -0.020 A 
ATOM     30  CD1 TRP A   1      -9.606   2.623  -3.396  0.00  0.00    +0.087 A 
ATOM     31  NE1 TRP A   1     -10.077   1.560  -2.673  0.00  0.00    -0.360 N 
ATOM     32  HE1 TRP A   1     -10.419   0.736  -3.053  0.00  0.00    +0.165 HD
ATOM     33  CE2 TRP A   1      -9.998   1.837  -1.327  0.00  0.00    +0.047 A 
ATOM     34  CD2 TRP A   1      -9.449   3.127  -1.200  0.00  0.00    +0.003 A 
ATOM     35  CE3 TRP A   1      -9.250   3.678   0.067  0.00  0.00    +0.010 A 
ATOM     36  CZ3 TRP A   1      -9.589   2.960   1.179  0.00  0.00    +0.001 A 
ATOM     37  CH2 TRP A   1     -10.131   1.688   1.060  0.00  0.00    +0.002 A 
ATOM     38  CZ2 TRP A   1     -10.336   1.125  -0.181  0.00  0.00    +0.026 A 
ENDBRANCH  28  29
ENDBRANCH  24  28
ENDBRANCH  22  24
ENDBRANCH   1  20
TORSDOF 6
