REMARK  Name = ZINC44870168
REMARK  6 active torsions:
REMARK  status: ('A' for Active; 'I' for Inactive)
REMARK    1  A    between atoms: C_1  and  C_2
REMARK    2  A    between atoms: C_2  and  C_3
REMARK    3  A    between atoms: C_2  and  C_4
REMARK    4  A    between atoms: C_4  and  C_6
REMARK    5  A    between atoms: C_4  and  C_10
REMARK    6  A    between atoms: N_7  and  O_8
REMARK                            x       y       z     vdW  Elec       q    Type
REMARK                         _______ _______ _______ _____ _____    ______ ____
ROOT
ATOM      1  C   UNL     1      -2.150   0.045  -1.046  0.00  0.00    +0.226 C 
ATOM      2  O   UNL     1      -2.795  -0.699  -1.753  0.00  0.00    -0.275 OA
ATOM      3  N   UNL     1      -2.168   1.374  -1.273  0.00  0.00    -0.298 N 
ATOM      4  C   UNL     1      -1.491   2.306  -0.358  0.00  0.00    +0.108 C 
ATOM      5  C   UNL     1      -2.484   3.381   0.089  0.00  0.00    +0.019 C 
ATOM      6  C   UNL     1      -3.115   4.044  -1.140  0.00  0.00    +0.007 C 
ATOM      7  C   UNL     1      -3.861   2.986  -1.952  0.00  0.00    +0.010 C 
ATOM      8  C   UNL     1      -2.859   1.929  -2.441  0.00  0.00    +0.079 C 
ATOM      9  C   UNL     1      -3.613   0.832  -3.191  0.00  0.00    +0.023 C 
ATOM     10  C   UNL     1      -4.314   1.449  -4.405  0.00  0.00    +0.002 C 
ATOM     11  C   UNL     1      -5.292   2.531  -3.946  0.00  0.00    +0.000 C 
ATOM     12  C   UNL     1      -4.541   3.618  -3.166  0.00  0.00    +0.005 C 
ENDROOT
BRANCH   1  13
ATOM     13  C   UNL     1      -1.328  -0.515   0.086  0.00  0.00    +0.144 C 
BRANCH  13  14
ATOM     14  C   UNL     1      -2.203  -0.696   1.300  0.00  0.00    +0.144 C 
ATOM     15  N   UNL     1      -2.748  -1.843   1.538  0.00  0.00    -0.076 NA
ATOM     16  N   UNL     1      -2.420   0.361   2.156  0.00  0.00    -0.343 N 
ATOM     17  H   UNL     1      -2.011   1.222   1.978  0.00  0.00    +0.144 HD
ATOM     18  H   UNL     1      -2.983   0.244   2.937  0.00  0.00    +0.144 HD
BRANCH  15  19
ATOM     19  O   UNL     1      -3.570  -2.013   2.678  0.00  0.00    -0.408 OA
ATOM     20  H   UNL     1      -3.933  -2.905   2.772  0.00  0.00    +0.328 HD
ENDBRANCH  15  19
ENDBRANCH  13  14
BRANCH  13  22
ATOM     21  C   UNL     1       0.223  -1.668  -1.497  0.00  0.00    +0.008 C 
ATOM     22  C   UNL     1      -0.744  -1.867  -0.328  0.00  0.00    +0.002 C 
ATOM     23  C   UNL     1       0.006  -2.482   0.855  0.00  0.00    +0.008 C 
ENDBRANCH  13  22
ENDBRANCH   1  13
TORSDOF 4
