REMARK  Name = ZINC12529043
REMARK  6 active torsions:
REMARK  status: ('A' for Active; 'I' for Inactive)
REMARK    1  A    between atoms: C_1  and  C_2
REMARK    2  A    between atoms: C_2  and  C_31
REMARK    3  A    between atoms: N_6  and  C_7
REMARK    4  A    between atoms: C_7  and  C_8
REMARK    5  A    between atoms: C_15  and  C_17
REMARK    6  A    between atoms: C_17  and  N_18
REMARK                            x       y       z     vdW  Elec       q    Type
REMARK                         _______ _______ _______ _____ _____    ______ ____
ROOT
ATOM      1  C   UNL     1       6.987   4.136  -3.775  0.00  0.00    +0.033 C 
ATOM      2  C   UNL     1       6.811   5.477  -3.059  0.00  0.00    +0.048 C 
ATOM      3  C   UNL     1       8.120   6.279  -3.179  0.00  0.00    +0.103 C 
ATOM      4  S   UNL     1       8.557   6.522  -1.416  0.00  0.00    -0.088 S 
ATOM      5  C   UNL     1       7.184   5.681  -0.655  0.00  0.00    +0.159 C 
ATOM      6  N   UNL     1       6.961   5.530   0.620  0.00  0.00    -0.258 NA
ATOM      7  N   UNL     1       6.409   5.223  -1.696  0.00  0.00    -0.243 N 
ATOM      8  C   UNL     1       5.278   4.535  -1.443  0.00  0.00    +0.243 C 
ATOM      9  O   UNL     1       4.596   4.132  -2.360  0.00  0.00    -0.273 OA
ATOM     10  C   UNL     1       5.697   6.258  -3.761  0.00  0.00    +0.033 C 
ENDROOT
BRANCH   6  11
ATOM     11  C   UNL     1       7.898   6.086   1.599  0.00  0.00    +0.179 C 
BRANCH  11  12
ATOM     12  C   UNL     1       7.212   7.167   2.394  0.00  0.00    -0.026 A 
ATOM     13  C   UNL     1       7.255   8.478   1.960  0.00  0.00    +0.005 A 
ATOM     14  C   UNL     1       6.622   9.469   2.687  0.00  0.00    +0.000 A 
ATOM     15  C   UNL     1       5.953   9.149   3.854  0.00  0.00    +0.000 A 
ATOM     16  C   UNL     1       5.914   7.838   4.291  0.00  0.00    +0.000 A 
ATOM     17  C   UNL     1       6.543   6.847   3.561  0.00  0.00    +0.005 A 
ENDBRANCH  11  12
ENDBRANCH   6  11
BRANCH   8  18
ATOM     18  C   UNL     1       4.862   4.266  -0.020  0.00  0.00    +0.241 C 
BRANCH  18  19
ATOM     19  N   UNL     1       3.610   3.506  -0.012  0.00  0.00    -0.240 N 
ATOM     20  C   UNL     1       3.662   2.160  -0.021  0.00  0.00    +0.274 A 
ATOM     21  O   UNL     1       4.734   1.589  -0.034  0.00  0.00    -0.266 OA
ATOM     22  C   UNL     1       2.403   1.383  -0.013  0.00  0.00    +0.053 A 
ATOM     23  C   UNL     1       2.405  -0.005  -0.021  0.00  0.00    +0.014 A 
ATOM     24  C   UNL     1       1.203  -0.691  -0.014  0.00  0.00    +0.001 A 
ATOM     25  C   UNL     1       0.002  -0.004   0.002  0.00  0.00    +0.001 A 
ATOM     26  C   UNL     1      -0.017   1.380   0.010  0.00  0.00    +0.014 A 
ATOM     27  C   UNL     1       1.180   2.082   0.002  0.00  0.00    +0.053 A 
ATOM     28  C   UNL     1       1.212   3.561   0.011  0.00  0.00    +0.271 A 
ATOM     29  O   UNL     1       0.175   4.195   0.024  0.00  0.00    -0.266 OA
ATOM     30  N   UNL     1       2.398   4.199   0.004  0.00  0.00    -0.260 N 
ATOM     31  H   UNL     1       2.411   5.169   0.010  0.00  0.00    +0.190 HD
ENDBRANCH  18  19
ENDBRANCH   8  18
TORSDOF 4
