REMARK  Name = ZINC03195615
REMARK  7 active torsions:
REMARK  status: ('A' for Active; 'I' for Inactive)
REMARK    1  A    between atoms: C_1  and  C_2
REMARK    2  A    between atoms: C_5  and  O_9
REMARK    3  A    between atoms: C_7  and  C_8
REMARK    4  A    between atoms: O_9  and  C_10
REMARK    5  A    between atoms: C_10  and  C_12
REMARK    6  A    between atoms: C_15  and  N_18
REMARK    7  A    between atoms: C_25  and  N_29
REMARK                            x       y       z     vdW  Elec       q    Type
REMARK                         _______ _______ _______ _____ _____    ______ ____
ROOT
ATOM      1  C   UNL     1       5.000   0.641  -0.083  0.00  0.00    +0.060 A 
ATOM      2  C   UNL     1       4.730   2.012  -0.119  0.00  0.00    +0.017 A 
ATOM      3  C   UNL     1       3.426   2.455  -0.105  0.00  0.00    +0.025 A 
ATOM      4  C   UNL     1       2.379   1.540  -0.056  0.00  0.00    +0.045 A 
ATOM      5  C   UNL     1       2.645   0.176  -0.015  0.00  0.00    +0.025 A 
ATOM      6  C   UNL     1       3.946  -0.275  -0.034  0.00  0.00    +0.017 A 
ENDROOT
BRANCH   4   7
ATOM      7  N   UNL     1       1.058   1.994  -0.043  0.00  0.00    -0.202 N 
ATOM      8  C   UNL     1       0.698   3.290  -0.074  0.00  0.00    +0.258 C 
ATOM      9  O   UNL     1       1.457   4.237  -0.118  0.00  0.00    -0.269 OA
ATOM     10  C   UNL     1      -0.777   3.367  -0.045  0.00  0.00    +0.052 A 
ATOM     11  C   UNL     1      -1.692   4.405  -0.057  0.00  0.00    +0.014 A 
ATOM     12  C   UNL     1      -3.053   4.131  -0.035  0.00  0.00    +0.003 A 
ATOM     13  C   UNL     1      -3.506   2.830   0.011  0.00  0.00    +0.023 A 
ATOM     14  C   UNL     1      -2.600   1.767   0.028  0.00  0.00    +0.038 A 
ATOM     15  C   UNL     1      -1.231   2.031  -0.002  0.00  0.00    +0.070 A 
ATOM     16  C   UNL     1      -0.021   1.192   0.004  0.00  0.00    +0.260 C 
ATOM     17  O   UNL     1      -0.001  -0.022   0.039  0.00  0.00    -0.269 OA
BRANCH  14  18
ATOM     18  N   UNL     1      -3.058   0.459   0.075  0.00  0.00    -0.357 N 
ATOM     19  H   UNL     1      -2.426  -0.277   0.087  0.00  0.00    +0.142 HD
ATOM     20  H   UNL     1      -4.011   0.279   0.095  0.00  0.00    +0.142 HD
ENDBRANCH  14  18
ENDBRANCH   4   7
BRANCH   1  21
ATOM     21  C   UNL     1       6.395   0.162  -0.097  0.00  0.00    +0.344 C 
ATOM     22  O   UNL     1       7.311   0.960  -0.140  0.00  0.00    -0.245 OA
BRANCH  21  23
ATOM     23  O   UNL     1       6.654  -1.160  -0.063  0.00  0.00    -0.422 OA
BRANCH  23  28
ATOM     24  C   UNL     1      12.043  -2.724  -0.555  0.00  0.00    +0.044 C 
ATOM     25  C   UNL     1      10.601  -2.305  -0.423  0.00  0.00    -0.047 A 
ATOM     26  C   UNL     1       9.746  -2.425  -1.504  0.00  0.00    +0.007 A 
ATOM     27  C   UNL     1       8.423  -2.048  -1.384  0.00  0.00    +0.046 A 
ATOM     28  C   UNL     1       7.954  -1.537  -0.181  0.00  0.00    +0.132 A 
ATOM     29  C   UNL     1       8.814  -1.418   0.901  0.00  0.00    +0.050 A 
ATOM     30  C   UNL     1      10.135  -1.802   0.777  0.00  0.00    -0.044 A 
ATOM     31  C   UNL     1      11.070  -1.673   1.952  0.00  0.00    +0.044 C 
ENDBRANCH  23  28
ENDBRANCH  21  23
ENDBRANCH   1  21
TORSDOF 5
