REMARK  Name = ZINC36763722
REMARK  6 active torsions:
REMARK  status: ('A' for Active; 'I' for Inactive)
REMARK    1  A    between atoms: C_1  and  C_2
REMARK    2  A    between atoms: C_2  and  C_3
REMARK    3  A    between atoms: C_2  and  C_4
REMARK    4  A    between atoms: C_6  and  C_9
REMARK    5  A    between atoms: C_9  and  C_11
REMARK    6  A    between atoms: C_9  and  N_19
REMARK                            x       y       z     vdW  Elec       q    Type
REMARK                         _______ _______ _______ _____ _____    ______ ____
ROOT
ATOM      1  C   UNL     1      -4.169  -2.408  -1.382  0.00  0.00    +0.029 C 
ENDROOT
BRANCH   1   2
ATOM      2  C   UNL     1      -5.165  -1.520  -2.083  0.00  0.00    -0.053 A 
ATOM      3  C   UNL     1      -6.251  -1.019  -1.389  0.00  0.00    +0.005 A 
ATOM      4  C   UNL     1      -7.165  -0.204  -2.030  0.00  0.00    +0.040 A 
ATOM      5  C   UNL     1      -6.993   0.111  -3.367  0.00  0.00    +0.137 A 
ATOM      6  C   UNL     1      -5.904  -0.391  -4.061  0.00  0.00    +0.053 A 
ATOM      7  C   UNL     1      -4.989  -1.202  -3.416  0.00  0.00    +0.020 A 
ATOM      8 BR   UNL     1      -5.668   0.037  -5.888  0.00  0.00    -0.047 Br
ATOM      9  F   UNL     1      -7.886   0.907  -3.994  0.00  0.00    -0.204 F 
ENDBRANCH   1   2
BRANCH   1  12
ATOM     10  C   UNL     1      -1.412  -0.526   0.013  0.00  0.00    +0.230 A 
ATOM     11  N   UNL     1      -1.953  -1.285  -0.899  0.00  0.00    -0.197 NA
ATOM     12  C   UNL     1      -3.221  -1.560  -0.574  0.00  0.00    +0.162 A 
ATOM     13  N   UNL     1      -3.503  -0.976   0.555  0.00  0.00    -0.063 NA
ATOM     14  O   UNL     1      -2.326  -0.294   0.963  0.00  0.00    -0.338 OA
BRANCH  10  16
ATOM     15  C   UNL     1      -0.019   1.526   0.010  0.00  0.00    +0.017 C 
ATOM     16  C   UNL     1       0.002  -0.004   0.002  0.00  0.00    +0.072 C 
ATOM     17  C   UNL     1       0.742  -0.511   1.242  0.00  0.00    +0.017 C 
ENDBRANCH  10  16
ENDBRANCH   1  12
BRANCH   1  18
ATOM     18  N   UNL     1      -4.880  -3.333  -0.490  0.00  0.00    +0.387 N 
ATOM     19  H   UNL     1      -5.401  -2.807   0.195  0.00  0.00    -0.089 HD
ATOM     20  H   UNL     1      -5.515  -3.901  -1.032  0.00  0.00    -0.089 HD
ATOM     21  H   UNL     1      -4.214  -3.928  -0.021  0.00  0.00    -0.089 HD
ENDBRANCH   1  18
TORSDOF 4
