REMARK  Name = ZINC05099961
REMARK  6 active torsions:
REMARK  status: ('A' for Active; 'I' for Inactive)
REMARK    1  A    between atoms: N_10  and  N_11
REMARK    2  A    between atoms: C_12  and  C_13
REMARK    3  A    between atoms: N_17  and  C_18
REMARK    4  A    between atoms: C_18  and  C_19
REMARK    5  A    between atoms: C_19  and  O_20
REMARK    6  A    between atoms: O_20  and  C_21
REMARK                            x       y       z     vdW  Elec       q    Type
REMARK                         _______ _______ _______ _____ _____    ______ ____
ROOT
ATOM      1  C   UNL     1       6.059  -5.802  -0.088  0.00  0.00    +0.062 A 
ATOM      2  C   UNL     1       7.118  -4.918  -0.088  0.00  0.00    +0.029 A 
ATOM      3  C   UNL     1       8.294  -5.681  -0.105  0.00  0.00    +0.020 A 
ATOM      4  C   UNL     1       7.942  -6.986  -0.116  0.00  0.00    +0.086 A 
ATOM      5  N   UNL     1       6.580  -7.074  -0.100  0.00  0.00    -0.343 N 
ENDROOT
BRANCH   1   7
ATOM      6  N   UNL     1       4.276  -4.192  -0.062  0.00  0.00    -0.153 NA
ATOM      7  C   UNL     1       4.638  -5.449  -0.072  0.00  0.00    +0.160 C 
BRANCH   6  17
ATOM      8  C   UNL     1      -0.017   1.370   0.010  0.00  0.00    +0.002 A 
ATOM      9  C   UNL     1       1.157   2.104   0.002  0.00  0.00    +0.001 A 
ATOM     10  C   UNL     1       2.369   1.437  -0.013  0.00  0.00    +0.017 A 
ATOM     11  C   UNL     1       2.388   0.062  -0.020  0.00  0.00    +0.039 A 
ATOM     12  C   UNL     1       1.218  -0.710  -0.013  0.00  0.00    +0.055 A 
ATOM     13  C   UNL     1       0.002  -0.004   0.002  0.00  0.00    +0.027 A 
ATOM     14  N   UNL     1       1.394  -2.082  -0.022  0.00  0.00    -0.332 N 
ATOM     15  H   UNL     1       0.622  -2.670  -0.018  0.00  0.00    +0.168 HD
ATOM     16  C   UNL     1       2.658  -2.612  -0.038  0.00  0.00    +0.193 A 
ATOM     17  N   UNL     1       3.024  -3.881  -0.048  0.00  0.00    -0.124 NA
ATOM     18  S   UNL     1       3.685  -1.152  -0.039  0.00  0.00    -0.048 S 
ENDBRANCH   6  17
ENDBRANCH   1   7
BRANCH   5  19
ATOM     19  C   UNL     1       5.804  -8.316  -0.100  0.00  0.00    +0.163 C 
BRANCH  19  20
ATOM     20  C   UNL     1       5.413  -8.674  -1.535  0.00  0.00    +0.250 C 
BRANCH  20  21
ATOM     21  O   UNL     1       4.656  -9.886  -1.535  0.00  0.00    -0.490 OA
BRANCH  21  22
ATOM     22  C   UNL     1       4.228 -10.347  -2.740  0.00  0.00    +0.121 A 
ATOM     23  C   UNL     1       4.536  -9.649  -3.899  0.00  0.00    +0.047 A 
ATOM     24  C   UNL     1       4.101 -10.119  -5.123  0.00  0.00    +0.023 A 
ATOM     25  C   UNL     1       3.357 -11.284  -5.193  0.00  0.00    +0.041 A 
ATOM     26  C   UNL     1       3.049 -11.980  -4.038  0.00  0.00    +0.023 A 
ATOM     27  C   UNL     1       3.488 -11.517  -2.813  0.00  0.00    +0.047 A 
ATOM     28 CL   UNL     1       2.810 -11.872  -6.732  0.00  0.00    -0.084 Cl
ENDBRANCH  21  22
ENDBRANCH  20  21
ENDBRANCH  19  20
ENDBRANCH   5  19
TORSDOF 6
