REMARK  Name = ZINC66883772
REMARK  7 active torsions:
REMARK  status: ('A' for Active; 'I' for Inactive)
REMARK    1  A    between atoms: C_1  and  C_2
REMARK    2  A    between atoms: C_2  and  N_3
REMARK    3  A    between atoms: C_12  and  C_14
REMARK    4  A    between atoms: C_14  and  O_16
REMARK    5  A    between atoms: O_16  and  C_17
REMARK    6  A    between atoms: C_17  and  C_19
REMARK    7  A    between atoms: C_17  and  C_20
REMARK                            x       y       z     vdW  Elec       q    Type
REMARK                         _______ _______ _______ _____ _____    ______ ____
ROOT
ATOM      1  C   UNL     1      -3.715  -1.386   2.638  0.00  0.00    +0.361 C 
ATOM      2  O   UNL     1      -4.848  -1.804   2.765  0.00  0.00    -0.243 OA
ENDROOT
BRANCH   1  12
ATOM      3  N   UNL     1      -1.372  -0.511   0.012  0.00  0.00    -0.229 N 
ATOM      4  C   UNL     1      -1.981  -0.731  -1.171  0.00  0.00    +0.275 A 
ATOM      5  O   UNL     1      -1.401  -0.513  -2.219  0.00  0.00    -0.266 OA
ATOM      6  C   UNL     1      -3.359  -1.239  -1.167  0.00  0.00    +0.050 A 
ATOM      7  C   UNL     1      -4.074  -1.498  -2.332  0.00  0.00    +0.014 A 
ATOM      8  C   UNL     1      -5.364  -1.974  -2.242  0.00  0.00    +0.001 A 
ATOM      9  C   UNL     1      -5.954  -2.196  -1.005  0.00  0.00    +0.001 A 
ATOM     10  C   UNL     1      -5.263  -1.946   0.162  0.00  0.00    +0.011 A 
ATOM     11  C   UNL     1      -3.960  -1.466   0.094  0.00  0.00    +0.021 A 
ATOM     12  C   UNL     1      -3.154  -1.173   1.290  0.00  0.00    +0.176 A 
ATOM     13  N   UNL     1      -1.929  -0.727   1.144  0.00  0.00    -0.161 NA
BRANCH   3  15
ATOM     14  C   UNL     1      -0.019   1.526   0.010  0.00  0.00    +0.029 C 
ATOM     15  C   UNL     1       0.002  -0.004   0.002  0.00  0.00    +0.144 C 
ENDBRANCH   3  15
ENDBRANCH   1  12
BRANCH   1  16
ATOM     16  O   UNL     1      -2.970  -1.115   3.728  0.00  0.00    -0.452 OA
BRANCH  16  17
ATOM     17  C   UNL     1      -3.576  -1.344   5.001  0.00  0.00    +0.204 C 
ATOM     18  C   UNL     1      -4.292  -0.072   5.461  0.00  0.00    +0.057 C 
BRANCH  17  19
ATOM     19  C   UNL     1      -2.514  -1.714   6.005  0.00  0.00    -0.004 A 
ATOM     20  C   UNL     1      -1.297  -1.059   5.993  0.00  0.00    +0.011 A 
ATOM     21  C   UNL     1      -0.320  -1.395   6.911  0.00  0.00    +0.050 A 
ATOM     22  C   UNL     1      -0.559  -2.392   7.846  0.00  0.00    +0.162 A 
ATOM     23  C   UNL     1      -1.784  -3.048   7.859  0.00  0.00    +0.162 A 
ATOM     24  C   UNL     1      -2.761  -2.702   6.938  0.00  0.00    +0.056 A 
ATOM     25  O   UNL     1      -2.042  -4.023   8.773  0.00  0.00    -0.485 OA
ATOM     26  C   UNL     1      -0.911  -4.595   9.441  0.00  0.00    +0.270 C 
ATOM     27  C   UNL     1       0.005  -3.452   9.898  0.00  0.00    +0.270 C 
ATOM     28  O   UNL     1       0.414  -2.715   8.741  0.00  0.00    -0.485 OA
ENDBRANCH  17  19
ENDBRANCH  16  17
ENDBRANCH   1  16
TORSDOF 5
