REMARK  Name = ZINC13033031
REMARK  15 active torsions:
REMARK  status: ('A' for Active; 'I' for Inactive)
REMARK    1  A    between atoms: C_1  and  C_2
REMARK    2  A    between atoms: C_5  and  C_39
REMARK    3  A    between atoms: C_9  and  C_14
REMARK    4  A    between atoms: C_14  and  N_71
REMARK    5  A    between atoms: C_15  and  C_16
REMARK    6  A    between atoms: C_15  and  N_71
REMARK    7  A    between atoms: C_16  and  C_17
REMARK    8  A    between atoms: C_20  and  O_25
REMARK    9  A    between atoms: C_21  and  O_23
REMARK   10  A    between atoms: O_23  and  C_24
REMARK   11  A    between atoms: O_25  and  C_26
REMARK   12  A    between atoms: C_27  and  C_28
REMARK   13  A    between atoms: C_27  and  N_71
REMARK   14  A    between atoms: N_32  and  C_33
REMARK   15  A    between atoms: C_33  and  C_34
REMARK                            x       y       z     vdW  Elec       q    Type
REMARK                         _______ _______ _______ _____ _____    ______ ____
ROOT
ATOM      1  N   UNL     1       0.048   1.131  -2.251  0.00  0.00    +0.387 N 
ATOM      2  H   UNL     1       1.062   1.290  -2.210  0.00  0.00    -0.081 HD
ENDROOT
BRANCH   1   3
ATOM      3  C   UNL     1      -0.530   1.989  -3.307  0.00  0.00    -0.037 C 
BRANCH   3  12
ATOM      4  C   UNL     1       3.550   4.300  -5.572  0.00  0.00    +0.044 C 
ATOM      5  C   UNL     1       2.930   5.305  -4.635  0.00  0.00    -0.041 A 
ATOM      6  C   UNL     1       3.465   6.556  -4.519  0.00  0.00    +0.004 A 
ATOM      7  C   UNL     1       2.901   7.489  -3.660  0.00  0.00    +0.005 A 
ATOM      8  C   UNL     1       1.790   7.171  -2.907  0.00  0.00    -0.026 A 
ATOM      9  C   UNL     1       1.228   5.903  -3.009  0.00  0.00    +0.052 A 
ATOM     10  C   UNL     1       1.803   4.960  -3.881  0.00  0.00    +0.002 A 
ATOM     11  C   UNL     1       1.204   3.628  -3.982  0.00  0.00    +0.017 A 
ATOM     12  C   UNL     1       0.112   3.351  -3.227  0.00  0.00    +0.001 A 
ATOM     13  C   UNL     1      -0.430   4.334  -2.372  0.00  0.00    +0.251 A 
ATOM     14  O   UNL     1      -1.415   4.065  -1.706  0.00  0.00    -0.268 OA
ATOM     15  N   UNL     1       0.117   5.558  -2.268  0.00  0.00    -0.322 N 
ATOM     16  H   UNL     1      -0.278   6.209  -1.668  0.00  0.00    +0.169 HD
ATOM     17  C   UNL     1       1.187   8.194  -1.979  0.00  0.00    +0.046 C 
ENDBRANCH   3  12
ENDBRANCH   1   3
BRANCH   1  18
ATOM     18  C   UNL     1      -0.545   1.474  -0.941  0.00  0.00    -0.073 C 
BRANCH  18  19
ATOM     19  C   UNL     1       0.224   0.736   0.157  0.00  0.00    +0.017 C 
BRANCH  19  20
ATOM     20  C   UNL     1      -0.355   1.092   1.502  0.00  0.00    -0.045 A 
ATOM     21  C   UNL     1       0.146   2.171   2.205  0.00  0.00    +0.007 A 
ATOM     22  C   UNL     1      -0.386   2.506   3.436  0.00  0.00    +0.049 A 
ATOM     23  C   UNL     1      -1.416   1.751   3.974  0.00  0.00    +0.161 A 
ATOM     24  C   UNL     1      -1.917   0.660   3.269  0.00  0.00    +0.162 A 
ATOM     25  C   UNL     1      -1.383   0.335   2.033  0.00  0.00    +0.053 A 
BRANCH  24  26
ATOM     26  O   UNL     1      -2.928  -0.083   3.792  0.00  0.00    -0.491 OA
ATOM     27  C   UNL     1      -3.392  -1.187   3.013  0.00  0.00    +0.277 C 
ENDBRANCH  24  26
BRANCH  23  28
ATOM     28  O   UNL     1      -1.937   2.075   5.188  0.00  0.00    -0.491 OA
ATOM     29  C   UNL     1      -1.373   3.207   5.854  0.00  0.00    +0.277 C 
ENDBRANCH  23  28
ENDBRANCH  19  20
ENDBRANCH  18  19
ENDBRANCH   1  18
BRANCH   1  30
ATOM     30  C   UNL     1      -0.203  -0.292  -2.562  0.00  0.00    +0.001 C 
BRANCH  30  31
ATOM     31  C   UNL     1       0.679  -0.699  -3.714  0.00  0.00    +0.136 A 
ATOM     32  N   UNL     1       0.355  -0.706  -4.984  0.00  0.00    -0.115 NA
ATOM     33  N   UNL     1       1.377  -1.113  -5.654  0.00  0.00    -0.023 NA
ATOM     34  N   UNL     1       2.343  -1.374  -4.843  0.00  0.00    -0.044 NA
ATOM     35  N   UNL     1       1.951  -1.131  -3.638  0.00  0.00    -0.224 N 
BRANCH  35  36
ATOM     36  C   UNL     1       2.743  -1.294  -2.417  0.00  0.00    +0.221 C 
BRANCH  36  37
ATOM     37  C   UNL     1       2.553  -2.688  -1.877  0.00  0.00    +0.126 A 
ATOM     38  C   UNL     1       3.297  -3.763  -2.195  0.00  0.00    +0.046 A 
ATOM     39  C   UNL     1       2.775  -4.854  -1.462  0.00  0.00    +0.041 A 
ATOM     40  C   UNL     1       1.738  -4.382  -0.747  0.00  0.00    +0.195 A 
ATOM     41  O   UNL     1       1.608  -3.070  -1.002  0.00  0.00    -0.466 OA
ENDBRANCH  36  37
ENDBRANCH  35  36
ENDBRANCH  30  31
ENDBRANCH   1  30
TORSDOF 11
