REMARK  Name = ZINC35966376
REMARK  12 active torsions:
REMARK  status: ('A' for Active; 'I' for Inactive)
REMARK    1  A    between atoms: C_1  and  C_2
REMARK    2  A    between atoms: C_2  and  N_3
REMARK    3  A    between atoms: C_6  and  C_11
REMARK    4  A    between atoms: C_14  and  C_18
REMARK    5  A    between atoms: C_16  and  C_17
REMARK    6  A    between atoms: N_21  and  C_23
REMARK    7  A    between atoms: C_23  and  C_25
REMARK    8  A    between atoms: C_23  and  C_29
REMARK    9  A    between atoms: C_25  and  C_26
REMARK   10  A    between atoms: C_26  and  C_27
REMARK   11  A    between atoms: C_26  and  C_28
REMARK   12  A    between atoms: N_31  and  C_32
REMARK                            x       y       z     vdW  Elec       q    Type
REMARK                         _______ _______ _______ _____ _____    ______ ____
ROOT
ATOM      1  N   UNL     1       0.987  -0.473   1.101  0.00  0.00    -0.257 N 
ATOM      2  C   UNL     1       2.280  -0.910   1.124  0.00  0.00    +0.042 C 
ATOM      3  C   UNL     1       2.874  -1.277   2.278  0.00  0.00    +0.058 C 
ATOM      4  C   UNL     1       2.056  -1.188   3.550  0.00  0.00    +0.142 C 
ATOM      5  N   UNL     1       0.671  -0.704   3.420  0.00  0.00    -0.288 N 
ATOM      6  C   UNL     1       0.220  -0.369   2.195  0.00  0.00    +0.307 C 
ATOM      7  O   UNL     1      -0.920   0.036   2.078  0.00  0.00    -0.252 OA
ATOM      8  C   UNL     1       4.201  -1.688   2.038  0.00  0.00    +0.247 C 
ATOM      9  O   UNL     1       4.969  -2.072   2.901  0.00  0.00    -0.270 OA
ATOM     10  N   UNL     1       4.507  -1.602   0.731  0.00  0.00    -0.281 N 
ATOM     11  C   UNL     1       3.313  -1.099   0.035  0.00  0.00    +0.160 C 
ATOM     12  H   UNL     1       0.098  -0.625   4.198  0.00  0.00    +0.151 HD
ENDROOT
BRANCH   4  13
ATOM     13  C   UNL     1       2.779  -0.273   4.504  0.00  0.00    -0.020 A 
ATOM     14  C   UNL     1       3.709   0.631   4.024  0.00  0.00    +0.006 A 
ATOM     15  C   UNL     1       4.372   1.471   4.899  0.00  0.00    +0.004 A 
ATOM     16  C   UNL     1       4.106   1.407   6.255  0.00  0.00    -0.050 A 
ATOM     17  C   UNL     1       3.176   0.503   6.734  0.00  0.00    +0.007 A 
ATOM     18  C   UNL     1       2.510  -0.333   5.859  0.00  0.00    -0.045 A 
ATOM     19  C   UNL     1       1.492  -1.314   6.381  0.00  0.00    +0.044 C 
ATOM     20  C   UNL     1       4.830   2.321   7.209  0.00  0.00    +0.044 C 
ENDBRANCH   4  13
BRANCH   1  22
ATOM     21  C   UNL     1       0.667   1.396  -0.444  0.00  0.00    +0.025 C 
ATOM     22  C   UNL     1       0.408  -0.090  -0.189  0.00  0.00    +0.111 C 
ENDBRANCH   1  22
BRANCH  10  23
ATOM     23  C   UNL     1       5.792  -1.944   0.115  0.00  0.00    +0.163 C 
BRANCH  23  24
ATOM     24  C   UNL     1       6.028  -3.427   0.235  0.00  0.00    +0.238 C 
ATOM     25  O   UNL     1       5.204  -4.130   0.781  0.00  0.00    -0.273 OA
ATOM     26  N   UNL     1       7.154  -3.973  -0.265  0.00  0.00    -0.284 N 
ATOM     27  H   UNL     1       7.843  -3.404  -0.643  0.00  0.00    +0.155 HD
BRANCH  26  28
ATOM     28  C   UNL     1       7.330  -5.362  -0.238  0.00  0.00    +0.034 A 
ATOM     29  C   UNL     1       8.597  -5.899  -0.054  0.00  0.00    +0.026 A 
ATOM     30  C   UNL     1       8.769  -7.269  -0.028  0.00  0.00    +0.040 A 
ATOM     31  C   UNL     1       7.678  -8.107  -0.187  0.00  0.00    +0.124 A 
ATOM     32  C   UNL     1       6.414  -7.574  -0.371  0.00  0.00    +0.040 A 
ATOM     33  C   UNL     1       6.237  -6.204  -0.391  0.00  0.00    +0.026 A 
ATOM     34  F   UNL     1       7.848  -9.447  -0.163  0.00  0.00    -0.205 F 
ENDBRANCH  26  28
ENDBRANCH  23  24
BRANCH  23  35
ATOM     35  C   UNL     1       6.916  -1.189   0.827  0.00  0.00    +0.035 C 
BRANCH  35  36
ATOM     36  C   UNL     1       6.795   0.307   0.529  0.00  0.00    -0.015 C 
ATOM     37  C   UNL     1       5.546   0.864   1.215  0.00  0.00    +0.007 C 
ATOM     38  C   UNL     1       8.034   1.034   1.057  0.00  0.00    +0.007 C 
ENDBRANCH  35  36
ENDBRANCH  23  35
ENDBRANCH  10  23
TORSDOF 7
