REMARK  Name = ZINC59283551
REMARK  13 active torsions:
REMARK  status: ('A' for Active; 'I' for Inactive)
REMARK    1  A    between atoms: C_1  and  C_2
REMARK    2  A    between atoms: C_2  and  C_3
REMARK    3  A    between atoms: C_3  and  C_4
REMARK    4  A    between atoms: N_6  and  C_7
REMARK    5  A    between atoms: C_10  and  C_13
REMARK    6  A    between atoms: C_13  and  N_14
REMARK    7  A    between atoms: C_15  and  C_17
REMARK    8  A    between atoms: C_17  and  N_18
REMARK    9  A    between atoms: C_24  and  C_27
REMARK   10  A    between atoms: C_27  and  C_28
REMARK   11  A    between atoms: C_27  and  C_29
REMARK   12  A    between atoms: C_27  and  C_30
REMARK   13  A    between atoms: C_30  and  C_31
REMARK                            x       y       z     vdW  Elec       q    Type
REMARK                         _______ _______ _______ _____ _____    ______ ____
ROOT
ATOM      1  C   UNL     1      -2.270 -10.522   3.521  0.00  0.00    +0.213 C 
ENDROOT
BRANCH   1   2
ATOM      2  N   UNL     1      -2.192 -11.982   3.607  0.00  0.00    -0.215 N 
ATOM      3  C   UNL     1      -3.264 -12.800   3.604  0.00  0.00    +0.247 C 
ATOM      4  O   UNL     1      -4.431 -12.480   3.533  0.00  0.00    -0.273 OA
ATOM      5  C   UNL     1      -2.704 -14.200   3.708  0.00  0.00    +0.113 C 
ATOM      6  C   UNL     1      -3.086 -15.018   2.479  0.00  0.00    +0.035 C 
ATOM      7  C   UNL     1      -4.607 -15.177   2.423  0.00  0.00    +0.006 C 
ATOM      8  C   UNL     1      -5.092 -15.879   3.693  0.00  0.00    -0.005 C 
ATOM      9  C   UNL     1      -4.721 -15.038   4.916  0.00  0.00    +0.006 C 
ATOM     10  C   UNL     1      -3.200 -14.877   4.981  0.00  0.00    +0.035 C 
ATOM     11  N   UNL     1      -1.251 -14.000   3.763  0.00  0.00    -0.285 N 
ATOM     12  C   UNL     1      -1.047 -12.671   3.693  0.00  0.00    +0.310 C 
ATOM     13  O   UNL     1       0.053 -12.154   3.709  0.00  0.00    -0.252 OA
ATOM     14  H   UNL     1      -0.572 -14.689   3.833  0.00  0.00    +0.151 HD
BRANCH   8  15
ATOM     15  C   UNL     1      -6.611 -16.048   3.633  0.00  0.00    -0.032 C 
ATOM     16  C   UNL     1      -7.274 -14.674   3.525  0.00  0.00    +0.011 C 
ATOM     17  C   UNL     1      -6.983 -16.891   2.412  0.00  0.00    +0.011 C 
BRANCH  15  18
ATOM     18  C   UNL     1      -7.097 -16.750   4.904  0.00  0.00    +0.003 C 
ATOM     19  C   UNL     1      -8.616 -16.919   4.844  0.00  0.00    +0.004 C 
ENDBRANCH  15  18
ENDBRANCH   8  15
ENDBRANCH   1   2
BRANCH   1  21
ATOM     20  N   UNL     1      -2.299  -8.794   1.751  0.00  0.00    -0.310 N 
ATOM     21  C   UNL     1      -2.238 -10.101   2.075  0.00  0.00    +0.231 C 
ATOM     22  O   UNL     1      -2.159 -10.939   1.201  0.00  0.00    -0.274 OA
ATOM     23  H   UNL     1      -2.363  -8.124   2.450  0.00  0.00    +0.149 HD
BRANCH  20  24
ATOM     24  C   UNL     1      -2.268  -8.386   0.345  0.00  0.00    +0.139 C 
BRANCH  24  28
ATOM     25  C   UNL     1      -2.496  -4.125   0.094  0.00  0.00    +0.033 A 
ATOM     26  C   UNL     1      -1.260  -4.752   0.180  0.00  0.00    +0.023 A 
ATOM     27  C   UNL     1      -1.190  -6.129   0.261  0.00  0.00    +0.007 A 
ATOM     28  C   UNL     1      -2.349  -6.883   0.256  0.00  0.00    -0.030 A 
ATOM     29  C   UNL     1      -3.581  -6.262   0.170  0.00  0.00    +0.007 A 
ATOM     30  C   UNL     1      -3.658  -4.885   0.095  0.00  0.00    +0.023 A 
BRANCH  25  33
ATOM     31  C   UNL     1      -3.584  -2.073   0.610  0.00  0.00    +0.217 C 
ATOM     32  O   UNL     1      -4.476  -2.695   1.148  0.00  0.00    -0.275 OA
ATOM     33  N   UNL     1      -2.571  -2.730   0.012  0.00  0.00    -0.285 N 
ATOM     34  H   UNL     1      -1.893  -2.236  -0.476  0.00  0.00    +0.155 HD
BRANCH  31  35
ATOM     35  C   UNL     1      -3.609  -0.566   0.611  0.00  0.00    +0.096 C 
BRANCH  35  37
ATOM     36  C   UNL     1      -4.881   1.453   1.351  0.00  0.00    +0.004 C 
ATOM     37  C   UNL     1      -4.856  -0.077   1.350  0.00  0.00    +0.006 C 
ENDBRANCH  35  37
ENDBRANCH  31  35
ENDBRANCH  25  33
ENDBRANCH  24  28
ENDBRANCH  20  24
ENDBRANCH   1  21
TORSDOF 9
