REMARK  Name = ZINC67295127
REMARK  4 active torsions:
REMARK  status: ('A' for Active; 'I' for Inactive)
REMARK    1  A    between atoms: C_8  and  C_10
REMARK    2  A    between atoms: N_20  and  C_21
REMARK    3  A    between atoms: C_25  and  O_27
REMARK    4  A    between atoms: O_27  and  C_28
REMARK                            x       y       z     vdW  Elec       q    Type
REMARK                         _______ _______ _______ _____ _____    ______ ____
ROOT
ATOM      1  C   UNL     1       0.167  -4.207   0.228  0.00  0.00    +0.098 A 
ATOM      2  C   UNL     1      -1.005  -4.953   0.225  0.00  0.00    +0.030 A 
ATOM      3  C   UNL     1      -0.875  -6.410   0.285  0.00  0.00    +0.019 A 
ATOM      4  C   UNL     1      -1.973  -7.238   0.020  0.00  0.00    +0.026 A 
ATOM      5  C   UNL     1      -1.823  -8.606   0.079  0.00  0.00    +0.019 A 
ATOM      6  C   UNL     1      -0.593  -9.165   0.398  0.00  0.00    +0.019 A 
ATOM      7  C   UNL     1       0.497  -8.361   0.663  0.00  0.00    +0.048 A 
ATOM      8  C   UNL     1       0.369  -6.981   0.611  0.00  0.00    +0.137 A 
ATOM      9  O   UNL     1       1.430  -6.179   0.876  0.00  0.00    -0.439 OA
ATOM     10  C   UNL     1       1.439  -4.955   0.284  0.00  0.00    +0.212 A 
ATOM     11  N   UNL     1       2.545  -4.450  -0.220  0.00  0.00    -0.325 N 
ATOM     12 BR   UNL     1      -3.302  -9.730  -0.276  0.00  0.00    -0.050 Br
ATOM     13  H   UNL     1       2.514  -3.623  -0.724  0.00  0.00    +0.169 HD
ENDROOT
BRANCH   1  21
ATOM     14  C   UNL     1       0.144   1.409  -0.197  0.00  0.00    +0.005 A 
ATOM     15  C   UNL     1       1.220   2.077   0.373  0.00  0.00    +0.020 A 
ATOM     16  C   UNL     1       2.268   1.348   0.898  0.00  0.00    +0.113 A 
ATOM     17  N   UNL     1       2.259   0.029   0.864  0.00  0.00    -0.240 NA
ATOM     18  C   UNL     1       1.253  -0.644   0.329  0.00  0.00    +0.125 A 
ATOM     19  C   UNL     1       0.164   0.025  -0.217  0.00  0.00    +0.044 A 
ATOM     20  N   UNL     1       1.286  -2.037   0.314  0.00  0.00    -0.266 N 
ATOM     21  C   UNL     1       0.142  -2.736   0.170  0.00  0.00    +0.254 C 
ATOM     22  O   UNL     1      -0.910  -2.152  -0.007  0.00  0.00    -0.270 OA
ATOM     23  H   UNL     1       2.131  -2.503   0.407  0.00  0.00    +0.157 HD
ENDBRANCH   1  21
BRANCH  11  24
ATOM     24  C   UNL     1       3.737  -5.092  -0.031  0.00  0.00    +0.045 A 
ATOM     25  C   UNL     1       4.072  -5.593   1.230  0.00  0.00    +0.026 A 
ATOM     26  C   UNL     1       5.276  -6.240   1.417  0.00  0.00    +0.006 A 
ATOM     27  C   UNL     1       6.154  -6.395   0.359  0.00  0.00    +0.046 A 
ATOM     28  C   UNL     1       5.830  -5.901  -0.897  0.00  0.00    +0.132 A 
ATOM     29  C   UNL     1       4.622  -5.255  -1.098  0.00  0.00    +0.071 A 
BRANCH  28  30
ATOM     30  O   UNL     1       6.697  -6.056  -1.932  0.00  0.00    -0.406 OA
BRANCH  30  31
ATOM     31  C   UNL     1       7.922  -6.738  -1.656  0.00  0.00    +0.575 C 
ATOM     32  F   UNL     1       7.644  -8.031  -1.201  0.00  0.00    -0.133 F 
ATOM     33  F   UNL     1       8.690  -6.809  -2.823  0.00  0.00    -0.133 F 
ATOM     34  F   UNL     1       8.632  -6.041  -0.672  0.00  0.00    -0.133 F 
ENDBRANCH  30  31
ENDBRANCH  28  30
ENDBRANCH  11  24
TORSDOF 4
