REMARK  Name = ZINC15016688
REMARK  9 active torsions:
REMARK  status: ('A' for Active; 'I' for Inactive)
REMARK    1  A    between atoms: C_1  and  C_2
REMARK    2  A    between atoms: N_7  and  C_8
REMARK    3  A    between atoms: C_8  and  C_10
REMARK    4  A    between atoms: C_8  and  C_20
REMARK    5  A    between atoms: C_14  and  O_16
REMARK    6  A    between atoms: O_16  and  C_17
REMARK    7  A    between atoms: C_17  and  C_18
REMARK    8  A    between atoms: C_26  and  C_31
REMARK    9  A    between atoms: C_29  and  O_30
REMARK                            x       y       z     vdW  Elec       q    Type
REMARK                         _______ _______ _______ _____ _____    ______ ____
ROOT
ATOM      1  C   UNL     1       4.931   4.013  -0.002  0.00  0.00    +0.136 C 
ENDROOT
BRANCH   1   2
ATOM      2  C   UNL     1       3.812   3.032  -0.241  0.00  0.00    +0.021 A 
ATOM      3  C   UNL     1       4.074   1.665  -0.182  0.00  0.00    +0.010 A 
ATOM      4  C   UNL     1       3.086   0.753  -0.393  0.00  0.00    +0.010 A 
ATOM      5  C   UNL     1       1.782   1.192  -0.674  0.00  0.00    +0.004 A 
ATOM      6  C   UNL     1       0.733   0.279  -0.898  0.00  0.00    +0.012 A 
ATOM      7  C   UNL     1      -0.508   0.778  -1.172  0.00  0.00    +0.023 A 
ATOM      8  C   UNL     1      -0.710   2.156  -1.213  0.00  0.00    +0.039 A 
ATOM      9  N   UNL     1       0.269   3.003  -1.004  0.00  0.00    -0.248 NA
ATOM     10  C   UNL     1       1.508   2.580  -0.736  0.00  0.00    +0.113 A 
ATOM     11  C   UNL     1       2.557   3.496  -0.512  0.00  0.00    +0.148 A 
ATOM     12  C   UNL     1      -2.088   2.688  -1.512  0.00  0.00    +0.065 C 
BRANCH  11  13
ATOM     13  O   UNL     1       2.320   4.833  -0.565  0.00  0.00    -0.504 OA
ATOM     14  H   UNL     1       2.438   5.219  -1.444  0.00  0.00    +0.292 HD
ENDBRANCH  11  13
ENDBRANCH   1   2
BRANCH   1  21
ATOM     15  C   UNL     1       9.692   2.469  -3.516  0.00  0.00    +0.063 C 
ATOM     16  C   UNL     1       8.315   3.005  -3.223  0.00  0.00    +0.014 A 
ATOM     17  C   UNL     1       7.549   3.517  -4.252  0.00  0.00    +0.021 A 
ATOM     18  C   UNL     1       6.281   4.009  -3.976  0.00  0.00    +0.005 A 
ATOM     19  C   UNL     1       5.827   3.970  -2.670  0.00  0.00    +0.041 A 
ATOM     20  C   UNL     1       6.652   3.441  -1.683  0.00  0.00    +0.097 A 
ATOM     21  N   UNL     1       6.208   3.395  -0.366  0.00  0.00    -0.320 N 
ATOM     22  H   UNL     1       6.745   2.954   0.311  0.00  0.00    +0.148 HD
ATOM     23  N   UNL     1       7.904   2.956  -1.928  0.00  0.00    -0.347 N 
ATOM     24  H   UNL     1       8.498   2.577  -1.181  0.00  0.00    +0.167 HD
ENDBRANCH   1  21
BRANCH   1  25
ATOM     25  C   UNL     1       4.958   4.399   1.455  0.00  0.00    -0.019 A 
ATOM     26  C   UNL     1       5.465   3.520   2.394  0.00  0.00    +0.006 A 
ATOM     27  C   UNL     1       5.496   3.874   3.730  0.00  0.00    +0.004 A 
ATOM     28  C   UNL     1       5.009   5.103   4.131  0.00  0.00    +0.045 A 
ATOM     29  C   UNL     1       4.495   5.984   3.192  0.00  0.00    +0.121 A 
ATOM     30  C   UNL     1       4.470   5.629   1.851  0.00  0.00    +0.051 A 
BRANCH  29  31
ATOM     31  O   UNL     1       4.015   7.194   3.585  0.00  0.00    -0.488 OA
BRANCH  31  32
ATOM     32  C   UNL     1       4.072   7.492   4.981  0.00  0.00    +0.256 C 
BRANCH  32  33
ATOM     33  C   UNL     1       3.501   8.865   5.225  0.00  0.00    +0.006 C 
ATOM     34  C   UNL     1       2.665   9.060   6.215  0.00  0.00    +0.007 C 
ENDBRANCH  32  33
ENDBRANCH  31  32
ENDBRANCH  29  31
ENDBRANCH   1  25
TORSDOF 7
