REMARK  Name = ZINC20254597
REMARK  4 active torsions:
REMARK  status: ('A' for Active; 'I' for Inactive)
REMARK    1  A    between atoms: C_4  and  N_8
REMARK    2  A    between atoms: C_6  and  N_7
REMARK    3  A    between atoms: N_8  and  S_9
REMARK    4  A    between atoms: S_9  and  N_12
REMARK                            x       y       z     vdW  Elec       q    Type
REMARK                         _______ _______ _______ _____ _____    ______ ____
ROOT
ATOM      1  N   UNL     1       0.024  -0.502   1.581  0.00  0.00    -0.204 N 
ATOM      2  H   UNL     1       0.895  -1.049   1.971  0.00  0.00    +0.175 HD
ENDROOT
BRANCH   1   6
ATOM      3  C   UNL     1      -3.089   0.552   4.149  0.00  0.00    +0.025 A 
ATOM      4  C   UNL     1      -1.783   0.571   4.602  0.00  0.00    +0.042 A 
ATOM      5  C   UNL     1      -0.750   0.222   3.753  0.00  0.00    +0.146 A 
ATOM      6  C   UNL     1      -1.022  -0.149   2.440  0.00  0.00    +0.086 A 
ATOM      7  C   UNL     1      -2.331  -0.163   1.982  0.00  0.00    +0.050 A 
ATOM      8  C   UNL     1      -3.367   0.183   2.839  0.00  0.00    +0.027 A 
ATOM      9  F   UNL     1       0.526   0.241   4.199  0.00  0.00    -0.204 F 
BRANCH   8  10
ATOM     10  N   UNL     1      -4.688   0.166   2.382  0.00  0.00    -0.358 N 
ATOM     11  H   UNL     1      -4.907  -0.126   1.345  0.00  0.00    +0.142 HD
ATOM     12  H   UNL     1      -5.508   0.444   3.061  0.00  0.00    +0.142 HD
ENDBRANCH   8  10
ENDBRANCH   1   6
BRANCH   1  13
ATOM     13  S   UNL     1      -0.049  -0.096  -0.023  0.00  0.00    +0.112 S 
ATOM     14  O   UNL     1      -1.290  -0.588  -0.510  0.00  0.00    -0.138 OA
ATOM     15  O   UNL     1       1.196  -0.473  -0.594  0.00  0.00    -0.138 OA
BRANCH  13  16
ATOM     16  N   UNL     1      -0.129   1.556  -0.107  0.00  0.00    -0.164 NA
ATOM     17  C   UNL     1      -1.429   2.188  -0.105  0.00  0.00    +0.111 C 
ATOM     18  C   UNL     1      -1.950   2.323  -1.551  0.00  0.00    +0.017 C 
ATOM     19  C   UNL     1      -1.182   3.347  -2.276  0.00  0.00    +0.001 C 
ATOM     20  C   UNL     1       0.300   3.025  -2.436  0.00  0.00    +0.001 C 
ATOM     21  C   UNL     1       1.045   3.475  -1.202  0.00  0.00    +0.017 C 
ATOM     22  C   UNL     1       1.130   2.321  -0.186  0.00  0.00    +0.111 C 
ENDBRANCH  13  16
ENDBRANCH   1  13
TORSDOF 4
