REMARK  Name = ZINC40826893
REMARK  8 active torsions:
REMARK  status: ('A' for Active; 'I' for Inactive)
REMARK    1  A    between atoms: C_1  and  C_2
REMARK    2  A    between atoms: C_4  and  C_39
REMARK    3  A    between atoms: C_10  and  C_11
REMARK    4  A    between atoms: C_11  and  C_12
REMARK    5  A    between atoms: N_14  and  N_15
REMARK    6  A    between atoms: C_22  and  C_38
REMARK    7  A    between atoms: C_23  and  C_25
REMARK    8  A    between atoms: C_35  and  C_37
REMARK                            x       y       z     vdW  Elec       q    Type
REMARK                         _______ _______ _______ _____ _____    ______ ____
ROOT
ATOM      1  N   UNL     1       1.979  -7.798  -1.173  0.00  0.00    -0.184 NA
ATOM      2  C   UNL     1       2.431  -8.516  -2.155  0.00  0.00    +0.070 C 
ATOM      3  C   UNL     1       1.520  -9.352  -3.041  0.00  0.00    +0.058 C 
ATOM      4  C   UNL     1       2.196 -10.706  -3.282  0.00  0.00    +0.014 C 
ATOM      5  C   UNL     1       3.495 -10.528  -4.072  0.00  0.00    +0.075 C 
ATOM      6  C   UNL     1       4.364  -9.508  -3.381  0.00  0.00    +0.115 A 
ATOM      7  C   UNL     1       3.869  -8.576  -2.498  0.00  0.00    +0.042 A 
ATOM      8  C   UNL     1       4.947  -7.798  -2.058  0.00  0.00    +0.009 A 
ATOM      9  C   UNL     1       6.054  -8.282  -2.697  0.00  0.00    +0.193 A 
ATOM     10  O   UNL     1       5.678  -9.318  -3.485  0.00  0.00    -0.454 OA
ATOM     11  C   UNL     1       4.895  -6.655  -1.077  0.00  0.00    +0.048 C 
ENDROOT
BRANCH   9  12
ATOM     12  C   UNL     1       7.422  -7.773  -2.545  0.00  0.00    +0.287 C 
ATOM     13  O   UNL     1       7.630  -6.778  -1.876  0.00  0.00    -0.266 OA
ATOM     14  N   UNL     1       8.447  -8.408  -3.146  0.00  0.00    -0.262 N 
ATOM     15  C   UNL     1       9.771  -7.959  -3.158  0.00  0.00    +0.040 A 
ATOM     16  C   UNL     1      10.321  -6.811  -2.584  0.00  0.00    +0.024 A 
ATOM     17  C   UNL     1      11.668  -6.547  -2.712  0.00  0.00    +0.002 A 
ATOM     18  C   UNL     1      12.484  -7.417  -3.411  0.00  0.00    +0.000 A 
ATOM     19  C   UNL     1      11.947  -8.556  -3.981  0.00  0.00    +0.005 A 
ATOM     20  C   UNL     1      10.598  -8.825  -3.855  0.00  0.00    -0.024 A 
ATOM     21  C   UNL     1       9.764  -9.976  -4.371  0.00  0.00    +0.059 C 
ATOM     22  C   UNL     1       8.339  -9.673  -3.878  0.00  0.00    +0.083 C 
ATOM     23  C   UNL     1       7.849 -10.784  -2.948  0.00  0.00    +0.029 C 
ENDBRANCH   9  12
BRANCH   1  26
ATOM     24  C   UNL     1       0.138  -7.032   0.127  0.00  0.00    +0.237 C 
ATOM     25  O   UNL     1       0.904  -6.378   0.802  0.00  0.00    -0.274 OA
ATOM     26  N   UNL     1       0.607  -7.778  -0.893  0.00  0.00    -0.206 N 
ATOM     27  H   UNL     1      -0.006  -8.302  -1.433  0.00  0.00    +0.177 HD
BRANCH  24  28
ATOM     28  C   UNL     1      -1.339  -7.011   0.428  0.00  0.00    +0.136 C 
BRANCH  28  38
ATOM     29  C   UNL     1      -1.456  -6.473   7.295  0.00  0.00    +0.044 C 
ATOM     30  C   UNL     1      -1.469  -6.460   5.788  0.00  0.00    -0.047 A 
ATOM     31  C   UNL     1      -1.134  -7.611   5.089  0.00  0.00    +0.007 A 
ATOM     32  C   UNL     1      -1.141  -7.616   3.722  0.00  0.00    -0.039 A 
ATOM     33  C   UNL     1      -1.486  -6.458   3.027  0.00  0.00    +0.027 A 
ATOM     34  C   UNL     1      -1.826  -5.290   3.729  0.00  0.00    +0.136 A 
ATOM     35  C   UNL     1      -1.819  -5.307   5.119  0.00  0.00    +0.050 A 
ATOM     36  O   UNL     1      -2.111  -4.341   2.815  0.00  0.00    -0.463 OA
ATOM     37  C   UNL     1      -1.977  -4.823   1.567  0.00  0.00    +0.200 A 
ATOM     38  C   UNL     1      -1.598  -6.108   1.606  0.00  0.00    +0.007 A 
ATOM     39  C   UNL     1      -0.776  -8.870   2.969  0.00  0.00    +0.044 C 
ENDBRANCH  28  38
ENDBRANCH  24  28
ENDBRANCH   1  26
TORSDOF 4
