REMARK  Name = ZINC39682254
REMARK  8 active torsions:
REMARK  status: ('A' for Active; 'I' for Inactive)
REMARK    1  A    between atoms: C_1  and  C_2
REMARK    2  A    between atoms: C_2  and  C_3
REMARK    3  A    between atoms: C_2  and  C_4
REMARK    4  A    between atoms: C_8  and  C_17
REMARK    5  A    between atoms: N_19  and  C_20
REMARK    6  A    between atoms: C_20  and  C_22
REMARK    7  A    between atoms: C_20  and  C_26
REMARK    8  A    between atoms: C_22  and  C_23
REMARK                            x       y       z     vdW  Elec       q    Type
REMARK                         _______ _______ _______ _____ _____    ______ ____
ROOT
ATOM      1  C   UNL     1       1.369   0.825  -1.480  0.00  0.00    +0.218 C 
ATOM      2  O   UNL     1       0.574   0.288  -2.222  0.00  0.00    -0.275 OA
ATOM      3  N   UNL     1       2.688   0.768  -1.752  0.00  0.00    -0.300 N 
ATOM      4  C   UNL     1       3.802   1.351  -0.968  0.00  0.00    +0.121 C 
ATOM      5  C   UNL     1       4.922   0.288  -1.032  0.00  0.00    +0.100 C 
ATOM      6  C   UNL     1       4.622  -0.523  -2.303  0.00  0.00    -0.004 C 
ATOM      7  C   UNL     1       3.352   0.102  -2.898  0.00  0.00    +0.115 C 
ATOM      8  C   UNL     1       4.366  -1.985  -1.949  0.00  0.00    -0.010 C 
ATOM      9  C   UNL     1       4.126  -2.782  -3.234  0.00  0.00    -0.082 C 
ATOM     10  N   UNL     1       5.299  -2.667  -4.109  0.00  0.00    +0.379 N 
ATOM     11  C   UNL     1       5.483  -1.270  -4.520  0.00  0.00    -0.082 C 
ATOM     12  C   UNL     1       5.780  -0.409  -3.289  0.00  0.00    -0.010 C 
ATOM     13  H   UNL     1       6.120  -2.981  -3.612  0.00  0.00    -0.086 HD
ATOM     14  H   UNL     1       5.164  -3.242  -4.927  0.00  0.00    -0.086 HD
ENDROOT
BRANCH   5  15
ATOM     15  C   UNL     1       4.872  -0.600   0.185  0.00  0.00    +0.219 C 
ATOM     16  O   UNL     1       3.803  -0.898   0.674  0.00  0.00    -0.275 OA
ATOM     17  N   UNL     1       6.014  -1.063   0.729  0.00  0.00    -0.308 N 
ATOM     18  H   UNL     1       6.871  -0.767   0.383  0.00  0.00    +0.149 HD
BRANCH  17  19
ATOM     19  C   UNL     1       5.963  -2.012   1.844  0.00  0.00    +0.114 C 
BRANCH  19  20
ATOM     20  C   UNL     1       5.712  -1.265   3.129  0.00  0.00    -0.027 A 
ATOM     21  C   UNL     1       6.332  -0.050   3.354  0.00  0.00    +0.005 A 
ATOM     22  C   UNL     1       6.102   0.635   4.533  0.00  0.00    +0.000 A 
ATOM     23  C   UNL     1       5.252   0.105   5.486  0.00  0.00    +0.000 A 
ATOM     24  C   UNL     1       4.632  -1.110   5.260  0.00  0.00    +0.000 A 
ATOM     25  C   UNL     1       4.858  -1.793   4.079  0.00  0.00    +0.005 A 
ENDBRANCH  19  20
BRANCH  19  26
ATOM     26  C   UNL     1       7.294  -2.759   1.940  0.00  0.00    +0.152 C 
BRANCH  26  27
ATOM     27  C   UNL     1       7.481  -3.613   0.712  0.00  0.00    +0.358 C 
ATOM     28  O   UNL     1       6.582  -3.708  -0.107  0.00  0.00    -0.246 OA
ATOM     29  O   UNL     1       8.530  -4.208   0.537  0.00  0.00    -0.246 OA
ENDBRANCH  26  27
ENDBRANCH  19  26
ENDBRANCH  17  19
ENDBRANCH   5  15
BRANCH   1  31
ATOM     30  C   UNL     1       1.307   3.024  -0.335  0.00  0.00    +0.017 C 
ATOM     31  C   UNL     1       0.882   1.556  -0.256  0.00  0.00    +0.069 C 
ATOM     32  C   UNL     1      -0.643   1.470  -0.182  0.00  0.00    +0.017 C 
ENDBRANCH   1  31
TORSDOF 6
