REMARK  Name = ZINC41158742
REMARK  5 active torsions:
REMARK  status: ('A' for Active; 'I' for Inactive)
REMARK    1  A    between atoms: C_1  and  N_2
REMARK    2  A    between atoms: C_4  and  C_7
REMARK    3  A    between atoms: C_7  and  N_8
REMARK    4  A    between atoms: N_8  and  C_9
REMARK    5  A    between atoms: C_14  and  N_15
REMARK                            x       y       z     vdW  Elec       q    Type
REMARK                         _______ _______ _______ _____ _____    ______ ____
ROOT
ATOM      1  C   UNL     1       1.691  -4.788  -2.668  0.00  0.00    +0.050 A 
ATOM      2  C   UNL     1       0.631  -5.522  -3.191  0.00  0.00    +0.026 A 
ATOM      3  C   UNL     1       0.891  -6.618  -3.992  0.00  0.00    +0.019 A 
ATOM      4  C   UNL     1       2.192  -6.971  -4.261  0.00  0.00    +0.041 A 
ATOM      5  C   UNL     1       3.295  -6.254  -3.749  0.00  0.00    +0.100 A 
ATOM      6  C   UNL     1       3.003  -5.132  -2.937  0.00  0.00    +0.073 A 
ATOM      7  N   UNL     1       4.487  -6.760  -4.129  0.00  0.00    -0.246 NA
ATOM      8  C   UNL     1       4.583  -7.808  -4.893  0.00  0.00    +0.157 A 
ATOM      9  S   UNL     1       2.988  -8.250  -5.199  0.00  0.00    -0.075 S 
ENDROOT
BRANCH   6  10
ATOM     10  N   UNL     1       4.048  -4.371  -2.399  0.00  0.00    -0.355 N 
ATOM     11  H   UNL     1       3.851  -3.604  -1.839  0.00  0.00    +0.142 HD
ATOM     12  H   UNL     1       4.970  -4.610  -2.586  0.00  0.00    +0.142 HD
ENDBRANCH   6  10
BRANCH   1  13
ATOM     13  N   UNL     1       1.424  -3.675  -1.855  0.00  0.00    -0.338 N 
ATOM     14  H   UNL     1       2.156  -3.155  -1.489  0.00  0.00    +0.146 HD
BRANCH  13  15
ATOM     15  C   UNL     1       0.039  -3.298  -1.561  0.00  0.00    +0.140 C 
BRANCH  15  19
ATOM     16  C   UNL     1      -0.018   1.461   0.010  0.00  0.00    +0.172 C 
ATOM     17  N   UNL     1       0.002  -0.004   0.002  0.00  0.00    -0.274 N 
ATOM     18  C   UNL     1       0.008  -0.792  -1.094  0.00  0.00    +0.113 A 
ATOM     19  C   UNL     1       0.027  -2.079  -0.676  0.00  0.00    +0.007 A 
ATOM     20  C   UNL     1       0.034  -2.078   0.723  0.00  0.00    +0.139 A 
ATOM     21  N   UNL     1       0.025  -0.834   1.130  0.00  0.00    -0.180 NA
ENDBRANCH  15  19
ENDBRANCH  13  15
ENDBRANCH   1  13
TORSDOF 4
