REMARK  Name = ZINC18054030
REMARK  4 active torsions:
REMARK  status: ('A' for Active; 'I' for Inactive)
REMARK    1  A    between atoms: N_9  and  C_22
REMARK    2  A    between atoms: C_10  and  C_13
REMARK    3  A    between atoms: C_15  and  O_21
REMARK    4  A    between atoms: C_16  and  O_20
REMARK                            x       y       z     vdW  Elec       q    Type
REMARK                         _______ _______ _______ _____ _____    ______ ____
ROOT
ATOM      1  C   UNL     1       3.508  -2.019  -4.871  0.00  0.00    +0.001 A 
ATOM      2  C   UNL     1       2.781  -2.969  -4.171  0.00  0.00    +0.002 A 
ATOM      3  C   UNL     1       2.760  -2.960  -2.790  0.00  0.00    +0.024 A 
ATOM      4  C   UNL     1       3.470  -1.992  -2.100  0.00  0.00    +0.041 A 
ATOM      5  C   UNL     1       4.201  -1.021  -2.806  0.00  0.00    +0.058 A 
ATOM      6  C   UNL     1       4.218  -1.046  -4.199  0.00  0.00    +0.015 A 
ATOM      7  C   UNL     1       4.923   0.013  -2.043  0.00  0.00    +0.254 C 
ATOM      8  O   UNL     1       5.694   0.765  -2.607  0.00  0.00    -0.270 OA
ATOM      9  N   UNL     1       4.719   0.117  -0.715  0.00  0.00    -0.244 N 
ATOM     10  C   UNL     1       3.670  -0.652  -0.046  0.00  0.00    +0.198 C 
ATOM     11  N   UNL     1       3.488  -1.948  -0.710  0.00  0.00    -0.321 N 
ATOM     12  H   UNL     1       3.382  -2.760  -0.189  0.00  0.00    +0.148 HD
ENDROOT
BRANCH   9  13
ATOM     13  C   UNL     1       5.527   0.978   0.038  0.00  0.00    +0.042 A 
ATOM     14  C   UNL     1       5.588   2.329  -0.279  0.00  0.00    +0.027 A 
ATOM     15  C   UNL     1       6.382   3.179   0.466  0.00  0.00    +0.051 A 
ATOM     16  C   UNL     1       7.128   2.686   1.527  0.00  0.00    +0.162 A 
ATOM     17  C   UNL     1       7.070   1.334   1.845  0.00  0.00    +0.164 A 
ATOM     18  C   UNL     1       6.271   0.481   1.099  0.00  0.00    +0.073 A 
ATOM     19  O   UNL     1       7.788   0.833   2.888  0.00  0.00    -0.485 OA
ATOM     20  C   UNL     1       8.862   1.643   3.379  0.00  0.00    +0.270 C 
ATOM     21  C   UNL     1       8.348   3.081   3.529  0.00  0.00    +0.270 C 
ATOM     22  O   UNL     1       7.911   3.538   2.244  0.00  0.00    -0.485 OA
ENDBRANCH   9  13
BRANCH  10  23
ATOM     23  C   UNL     1       2.377   0.120  -0.096  0.00  0.00    -0.004 A 
ATOM     24  C   UNL     1       1.170  -0.556  -0.106  0.00  0.00    +0.056 A 
ATOM     25  C   UNL     1      -0.020   0.152  -0.152  0.00  0.00    +0.160 A 
ATOM     26  C   UNL     1       0.001   1.543  -0.187  0.00  0.00    +0.177 A 
ATOM     27  C   UNL     1       1.214   2.214  -0.177  0.00  0.00    +0.086 A 
ATOM     28  C   UNL     1       2.399   1.501  -0.132  0.00  0.00    +0.031 A 
ATOM     29 CL   UNL     1       1.246   3.949  -0.221  0.00  0.00    -0.080 Cl
BRANCH  26  30
ATOM     30  O   UNL     1      -1.165   2.241  -0.238  0.00  0.00    -0.502 OA
ATOM     31  H   UNL     1      -1.526   2.466   0.630  0.00  0.00    +0.292 HD
ENDBRANCH  26  30
BRANCH  25  32
ATOM     32  O   UNL     1      -1.207  -0.512  -0.162  0.00  0.00    -0.503 OA
ATOM     33  H   UNL     1      -1.531  -0.726  -1.048  0.00  0.00    +0.292 HD
ENDBRANCH  25  32
ENDBRANCH  10  23
TORSDOF 4
