REMARK  Name = ZINC39534247
REMARK  11 active torsions:
REMARK  status: ('A' for Active; 'I' for Inactive)
REMARK    1  A    between atoms: C_1  and  O_2
REMARK    2  A    between atoms: O_2  and  C_3
REMARK    3  A    between atoms: N_6  and  C_10
REMARK    4  A    between atoms: C_10  and  C_12
REMARK    5  A    between atoms: C_10  and  C_21
REMARK    6  A    between atoms: C_12  and  N_13
REMARK    7  A    between atoms: N_13  and  C_14
REMARK    8  A    between atoms: C_14  and  C_15
REMARK    9  A    between atoms: C_24  and  S_27
REMARK   10  A    between atoms: S_27  and  O_30
REMARK   11  A    between atoms: O_30  and  C_31
REMARK                            x       y       z     vdW  Elec       q    Type
REMARK                         _______ _______ _______ _____ _____    ______ ____
ROOT
ATOM      1  C   UNL     1       1.929  -4.069   1.720  0.00  0.00    -0.023 C 
ENDROOT
BRANCH   1   4
ATOM      2  C   UNL     1       1.349  -0.361   1.789  0.00  0.00    +0.169 C 
ATOM      3  C   UNL     1       1.279  -1.802   1.280  0.00  0.00    -0.030 C 
ATOM      4  N   UNL     1       1.981  -2.688   2.218  0.00  0.00    +0.388 N 
ATOM      5  C   UNL     1       1.335  -2.619   3.536  0.00  0.00    -0.062 C 
ATOM      6  C   UNL     1       1.406  -1.184   4.064  0.00  0.00    +0.065 C 
ATOM      7  N   UNL     1       0.730  -0.283   3.119  0.00  0.00    -0.295 NA
ATOM      8  H   UNL     1       0.728   0.666   3.462  0.00  0.00    +0.124 HD
ATOM      9  H   UNL     1       2.943  -2.397   2.300  0.00  0.00    -0.081 HD
BRANCH   2  11
ATOM     10  C   UNL     1       0.929   1.887   1.071  0.00  0.00    +0.196 C 
ATOM     11  O   UNL     1       0.650   0.498   0.886  0.00  0.00    -0.367 OA
ENDBRANCH   2  11
ENDBRANCH   1   4
BRANCH   1  12
ATOM     12  C   UNL     1       2.512  -4.998   2.753  0.00  0.00    -0.060 A 
ATOM     13  C   UNL     1       3.633  -4.620   3.469  0.00  0.00    +0.004 A 
ATOM     14  C   UNL     1       4.168  -5.473   4.417  0.00  0.00    +0.031 A 
ATOM     15  C   UNL     1       3.582  -6.703   4.649  0.00  0.00    +0.128 A 
ATOM     16  C   UNL     1       2.460  -7.080   3.934  0.00  0.00    +0.031 A 
ATOM     17  C   UNL     1       1.923  -6.226   2.990  0.00  0.00    +0.004 A 
BRANCH  15  18
ATOM     18  S   UNL     1       4.264  -7.789   5.856  0.00  0.00    +0.151 S 
ATOM     19  O   UNL     1       3.855  -9.102   5.499  0.00  0.00    -0.131 OA
ATOM     20  O   UNL     1       5.631  -7.430   6.000  0.00  0.00    -0.131 OA
BRANCH  18  21
ATOM     21  O   UNL     1       3.589  -7.470   7.183  0.00  0.00    -0.342 OA
BRANCH  21  22
ATOM     22  C   UNL     1       2.314  -7.930   7.279  0.00  0.00    +0.157 A 
ATOM     23  C   UNL     1       1.255  -7.135   6.867  0.00  0.00    +0.048 A 
ATOM     24  C   UNL     1      -0.040  -7.606   6.965  0.00  0.00    +0.004 A 
ATOM     25  C   UNL     1      -0.281  -8.868   7.475  0.00  0.00    +0.000 A 
ATOM     26  C   UNL     1       0.773  -9.663   7.888  0.00  0.00    +0.004 A 
ATOM     27  C   UNL     1       2.070  -9.199   7.785  0.00  0.00    +0.048 A 
ENDBRANCH  21  22
ENDBRANCH  18  21
ENDBRANCH  15  18
ENDBRANCH   1  12
BRANCH   1  28
ATOM     28  C   UNL     1       2.737  -4.175   0.425  0.00  0.00    +0.070 C 
BRANCH  28  29
ATOM     29  N   UNL     1       2.072  -3.400  -0.631  0.00  0.00    -0.313 NA
ATOM     30  H   UNL     1       1.119  -3.705  -0.758  0.00  0.00    +0.122 HD
BRANCH  29  31
ATOM     31  C   UNL     1       2.822  -3.479  -1.893  0.00  0.00    +0.116 C 
BRANCH  31  32
ATOM     32  C   UNL     1       2.111  -2.674  -2.950  0.00  0.00    -0.034 A 
ATOM     33  C   UNL     1       1.151  -3.272  -3.745  0.00  0.00    +0.005 A 
ATOM     34  C   UNL     1       0.500  -2.534  -4.715  0.00  0.00    +0.000 A 
ATOM     35  C   UNL     1       0.807  -1.198  -4.890  0.00  0.00    +0.000 A 
ATOM     36  C   UNL     1       1.766  -0.599  -4.094  0.00  0.00    +0.000 A 
ATOM     37  C   UNL     1       2.415  -1.337  -3.121  0.00  0.00    +0.005 A 
ENDBRANCH  31  32
ENDBRANCH  29  31
ENDBRANCH  28  29
ENDBRANCH   1  28
TORSDOF 10
