REMARK  Name = ZINC09546692
REMARK  9 active torsions:
REMARK  status: ('A' for Active; 'I' for Inactive)
REMARK    1  A    between atoms: C_1  and  C_2
REMARK    2  A    between atoms: C_7  and  O_8
REMARK    3  A    between atoms: O_8  and  C_9
REMARK    4  A    between atoms: C_9  and  C_10
REMARK    5  A    between atoms: C_13  and  S_21
REMARK    6  A    between atoms: N_14  and  C_15
REMARK    7  A    between atoms: S_21  and  C_22
REMARK    8  A    between atoms: C_22  and  C_24
REMARK    9  A    between atoms: C_22  and  C_25
REMARK                            x       y       z     vdW  Elec       q    Type
REMARK                         _______ _______ _______ _____ _____    ______ ____
ROOT
ATOM      1  C   UNL     1      -7.918   1.867   2.849  0.00  0.00    +0.176 A 
ATOM      2  N   UNL     1      -7.057   0.972   2.454  0.00  0.00    -0.130 NA
ATOM      3  N   UNL     1      -5.908   1.515   2.265  0.00  0.00    -0.122 NA
ATOM      4  C   UNL     1      -5.972   2.799   2.531  0.00  0.00    +0.197 A 
ATOM      5  N   UNL     1      -7.257   3.064   2.919  0.00  0.00    -0.271 N 
ENDROOT
BRANCH   5   6
ATOM      6  C   UNL     1      -7.787   4.304   3.304  0.00  0.00    +0.050 A 
ATOM      7  C   UNL     1      -8.238   4.494   4.603  0.00  0.00    +0.026 A 
ATOM      8  C   UNL     1      -8.755   5.718   4.981  0.00  0.00    +0.002 A 
ATOM      9  C   UNL     1      -8.834   6.750   4.064  0.00  0.00    +0.000 A 
ATOM     10  C   UNL     1      -8.391   6.561   2.768  0.00  0.00    +0.002 A 
ATOM     11  C   UNL     1      -7.868   5.342   2.385  0.00  0.00    +0.026 A 
ENDBRANCH   5   6
BRANCH   1  12
ATOM     12  C   UNL     1      -9.370   1.627   3.176  0.00  0.00    +0.305 C 
BRANCH  12  13
ATOM     13  O   UNL     1      -9.499   1.302   4.561  0.00  0.00    -0.484 OA
BRANCH  13  20
ATOM     14  C   UNL     1      -9.776   0.657   7.297  0.00  0.00    +0.047 C 
ATOM     15  C   UNL     1     -10.951   0.732   6.357  0.00  0.00    -0.009 A 
ATOM     16  C   UNL     1     -12.227   0.481   6.824  0.00  0.00    +0.007 A 
ATOM     17  C   UNL     1     -13.306   0.551   5.962  0.00  0.00    +0.000 A 
ATOM     18  C   UNL     1     -13.111   0.872   4.631  0.00  0.00    +0.004 A 
ATOM     19  C   UNL     1     -11.838   1.129   4.161  0.00  0.00    +0.046 A 
ATOM     20  C   UNL     1     -10.753   1.054   5.022  0.00  0.00    +0.124 A 
ENDBRANCH  13  20
ENDBRANCH  12  13
ENDBRANCH   1  12
BRANCH   4  21
ATOM     21  S   UNL     1      -4.651   3.960   2.418  0.00  0.00    -0.073 S 
BRANCH  21  22
ATOM     22  C   UNL     1      -3.319   2.867   1.862  0.00  0.00    +0.137 C 
ATOM     23  C   UNL     1      -3.009   1.844   2.957  0.00  0.00    +0.029 C 
BRANCH  22  24
ATOM     24  C   UNL     1      -2.086   3.684   1.574  0.00  0.00    +0.233 C 
ATOM     25  O   UNL     1      -1.925   4.753   2.125  0.00  0.00    -0.274 OA
ATOM     26  N   UNL     1      -1.163   3.228   0.706  0.00  0.00    -0.260 N 
ATOM     27  C   UNL     1      -1.335   1.935   0.019  0.00  0.00    +0.209 C 
ATOM     28  C   UNL     1      -0.014   1.209   0.009  0.00  0.00    +0.235 C 
ATOM     29  O   UNL     1       0.002  -0.004   0.002  0.00  0.00    -0.274 OA
ATOM     30  N   UNL     1       1.147   1.890   0.001  0.00  0.00    -0.283 N 
ATOM     31  C   UNL     1       1.157   3.288   0.058  0.00  0.00    +0.055 A 
ATOM     32  C   UNL     1      -0.006   3.970   0.421  0.00  0.00    +0.058 A 
ATOM     33  C   UNL     1      -0.009   5.351   0.488  0.00  0.00    +0.025 A 
ATOM     34  C   UNL     1       1.144   6.056   0.190  0.00  0.00    +0.002 A 
ATOM     35  C   UNL     1       2.295   5.383  -0.173  0.00  0.00    +0.002 A 
ATOM     36  C   UNL     1       2.306   4.001  -0.240  0.00  0.00    +0.025 A 
ATOM     37  H   UNL     1       1.987   1.406  -0.044  0.00  0.00    +0.155 HD
ENDBRANCH  22  24
ENDBRANCH  21  22
ENDBRANCH   4  21
TORSDOF 7
