REMARK  Name = ZINC00685334
REMARK  11 active torsions:
REMARK  status: ('A' for Active; 'I' for Inactive)
REMARK    1  A    between atoms: C_1  and  C_2
REMARK    2  A    between atoms: C_2  and  O_3
REMARK    3  A    between atoms: O_3  and  C_4
REMARK    4  A    between atoms: C_4  and  C_6
REMARK    5  A    between atoms: C_7  and  C_37
REMARK    6  A    between atoms: C_14  and  C_15
REMARK    7  A    between atoms: C_18  and  N_20
REMARK    8  A    between atoms: C_25  and  N_67
REMARK    9  A    between atoms: C_27  and  C_29
REMARK   10  A    between atoms: C_32  and  O_35
REMARK   11  A    between atoms: O_35  and  C_36
REMARK                            x       y       z     vdW  Elec       q    Type
REMARK                         _______ _______ _______ _____ _____    ______ ____
ROOT
ATOM      1  C   UNL     1      -1.879   2.490  -1.362  0.00  0.00    +0.085 C 
ATOM      2  C   UNL     1      -1.819   3.813  -1.705  0.00  0.00    +0.053 C 
ATOM      3  N   UNL     1      -1.502   4.731  -0.802  0.00  0.00    -0.228 NA
ATOM      4  C   UNL     1      -1.226   4.479   0.455  0.00  0.00    +0.178 A 
ATOM      5  N   UNL     1      -1.230   3.220   1.004  0.00  0.00    -0.275 N 
ATOM      6  C   UNL     1      -0.930   3.096   2.304  0.00  0.00    +0.268 A 
ATOM      7  O   UNL     1      -0.919   2.003   2.843  0.00  0.00    -0.266 OA
ATOM      8  C   UNL     1      -0.627   4.271   3.033  0.00  0.00    +0.084 A 
ATOM      9  C   UNL     1      -0.292   4.412   4.364  0.00  0.00    +0.067 C 
ATOM     10  S   UNL     1      -0.796   5.520   1.770  0.00  0.00    -0.046 S 
ATOM     11  C   UNL     1      -1.575   2.113   0.070  0.00  0.00    +0.162 C 
ATOM     12  C   UNL     1      -2.115   4.231  -3.122  0.00  0.00    +0.066 C 
ENDROOT
BRANCH  11  13
ATOM     13  C   UNL     1      -0.424   1.140   0.058  0.00  0.00    -0.020 A 
ATOM     14  C   UNL     1       0.875   1.608  -0.008  0.00  0.00    +0.009 A 
ATOM     15  C   UNL     1       1.931   0.718  -0.025  0.00  0.00    +0.046 A 
ATOM     16  C   UNL     1       1.688  -0.647   0.025  0.00  0.00    +0.120 A 
ATOM     17  C   UNL     1       0.383  -1.114   0.092  0.00  0.00    +0.046 A 
ATOM     18  C   UNL     1      -0.670  -0.220   0.108  0.00  0.00    +0.009 A 
BRANCH  16  19
ATOM     19  O   UNL     1       2.725  -1.525   0.010  0.00  0.00    -0.495 OA
ATOM     20  C   UNL     1       4.041  -0.972  -0.060  0.00  0.00    +0.277 C 
ENDBRANCH  16  19
ENDBRANCH  11  13
BRANCH   9  21
ATOM     21  C   UNL     1      -0.026   5.689   4.890  0.00  0.00    +0.131 A 
ATOM     22  C   UNL     1       0.315   5.975   6.202  0.00  0.00    +0.051 A 
ATOM     23  C   UNL     1       0.489   7.359   6.278  0.00  0.00    +0.066 A 
ATOM     24  C   UNL     1       0.245   7.866   5.034  0.00  0.00    +0.189 A 
ATOM     25  O   UNL     1      -0.064   6.855   4.206  0.00  0.00    -0.442 OA
BRANCH  24  26
ATOM     26  N   UNL     1       0.306   9.200   4.685  0.00  0.00    -0.305 N 
ATOM     27  C   UNL     1      -0.581  10.007   5.534  0.00  0.00    +0.089 C 
ATOM     28  C   UNL     1      -0.425  11.485   5.168  0.00  0.00    -0.060 C 
ATOM     29  C   UNL     1       0.139  10.865   2.898  0.00  0.00    -0.060 C 
ATOM     30  C   UNL     1      -0.017   9.387   3.263  0.00  0.00    +0.089 C 
ATOM     31  C   UNL     1      -0.683  13.092   3.375  0.00  0.00    -0.096 C 
ATOM     32  N   UNL     1      -0.773  11.663   3.743  0.00  0.00    +0.380 N 
ATOM     33  H   UNL     1      -1.736  11.341   3.592  0.00  0.00    -0.082 HD
ENDBRANCH  24  26
ENDBRANCH   9  21
BRANCH   1  34
ATOM     34  C   UNL     1      -2.213   1.512  -2.312  0.00  0.00    +0.339 C 
ATOM     35  O   UNL     1      -2.563   1.844  -3.431  0.00  0.00    -0.245 OA
BRANCH  34  36
ATOM     36  O   UNL     1      -2.148   0.203  -1.985  0.00  0.00    -0.462 OA
BRANCH  36  38
ATOM     37  C   UNL     1      -2.368  -2.158  -2.449  0.00  0.00    +0.048 C 
ATOM     38  C   UNL     1      -2.502  -0.738  -3.001  0.00  0.00    +0.229 C 
ENDBRANCH  36  38
ENDBRANCH  34  36
ENDBRANCH   1  34
TORSDOF 7
