REMARK  Name = ZINC10022301
REMARK  8 active torsions:
REMARK  status: ('A' for Active; 'I' for Inactive)
REMARK    1  A    between atoms: C_4  and  C_7
REMARK    2  A    between atoms: C_12  and  N_13
REMARK    3  A    between atoms: C_14  and  C_16
REMARK    4  A    between atoms: C_16  and  O_17
REMARK    5  A    between atoms: O_17  and  C_18
REMARK    6  A    between atoms: C_18  and  C_20
REMARK    7  A    between atoms: N_23  and  C_26
REMARK    8  A    between atoms: C_29  and  C_31
REMARK                            x       y       z     vdW  Elec       q    Type
REMARK                         _______ _______ _______ _____ _____    ______ ____
ROOT
ATOM      1  C   UNL     1      -5.390   3.718   7.881  0.00  0.00    +0.311 C 
ATOM      2  O   UNL     1      -5.964   4.775   7.761  0.00  0.00    -0.251 OA
ENDROOT
BRANCH   1   3
ATOM      3  C   UNL     1      -4.739   3.073   6.685  0.00  0.00    +0.101 C 
ATOM      4  C   UNL     1      -4.949   3.955   5.451  0.00  0.00    +0.033 C 
ATOM      5  C   UNL     1      -4.235   3.325   4.253  0.00  0.00    +0.107 C 
ATOM      6  N   UNL     1      -2.802   3.197   4.547  0.00  0.00    -0.317 N 
ATOM      7  C   UNL     1      -2.574   2.316   5.700  0.00  0.00    +0.107 C 
ATOM      8  C   UNL     1      -3.238   2.916   6.941  0.00  0.00    +0.033 C 
BRANCH   6   9
ATOM      9  C   UNL     1      -2.102   2.750   3.432  0.00  0.00    +0.099 A 
ATOM     10  C   UNL     1      -0.726   2.564   3.511  0.00  0.00    +0.042 A 
ATOM     11  C   UNL     1      -0.042   2.118   2.394  0.00  0.00    +0.017 A 
ATOM     12  C   UNL     1      -0.761   1.873   1.232  0.00  0.00    +0.071 A 
ATOM     13  C   UNL     1      -2.125   2.084   1.222  0.00  0.00    +0.096 A 
ATOM     14  N   UNL     1      -2.830   2.516   2.303  0.00  0.00    -0.349 N 
ATOM     15  H   UNL     1      -3.847   2.656   2.270  0.00  0.00    +0.167 HD
BRANCH  12  16
ATOM     16  C   UNL     1      -0.058   1.387  -0.010  0.00  0.00    +0.419 C 
ATOM     17  F   UNL     1      -0.031  -0.012  -0.012  0.00  0.00    -0.166 F 
ATOM     18  F   UNL     1       1.251   1.878  -0.027  0.00  0.00    -0.166 F 
ATOM     19  F   UNL     1      -0.742   1.842  -1.142  0.00  0.00    -0.166 F 
ENDBRANCH  12  16
ENDBRANCH   6   9
ENDBRANCH   1   3
BRANCH   1  20
ATOM     20  O   UNL     1      -5.334   3.119   9.081  0.00  0.00    -0.455 OA
BRANCH  20  21
ATOM     21  C   UNL     1      -5.983   3.797  10.188  0.00  0.00    +0.328 C 
BRANCH  21  23
ATOM     22  N   UNL     1      -6.341   3.418  12.606  0.00  0.00    -0.282 N 
ATOM     23  C   UNL     1      -5.817   2.981  11.444  0.00  0.00    +0.255 C 
ATOM     24  O   UNL     1      -5.210   1.931  11.410  0.00  0.00    -0.272 OA
ATOM     25  H   UNL     1      -6.756   4.294  12.652  0.00  0.00    +0.155 HD
BRANCH  22  31
ATOM     26  C   UNL     1      -6.325   3.187  15.019  0.00  0.00    +0.003 A 
ATOM     27  C   UNL     1      -6.275   2.373  16.148  0.00  0.00    +0.010 A 
ATOM     28  C   UNL     1      -6.181   1.003  16.005  0.00  0.00    +0.001 A 
ATOM     29  C   UNL     1      -6.139   0.434  14.744  0.00  0.00    +0.002 A 
ATOM     30  C   UNL     1      -6.192   1.232  13.617  0.00  0.00    +0.024 A 
ATOM     31  C   UNL     1      -6.288   2.610  13.745  0.00  0.00    +0.041 A 
BRANCH  26  35
ATOM     32  C   UNL     1      -6.601   7.409  15.444  0.00  0.00    +0.000 A 
ATOM     33  C   UNL     1      -7.468   6.588  16.142  0.00  0.00    +0.001 A 
ATOM     34  C   UNL     1      -7.383   5.217  16.008  0.00  0.00    +0.008 A 
ATOM     35  C   UNL     1      -6.421   4.660  15.167  0.00  0.00    -0.016 A 
ATOM     36  C   UNL     1      -5.548   5.492  14.469  0.00  0.00    +0.008 A 
ATOM     37  C   UNL     1      -5.645   6.862  14.607  0.00  0.00    +0.001 A 
ENDBRANCH  26  35
ENDBRANCH  22  31
ENDBRANCH  21  23
ENDBRANCH  20  21
ENDBRANCH   1  20
TORSDOF 8
