REMARK  Name = ZINC50322414
REMARK  5 active torsions:
REMARK  status: ('A' for Active; 'I' for Inactive)
REMARK    1  A    between atoms: C_1  and  C_2
REMARK    2  A    between atoms: C_2  and  C_3
REMARK    3  A    between atoms: C_3  and  C_4
REMARK    4  A    between atoms: C_5  and  N_24
REMARK    5  A    between atoms: C_6  and  C_10
REMARK                            x       y       z     vdW  Elec       q    Type
REMARK                         _______ _______ _______ _____ _____    ______ ____
ROOT
ATOM      1  C   UNL     1       0.756  -2.003  -1.311  0.00  0.00    +0.057 A 
ATOM      2  C   UNL     1      -0.283  -2.830  -1.603  0.00  0.00    +0.078 A 
ATOM      3  C   UNL     1       0.264  -4.139  -1.598  0.00  0.00    +0.168 A 
ATOM      4  N   UNL     1       1.547  -4.021  -1.315  0.00  0.00    -0.167 NA
ATOM      5  N   UNL     1       1.855  -2.785  -1.149  0.00  0.00    -0.279 N 
ATOM      6  H   UNL     1       2.743  -2.458  -0.936  0.00  0.00    +0.189 HD
ENDROOT
BRANCH   3   7
ATOM      7  C   UNL     1      -0.465  -5.394  -1.860  0.00  0.00    +0.269 C 
ATOM      8  O   UNL     1      -1.626  -5.359  -2.219  0.00  0.00    -0.268 OA
ATOM      9  N   UNL     1       0.156  -6.579  -1.701  0.00  0.00    -0.293 N 
ATOM     10  C   UNL     1       1.489  -6.653  -1.084  0.00  0.00    +0.108 C 
ATOM     11  C   UNL     1       2.425  -7.426  -2.019  0.00  0.00    +0.019 C 
ATOM     12  C   UNL     1       1.805  -8.785  -2.353  0.00  0.00    +0.007 C 
ATOM     13  C   UNL     1       0.471  -8.569  -3.077  0.00  0.00    +0.010 C 
ATOM     14  C   UNL     1      -0.485  -7.826  -2.133  0.00  0.00    +0.079 C 
ATOM     15  C   UNL     1      -1.802  -7.523  -2.840  0.00  0.00    +0.023 C 
ATOM     16  C   UNL     1      -1.541  -6.681  -4.090  0.00  0.00    +0.002 C 
ATOM     17  C   UNL     1      -0.619  -7.455  -5.035  0.00  0.00    +0.000 C 
ATOM     18  C   UNL     1       0.724  -7.741  -4.340  0.00  0.00    +0.005 C 
ENDBRANCH   3   7
BRANCH   2  19
ATOM     19  N   UNL     1      -1.614  -2.465  -1.855  0.00  0.00    -0.355 N 
ATOM     20  H   UNL     1      -1.874  -1.531  -1.831  0.00  0.00    +0.142 HD
ATOM     21  H   UNL     1      -2.274  -3.148  -2.054  0.00  0.00    +0.142 HD
ENDBRANCH   2  19
BRANCH   1  22
ATOM     22  C   UNL     1       0.701  -0.501  -1.195  0.00  0.00    +0.056 C 
BRANCH  22  24
ATOM     23  C   UNL     1       0.211   1.410   0.337  0.00  0.00    +0.004 C 
ATOM     24  C   UNL     1       0.267  -0.114   0.220  0.00  0.00    +0.003 C 
ENDBRANCH  22  24
ENDBRANCH   1  22
TORSDOF 4
