REMARK  Name = ZINC04083929
REMARK  10 active torsions:
REMARK  status: ('A' for Active; 'I' for Inactive)
REMARK    1  A    between atoms: C_1  and  C_2
REMARK    2  A    between atoms: C_15  and  O_33
REMARK    3  A    between atoms: C_18  and  C_32
REMARK    4  A    between atoms: C_23  and  C_24
REMARK    5  A    between atoms: C_23  and  O_31
REMARK    6  A    between atoms: C_24  and  C_26
REMARK    7  A    between atoms: C_26  and  O_27
REMARK    8  A    between atoms: O_27  and  C_28
REMARK    9  A    between atoms: C_28  and  C_30
REMARK   10  A    between atoms: C_30  and  N_63
REMARK                            x       y       z     vdW  Elec       q    Type
REMARK                         _______ _______ _______ _____ _____    ______ ____
ROOT
ATOM      1  C   UNL     1      -0.991  -2.719  -0.022  0.00  0.00    +0.016 C 
ATOM      2  C   UNL     1      -1.678  -2.658   1.343  0.00  0.00    -0.005 C 
ATOM      3  C   UNL     1      -1.106  -3.807   2.137  0.00  0.00    +0.019 C 
ATOM      4  C   UNL     1      -2.116  -4.367   3.137  0.00  0.00    +0.080 C 
ATOM      5  C   UNL     1      -3.371  -4.732   2.366  0.00  0.00    +0.156 C 
ATOM      6  O   UNL     1      -3.877  -5.832   2.446  0.00  0.00    -0.293 OA
ATOM      7  C   UNL     1      -3.937  -3.674   1.518  0.00  0.00    +0.046 C 
ATOM      8  C   UNL     1      -3.136  -2.714   1.063  0.00  0.00    -0.060 C 
ATOM      9  C   UNL     1      -3.732  -1.598   0.222  0.00  0.00    +0.032 C 
ATOM     10  C   UNL     1      -3.326  -0.266   0.863  0.00  0.00    +0.008 C 
ATOM     11  C   UNL     1      -1.806  -0.195   1.004  0.00  0.00    -0.001 C 
ATOM     12  C   UNL     1      -1.314  -1.303   1.950  0.00  0.00    +0.031 C 
ATOM     13  C   UNL     1       0.194  -1.229   2.167  0.00  0.00    +0.119 C 
ATOM     14  C   UNL     1       0.629   0.164   2.650  0.00  0.00    +0.041 C 
ATOM     15  C   UNL     1       0.165   1.165   1.609  0.00  0.00    +0.009 C 
ATOM     16  C   UNL     1      -1.387   1.134   1.604  0.00  0.00    +0.002 C 
ATOM     17  C   UNL     1      -1.720   2.374   0.767  0.00  0.00    +0.008 C 
ATOM     18  C   UNL     1      -0.703   3.427   1.287  0.00  0.00    +0.043 C 
ATOM     19  C   UNL     1       0.489   2.630   1.881  0.00  0.00    +0.133 C 
ATOM     20  C   UNL     1       0.696   0.763   0.232  0.00  0.00    +0.015 C 
ENDROOT
BRANCH  19  21
ATOM     21  C   UNL     1       1.774   3.016   1.196  0.00  0.00    +0.202 C 
ATOM     22  O   UNL     1       1.746   3.510   0.094  0.00  0.00    -0.291 OA
BRANCH  21  23
ATOM     23  C   UNL     1       3.095   2.787   1.885  0.00  0.00    +0.309 C 
BRANCH  23  24
ATOM     24  O   UNL     1       4.174   3.239   1.025  0.00  0.00    -0.458 OA
BRANCH  24  25
ATOM     25  C   UNL     1       5.424   3.104   1.495  0.00  0.00    +0.290 C 
ATOM     26  O   UNL     1       5.610   2.624   2.588  0.00  0.00    -0.253 OA
BRANCH  25  27
ATOM     27  C   UNL     1       6.595   3.551   0.658  0.00  0.00    +0.036 C 
BRANCH  27  30
ATOM     28  H   UNL     1       7.919   2.327   1.653  0.00  0.00    -0.089 HD
ATOM     29  H   UNL     1       8.645   3.590   0.850  0.00  0.00    -0.089 HD
ATOM     30  N   UNL     1       7.840   3.313   1.410  0.00  0.00    +0.385 N 
ATOM     31  H   UNL     1       7.825   3.870   2.273  0.00  0.00    -0.089 HD
ENDBRANCH  27  30
ENDBRANCH  25  27
ENDBRANCH  24  25
ENDBRANCH  23  24
ENDBRANCH  21  23
ENDBRANCH  19  21
BRANCH  19  32
ATOM     32  O   UNL     1       0.588   2.862   3.288  0.00  0.00    -0.380 OA
ATOM     33  H   UNL     1       0.793   3.777   3.522  0.00  0.00    +0.211 HD
ENDBRANCH  19  32
BRANCH  13  34
ATOM     34  O   UNL     1       0.857  -1.525   0.937  0.00  0.00    -0.391 OA
ATOM     35  H   UNL     1       1.822  -1.530   1.001  0.00  0.00    +0.210 HD
ENDBRANCH  13  34
TORSDOF 8
