REMARK  Name = ZINC09926788
REMARK  6 active torsions:
REMARK  status: ('A' for Active; 'I' for Inactive)
REMARK    1  A    between atoms: C_1  and  C_2
REMARK    2  A    between atoms: C_2  and  O_3
REMARK    3  A    between atoms: O_3  and  C_4
REMARK    4  A    between atoms: C_4  and  C_6
REMARK    5  A    between atoms: C_7  and  N_33
REMARK    6  A    between atoms: C_25  and  C_28
REMARK                            x       y       z     vdW  Elec       q    Type
REMARK                         _______ _______ _______ _____ _____    ______ ____
ROOT
ATOM      1  C   UNL     1      -0.631   5.895  -1.295  0.00  0.00    +0.117 C 
ATOM      2  C   UNL     1      -1.609   6.793  -1.004  0.00  0.00    +0.195 C 
ATOM      3  O   UNL     1      -1.981   7.032   0.262  0.00  0.00    -0.446 OA
ATOM      4  C   UNL     1      -1.155   6.731   1.280  0.00  0.00    +0.116 C 
ATOM      5  C   UNL     1      -0.156   5.841   1.132  0.00  0.00    +0.057 C 
ATOM      6  C   UNL     1       0.064   5.153  -0.190  0.00  0.00    +0.141 C 
ATOM      7  C   UNL     1      -0.388   3.727  -0.132  0.00  0.00    -0.001 A 
ATOM      8  C   UNL     1      -1.628   3.171   0.097  0.00  0.00    +0.022 A 
ATOM      9  C   UNL     1      -1.711   1.782   0.074  0.00  0.00    +0.018 A 
ATOM     10  C   UNL     1      -0.597   0.999  -0.155  0.00  0.00    +0.017 A 
ATOM     11  C   UNL     1       0.653   1.552  -0.385  0.00  0.00    +0.025 A 
ATOM     12  C   UNL     1       0.748   2.945  -0.371  0.00  0.00    +0.038 A 
ATOM     13  N   UNL     1       1.855   3.752  -0.567  0.00  0.00    -0.284 N 
ATOM     14  C   UNL     1       1.548   5.063  -0.479  0.00  0.00    +0.237 C 
ATOM     15  O   UNL     1       2.315   5.993  -0.608  0.00  0.00    -0.274 OA
ATOM     16 BR   UNL     1      -3.382   0.949   0.372  0.00  0.00    -0.050 Br
ATOM     17  C   UNL     1       0.711   5.528   2.198  0.00  0.00    +0.165 C 
ATOM     18  O   UNL     1       1.587   4.704   2.033  0.00  0.00    -0.292 OA
ATOM     19  C   UNL     1       0.571   6.198   3.538  0.00  0.00    +0.091 C 
ATOM     20  C   UNL     1      -0.048   7.586   3.335  0.00  0.00    +0.070 C 
ATOM     21  C   UNL     1      -1.382   7.419   2.606  0.00  0.00    +0.086 C 
ATOM     22  H   UNL     1       2.747   3.415  -0.746  0.00  0.00    +0.155 HD
ENDROOT
BRANCH  20  23
ATOM     23  C   UNL     1      -0.281   8.237   4.674  0.00  0.00    +0.109 A 
ATOM     24  C   UNL     1       0.247   9.405   5.083  0.00  0.00    +0.045 A 
ATOM     25  C   UNL     1      -0.235   9.636   6.392  0.00  0.00    +0.041 A 
ATOM     26  C   UNL     1      -1.022   8.591   6.708  0.00  0.00    +0.195 A 
ATOM     27  O   UNL     1      -1.046   7.747   5.664  0.00  0.00    -0.468 OA
ENDBRANCH  20  23
BRANCH   2  28
ATOM     28  N   UNL     1      -2.226   7.467  -2.023  0.00  0.00    -0.329 N 
ATOM     29  H   UNL     1      -3.163   7.705  -1.950  0.00  0.00    +0.145 HD
ATOM     30  H   UNL     1      -1.725   7.707  -2.818  0.00  0.00    +0.145 HD
ENDBRANCH   2  28
BRANCH   1  31
ATOM     31  C   UNL     1      -0.270   5.661  -2.631  0.00  0.00    +0.342 C 
ATOM     32  O   UNL     1      -0.903   6.179  -3.533  0.00  0.00    -0.245 OA
BRANCH  31  33
ATOM     33  O   UNL     1       0.780   4.861  -2.917  0.00  0.00    -0.462 OA
BRANCH  33  35
ATOM     34  C   UNL     1       2.301   3.739  -4.423  0.00  0.00    +0.048 C 
ATOM     35  C   UNL     1       1.091   4.667  -4.298  0.00  0.00    +0.229 C 
ENDBRANCH  33  35
ENDBRANCH  31  33
ENDBRANCH   1  31
TORSDOF 5
