REMARK  Name = ZINC03534797
REMARK  11 active torsions:
REMARK  status: ('A' for Active; 'I' for Inactive)
REMARK    1  A    between atoms: C_1  and  C_2
REMARK    2  A    between atoms: C_5  and  C_8
REMARK    3  A    between atoms: C_11  and  S_14
REMARK    4  A    between atoms: N_12  and  N_13
REMARK    5  A    between atoms: S_14  and  C_15
REMARK    6  A    between atoms: C_15  and  C_16
REMARK    7  A    between atoms: C_19  and  C_21
REMARK    8  A    between atoms: C_21  and  C_22
REMARK    9  A    between atoms: N_24  and  C_25
REMARK   10  A    between atoms: C_27  and  C_32
REMARK   11  A    between atoms: C_30  and  C_31
REMARK                            x       y       z     vdW  Elec       q    Type
REMARK                         _______ _______ _______ _____ _____    ______ ____
ROOT
ATOM      1  C   UNL     1      -0.720  -6.192  -0.250  0.00  0.00    +0.059 A 
ATOM      2  C   UNL     1      -1.272  -6.840   0.807  0.00  0.00    +0.071 A 
ATOM      3  S   UNL     1      -1.753  -8.378   0.033  0.00  0.00    -0.080 S 
ATOM      4  C   UNL     1      -1.178  -8.014  -1.565  0.00  0.00    +0.087 A 
ATOM      5  N   UNL     1      -0.687  -6.806  -1.414  0.00  0.00    -0.248 NA
ENDROOT
BRANCH   1   6
ATOM      6  C   UNL     1      -0.151  -4.805  -0.093  0.00  0.00    +0.133 C 
BRANCH   6   7
ATOM      7  S   UNL     1      -1.444  -3.582  -0.425  0.00  0.00    -0.078 S 
BRANCH   7  11
ATOM      8  C   UNL     1       0.056   0.002  -0.012  0.00  0.00    +0.182 A 
ATOM      9  N   UNL     1       1.082  -0.772   0.254  0.00  0.00    -0.127 NA
ATOM     10  N   UNL     1       0.737  -2.007   0.156  0.00  0.00    -0.121 NA
ATOM     11  C   UNL     1      -0.531  -2.096  -0.177  0.00  0.00    +0.209 A 
ATOM     12  N   UNL     1      -1.010  -0.822  -0.290  0.00  0.00    -0.224 N 
BRANCH   8  17
ATOM     13  C   UNL     1       0.016   5.756   0.014  0.00  0.00    +0.044 C 
ATOM     14  C   UNL     1       0.027   4.249   0.007  0.00  0.00    -0.050 A 
ATOM     15  C   UNL     1       1.231   3.569  -0.003  0.00  0.00    +0.004 A 
ATOM     16  C   UNL     1       1.248   2.189  -0.009  0.00  0.00    +0.012 A 
ATOM     17  C   UNL     1       0.046   1.480  -0.005  0.00  0.00    +0.021 A 
ATOM     18  C   UNL     1      -1.166   2.173  -0.002  0.00  0.00    +0.012 A 
ATOM     19  C   UNL     1      -1.169   3.552   0.010  0.00  0.00    +0.004 A 
ENDBRANCH   8  17
BRANCH  12  20
ATOM     20  N   UNL     1      -2.282  -0.445  -0.615  0.00  0.00    -0.295 N 
ATOM     21  H   UNL     1      -2.384  -0.339  -1.613  0.00  0.00    +0.163 HD
ATOM     22  H   UNL     1      -2.958  -1.099  -0.250  0.00  0.00    +0.163 HD
ENDBRANCH  12  20
ENDBRANCH   7  11
ENDBRANCH   6   7
ENDBRANCH   1   6
BRANCH   4  23
ATOM     23  C   UNL     1      -1.230  -8.867  -2.806  0.00  0.00    +0.159 C 
BRANCH  23  24
ATOM     24  C   UNL     1       0.018  -9.707  -2.892  0.00  0.00    +0.224 C 
ATOM     25  O   UNL     1       0.867  -9.621  -2.029  0.00  0.00    -0.275 OA
ATOM     26  N   UNL     1       0.192 -10.553  -3.926  0.00  0.00    -0.285 N 
ATOM     27  H   UNL     1      -0.520 -10.681  -4.573  0.00  0.00    +0.155 HD
BRANCH  26  28
ATOM     28  C   UNL     1       1.399 -11.246  -4.068  0.00  0.00    +0.037 A 
ATOM     29  C   UNL     1       2.565 -10.734  -3.514  0.00  0.00    +0.027 A 
ATOM     30  C   UNL     1       3.755 -11.421  -3.656  0.00  0.00    -0.049 A 
ATOM     31  C   UNL     1       3.786 -12.618  -4.349  0.00  0.00    +0.004 A 
ATOM     32  C   UNL     1       2.627 -13.130  -4.902  0.00  0.00    +0.005 A 
ATOM     33  C   UNL     1       1.432 -12.451  -4.758  0.00  0.00    -0.029 A 
ATOM     34  C   UNL     1       0.168 -13.013  -5.356  0.00  0.00    +0.045 C 
ATOM     35  C   UNL     1       5.020 -10.866  -3.055  0.00  0.00    +0.044 C 
ENDBRANCH  26  28
ENDBRANCH  23  24
ENDBRANCH   4  23
TORSDOF 8
