REMARK  Name = ZINC09562386
REMARK  9 active torsions:
REMARK  status: ('A' for Active; 'I' for Inactive)
REMARK    1  A    between atoms: C_1  and  C_2
REMARK    2  A    between atoms: C_5  and  C_8
REMARK    3  A    between atoms: C_8  and  N_9
REMARK    4  A    between atoms: C_22  and  S_23
REMARK    5  A    between atoms: S_23  and  C_24
REMARK    6  A    between atoms: C_24  and  C_25
REMARK    7  A    between atoms: N_27  and  C_28
REMARK    8  A    between atoms: C_33  and  C_38
REMARK    9  A    between atoms: C_35  and  C_37
REMARK                            x       y       z     vdW  Elec       q    Type
REMARK                         _______ _______ _______ _____ _____    ______ ____
ROOT
ATOM      1  N   UNL     1      -8.882  -2.877  -3.902  0.00  0.00    -0.272 N 
ATOM      2  C   UNL     1      -8.846  -2.727  -5.241  0.00  0.00    +0.263 A 
ATOM      3  O   UNL     1      -9.812  -3.014  -5.922  0.00  0.00    -0.267 OA
ATOM      4  C   UNL     1      -7.615  -2.209  -5.866  0.00  0.00    +0.064 A 
ATOM      5  C   UNL     1      -7.522  -2.035  -7.246  0.00  0.00    +0.015 A 
ATOM      6  C   UNL     1      -6.354  -1.549  -7.794  0.00  0.00    +0.001 A 
ATOM      7  C   UNL     1      -5.277  -1.234  -6.981  0.00  0.00    +0.002 A 
ATOM      8  C   UNL     1      -5.356  -1.403  -5.613  0.00  0.00    +0.027 A 
ATOM      9  C   UNL     1      -6.523  -1.891  -5.044  0.00  0.00    +0.064 A 
ATOM     10  N   UNL     1      -6.630  -2.071  -3.667  0.00  0.00    -0.256 N 
ATOM     11  C   UNL     1      -7.786  -2.553  -3.116  0.00  0.00    +0.240 A 
ATOM     12  N   UNL     1      -7.612  -2.623  -1.815  0.00  0.00    -0.109 NA
ATOM     13  N   UNL     1      -6.316  -2.181  -1.524  0.00  0.00    -0.120 NA
ATOM     14  C   UNL     1      -5.739  -1.846  -2.652  0.00  0.00    +0.198 A 
ENDROOT
BRANCH   1  15
ATOM     15  C   UNL     1     -10.098  -3.390  -3.266  0.00  0.00    +0.163 C 
BRANCH  15  20
ATOM     16  C   UNL     1      -9.819  -9.154  -2.950  0.00  0.00    +0.044 C 
ATOM     17  C   UNL     1      -9.892  -7.651  -3.032  0.00  0.00    -0.050 A 
ATOM     18  C   UNL     1      -9.400  -6.877  -1.998  0.00  0.00    +0.004 A 
ATOM     19  C   UNL     1      -9.466  -5.499  -2.073  0.00  0.00    +0.005 A 
ATOM     20  C   UNL     1     -10.025  -4.894  -3.184  0.00  0.00    -0.028 A 
ATOM     21  C   UNL     1     -10.522  -5.667  -4.216  0.00  0.00    +0.005 A 
ATOM     22  C   UNL     1     -10.451  -7.046  -4.142  0.00  0.00    +0.004 A 
ENDBRANCH  15  20
ENDBRANCH   1  15
BRANCH  14  23
ATOM     23  S   UNL     1      -4.100  -1.225  -2.832  0.00  0.00    -0.076 S 
BRANCH  23  24
ATOM     24  C   UNL     1      -3.465  -1.164  -1.134  0.00  0.00    +0.173 C 
BRANCH  24  25
ATOM     25  C   UNL     1      -2.051  -0.643  -1.145  0.00  0.00    +0.224 C 
ATOM     26  O   UNL     1      -1.524  -0.341  -2.194  0.00  0.00    -0.275 OA
ATOM     27  N   UNL     1      -1.372  -0.511   0.012  0.00  0.00    -0.312 N 
ATOM     28  H   UNL     1      -1.794  -0.752   0.852  0.00  0.00    +0.149 HD
BRANCH  27  29
ATOM     29  C   UNL     1       0.002  -0.004   0.002  0.00  0.00    +0.076 C 
ATOM     30  C   UNL     1      -0.019   1.526   0.010  0.00  0.00    +0.022 C 
ATOM     31  C   UNL     1       1.417   2.055  -0.000  0.00  0.00    +0.002 C 
ATOM     32  C   UNL     1       2.157   1.548   1.239  0.00  0.00    +0.003 C 
ATOM     33  C   UNL     1       2.178   0.019   1.231  0.00  0.00    -0.009 C 
ATOM     34  C   UNL     1       0.742  -0.511   1.242  0.00  0.00    +0.009 C 
ATOM     35  C   UNL     1       0.763  -2.041   1.233  0.00  0.00    +0.009 C 
ATOM     36  C   UNL     1       2.894  -0.475  -0.028  0.00  0.00    +0.008 C 
ENDBRANCH  27  29
ENDBRANCH  24  25
ENDBRANCH  23  24
ENDBRANCH  14  23
TORSDOF 6
