REMARK  Name = ZINC09500827
REMARK  8 active torsions:
REMARK  status: ('A' for Active; 'I' for Inactive)
REMARK    1  A    between atoms: C_1  and  C_2
REMARK    2  A    between atoms: C_5  and  N_9
REMARK    3  A    between atoms: C_6  and  C_8
REMARK    4  A    between atoms: C_22  and  S_23
REMARK    5  A    between atoms: S_23  and  C_24
REMARK    6  A    between atoms: C_24  and  C_26
REMARK    7  A    between atoms: C_24  and  C_27
REMARK    8  A    between atoms: N_29  and  C_30
REMARK                            x       y       z     vdW  Elec       q    Type
REMARK                         _______ _______ _______ _____ _____    ______ ____
ROOT
ATOM      1  N   UNL     1       7.313   2.912  -1.479  0.00  0.00    -0.245 N 
ATOM      2  C   UNL     1       7.912   1.831  -2.019  0.00  0.00    +0.268 A 
ATOM      3  O   UNL     1       9.080   1.875  -2.354  0.00  0.00    -0.267 OA
ATOM      4  C   UNL     1       7.129   0.595  -2.197  0.00  0.00    +0.064 A 
ATOM      5  C   UNL     1       7.699  -0.550  -2.751  0.00  0.00    +0.015 A 
ATOM      6  C   UNL     1       6.936  -1.688  -2.902  0.00  0.00    +0.001 A 
ATOM      7  C   UNL     1       5.607  -1.697  -2.506  0.00  0.00    +0.002 A 
ATOM      8  C   UNL     1       5.030  -0.570  -1.957  0.00  0.00    +0.027 A 
ATOM      9  C   UNL     1       5.782   0.584  -1.798  0.00  0.00    +0.064 A 
ATOM     10  N   UNL     1       5.231   1.734  -1.247  0.00  0.00    -0.255 N 
ATOM     11  C   UNL     1       5.982   2.871  -1.093  0.00  0.00    +0.245 A 
ATOM     12  N   UNL     1       5.198   3.775  -0.556  0.00  0.00    -0.109 NA
ATOM     13  N   UNL     1       4.023   3.288  -0.372  0.00  0.00    -0.120 NA
ATOM     14  C   UNL     1       3.984   2.039  -0.771  0.00  0.00    +0.198 A 
ENDROOT
BRANCH   1  19
ATOM     15  C   UNL     1      10.282   7.694  -0.771  0.00  0.00    +0.044 C 
ATOM     16  C   UNL     1       9.493   6.424  -0.959  0.00  0.00    -0.050 A 
ATOM     17  C   UNL     1       9.460   5.477   0.049  0.00  0.00    +0.005 A 
ATOM     18  C   UNL     1       8.734   4.314  -0.118  0.00  0.00    +0.027 A 
ATOM     19  C   UNL     1       8.046   4.091  -1.304  0.00  0.00    +0.056 A 
ATOM     20  C   UNL     1       8.081   5.045  -2.314  0.00  0.00    -0.026 A 
ATOM     21  C   UNL     1       8.805   6.208  -2.138  0.00  0.00    +0.008 A 
ATOM     22  C   UNL     1       7.330   4.810  -3.599  0.00  0.00    +0.046 C 
ENDBRANCH   1  19
BRANCH  14  23
ATOM     23  S   UNL     1       2.591   0.962  -0.713  0.00  0.00    -0.073 S 
BRANCH  23  24
ATOM     24  C   UNL     1       1.280   1.979   0.020  0.00  0.00    +0.137 C 
ATOM     25  C   UNL     1       1.657   2.336   1.460  0.00  0.00    +0.029 C 
BRANCH  24  26
ATOM     26  C   UNL     1      -0.015   1.208   0.016  0.00  0.00    +0.230 C 
ATOM     27  O   UNL     1       0.001  -0.005   0.006  0.00  0.00    -0.274 OA
ATOM     28  N   UNL     1      -1.191   1.867   0.018  0.00  0.00    -0.282 N 
ATOM     29  H   UNL     1      -1.205   2.834   0.091  0.00  0.00    +0.155 HD
BRANCH  28  30
ATOM     30  C   UNL     1      -2.392   1.155  -0.086  0.00  0.00    +0.069 A 
ATOM     31  C   UNL     1      -2.511  -0.099   0.499  0.00  0.00    +0.026 A 
ATOM     32  C   UNL     1      -3.699  -0.796   0.400  0.00  0.00    +0.002 A 
ATOM     33  C   UNL     1      -4.767  -0.253  -0.291  0.00  0.00    +0.003 A 
ATOM     34  C   UNL     1      -4.652   0.992  -0.880  0.00  0.00    +0.040 A 
ATOM     35  C   UNL     1      -3.467   1.699  -0.780  0.00  0.00    +0.144 A 
ATOM     36  F   UNL     1      -3.354   2.916  -1.356  0.00  0.00    -0.204 F 
ENDBRANCH  28  30
ENDBRANCH  24  26
ENDBRANCH  23  24
ENDBRANCH  14  23
TORSDOF 5
