REMARK  Name = ZINC63362288
REMARK  12 active torsions:
REMARK  status: ('A' for Active; 'I' for Inactive)
REMARK    1  A    between atoms: C_1  and  C_2
REMARK    2  A    between atoms: C_2  and  C_3
REMARK    3  A    between atoms: C_3  and  C_4
REMARK    4  A    between atoms: C_4  and  C_5
REMARK    5  A    between atoms: C_5  and  C_6
REMARK    6  A    between atoms: C_6  and  C_8
REMARK    7  A    between atoms: C_6  and  N_9
REMARK    8  A    between atoms: C_10  and  C_12
REMARK    9  A    between atoms: C_15  and  N_18
REMARK   10  A    between atoms: C_21  and  C_39
REMARK   11  A    between atoms: C_27  and  O_32
REMARK   12  A    between atoms: O_32  and  C_33
REMARK                            x       y       z     vdW  Elec       q    Type
REMARK                         _______ _______ _______ _____ _____    ______ ____
ROOT
ATOM      1  N   UNL     1       0.678  -7.702   6.078  0.00  0.00    -0.192 N 
ATOM      2  C   UNL     1       1.206  -8.934   6.233  0.00  0.00    +0.253 C 
ATOM      3  O   UNL     1       1.239  -9.825   5.412  0.00  0.00    -0.272 OA
ATOM      4  C   UNL     1       1.747  -8.971   7.645  0.00  0.00    +0.137 C 
ATOM      5  C   UNL     1       1.079 -10.085   8.449  0.00  0.00    +0.139 C 
ATOM      6  C   UNL     1       0.193  -9.422   9.493  0.00  0.00    -0.034 C 
ATOM      7  C   UNL     1      -1.030  -9.910   9.308  0.00  0.00    +0.003 A 
ATOM      8  C   UNL     1      -2.290  -9.702  10.039  0.00  0.00    +0.055 A 
ATOM      9  C   UNL     1      -3.384 -10.361   9.568  0.00  0.00    +0.121 A 
ATOM     10  C   UNL     1      -3.370 -11.206   8.448  0.00  0.00    +0.047 A 
ATOM     11  C   UNL     1      -2.265 -11.471   7.706  0.00  0.00    +0.029 A 
ATOM     12  C   UNL     1      -1.015 -10.819   8.120  0.00  0.00    +0.043 A 
ATOM     13  N   UNL     1       0.195 -10.903   7.615  0.00  0.00    -0.375 N 
ATOM     14  C   UNL     1       0.682  -8.370  10.458  0.00  0.00    +0.052 C 
ATOM     15  C   UNL     1       1.406  -7.295   9.623  0.00  0.00    +0.115 C 
ATOM     16  N   UNL     1       1.307  -7.679   8.212  0.00  0.00    -0.268 N 
ATOM     17  C   UNL     1       0.777  -6.977   7.201  0.00  0.00    +0.316 C 
ATOM     18  O   UNL     1       0.425  -5.817   7.292  0.00  0.00    -0.252 OA
ATOM     19  C   UNL     1       3.272  -9.095   7.654  0.00  0.00    +0.044 C 
ATOM     20  H   UNL     1       0.462 -11.409   6.831  0.00  0.00    +0.160 HD
ENDROOT
BRANCH   1  24
ATOM     21  C   UNL     1      -1.035  -6.315   2.539  0.00  0.00    +0.037 A 
ATOM     22  C   UNL     1      -1.091  -5.535   3.697  0.00  0.00    +0.015 A 
ATOM     23  C   UNL     1      -0.524  -5.996   4.864  0.00  0.00    +0.025 A 
ATOM     24  C   UNL     1       0.104  -7.237   4.892  0.00  0.00    +0.045 A 
ATOM     25  C   UNL     1       0.162  -8.016   3.741  0.00  0.00    +0.025 A 
ATOM     26  C   UNL     1      -0.408  -7.564   2.572  0.00  0.00    +0.015 A 
BRANCH  21  28
ATOM     27  N   UNL     1      -2.246  -4.620   1.256  0.00  0.00    -0.309 N 
ATOM     28  C   UNL     1      -1.641  -5.824   1.286  0.00  0.00    +0.244 C 
ATOM     29  O   UNL     1      -1.596  -6.507   0.281  0.00  0.00    -0.270 OA
ATOM     30  H   UNL     1      -2.282  -4.076   2.059  0.00  0.00    +0.149 HD
BRANCH  27  31
ATOM     31  C   UNL     1      -2.848  -4.133   0.013  0.00  0.00    +0.070 C 
ATOM     32  C   UNL     1      -4.269  -4.686  -0.116  0.00  0.00    +0.028 C 
BRANCH  31  33
ATOM     33  C   UNL     1      -2.895  -2.604   0.034  0.00  0.00    +0.022 C 
BRANCH  33  34
ATOM     34  C   UNL     1      -1.469  -2.049   0.037  0.00  0.00    +0.002 C 
BRANCH  34  35
ATOM     35  C   UNL     1      -1.517  -0.520   0.059  0.00  0.00    -0.000 C 
BRANCH  35  37
ATOM     36  C   UNL     1      -0.138   1.563   0.083  0.00  0.00    +0.004 C 
ATOM     37  C   UNL     1      -0.091   0.034   0.062  0.00  0.00    -0.003 C 
ENDBRANCH  35  37
ENDBRANCH  34  35
ENDBRANCH  33  34
ENDBRANCH  31  33
ENDBRANCH  27  31
ENDBRANCH  21  28
ENDBRANCH   1  24
BRANCH   9  38
ATOM     38  O   UNL     1      -4.563 -10.190  10.223  0.00  0.00    -0.495 OA
ATOM     39  C   UNL     1      -5.698 -10.891   9.710  0.00  0.00    +0.277 C 
ENDBRANCH   9  38
TORSDOF 8
