REMARK  Name = ZINC01429598
REMARK  3 active torsions:
REMARK  status: ('A' for Active; 'I' for Inactive)
REMARK    1  A    between atoms: C_6  and  C_7
REMARK    2  A    between atoms: N_12  and  C_20
REMARK    3  A    between atoms: C_21  and  C_31
REMARK                            x       y       z     vdW  Elec       q    Type
REMARK                         _______ _______ _______ _____ _____    ______ ____
ROOT
ATOM      1  C   UNL     1      -5.712   1.984   5.736  0.00  0.00    +0.063 C 
ATOM      2  C   UNL     1      -4.519   2.792   6.255  0.00  0.00    +0.109 C 
ATOM      3  C   UNL     1      -3.457   2.838   5.184  0.00  0.00    +0.225 C 
ATOM      4  O   UNL     1      -2.751   3.817   5.071  0.00  0.00    -0.275 OA
ATOM      5  N   UNL     1      -3.297   1.793   4.352  0.00  0.00    -0.236 N 
ATOM      6  C   UNL     1      -4.028   0.641   4.518  0.00  0.00    +0.026 C 
ATOM      7  C   UNL     1      -5.208   0.675   5.173  0.00  0.00    +0.020 C 
ATOM      8  C   UNL     1      -5.981  -0.484   5.349  0.00  0.00    +0.161 C 
ATOM      9  O   UNL     1      -7.048  -0.410   5.926  0.00  0.00    -0.292 OA
ATOM     10  C   UNL     1      -5.507  -1.816   4.832  0.00  0.00    +0.080 C 
ATOM     11  C   UNL     1      -3.975  -1.825   4.810  0.00  0.00    +0.014 C 
ATOM     12  C   UNL     1      -3.492  -0.651   3.955  0.00  0.00    +0.052 C 
ENDROOT
BRANCH   5  13
ATOM     13  C   UNL     1      -2.376   1.878   3.313  0.00  0.00    +0.097 A 
ATOM     14  C   UNL     1      -2.596   2.228   1.996  0.00  0.00    +0.084 A 
ATOM     15  C   UNL     1      -1.447   2.268   1.086  0.00  0.00    -0.018 A 
ATOM     16  C   UNL     1      -0.291   1.877   1.648  0.00  0.00    -0.004 A 
ATOM     17  S   UNL     1      -0.674   1.570   3.355  0.00  0.00    -0.076 S 
ATOM     18  C   UNL     1       1.057   1.704   1.007  0.00  0.00    +0.043 C 
ATOM     19  C   UNL     1       1.037   0.340   0.294  0.00  0.00    +0.005 C 
ATOM     20  C   UNL     1      -0.181   0.304  -0.638  0.00  0.00    +0.000 C 
ATOM     21  C   UNL     1       0.047   1.414  -1.641  0.00  0.00    +0.000 C 
ATOM     22  C   UNL     1      -0.371   2.790  -1.150  0.00  0.00    +0.005 C 
ATOM     23  C   UNL     1      -1.665   2.757  -0.347  0.00  0.00    +0.037 C 
BRANCH  14  24
ATOM     24  C   UNL     1      -3.913   2.544   1.531  0.00  0.00    +0.102 C 
ATOM     25  N   UNL     1      -4.957   2.795   1.162  0.00  0.00    -0.191 NA
ENDBRANCH  14  24
ENDBRANCH   5  13
BRANCH   1  31
ATOM     26  C   UNL     1      -6.240   1.008   7.979  0.00  0.00    +0.007 A 
ATOM     27  C   UNL     1      -7.114   0.762   9.021  0.00  0.00    +0.038 A 
ATOM     28  C   UNL     1      -8.422   1.210   8.947  0.00  0.00    +0.123 A 
ATOM     29  C   UNL     1      -8.851   1.909   7.832  0.00  0.00    +0.038 A 
ATOM     30  C   UNL     1      -7.973   2.159   6.794  0.00  0.00    +0.007 A 
ATOM     31  C   UNL     1      -6.668   1.711   6.869  0.00  0.00    -0.039 A 
ATOM     32  F   UNL     1      -9.279   0.966   9.963  0.00  0.00    -0.205 F 
ENDBRANCH   1  31
TORSDOF 3
