REMARK  Name = ZINC32538696
REMARK  8 active torsions:
REMARK  status: ('A' for Active; 'I' for Inactive)
REMARK    1  A    between atoms: C_1  and  C_2
REMARK    2  A    between atoms: C_2  and  C_4
REMARK    3  A    between atoms: C_2  and  N_10
REMARK    4  A    between atoms: C_11  and  C_13
REMARK    5  A    between atoms: C_13  and  C_15
REMARK    6  A    between atoms: C_13  and  N_16
REMARK    7  A    between atoms: N_19  and  S_22
REMARK    8  A    between atoms: S_22  and  C_25
REMARK                            x       y       z     vdW  Elec       q    Type
REMARK                         _______ _______ _______ _____ _____    ______ ____
ROOT
ATOM      1  N   UNL     1      -1.323  -0.596   0.231  0.00  0.00    +0.389 N 
ATOM      2  C   UNL     1      -1.221  -2.045   0.449  0.00  0.00    -0.060 C 
ATOM      3  C   UNL     1      -2.591  -2.594   0.862  0.00  0.00    +0.091 C 
ATOM      4  N   UNL     1      -3.581  -2.184  -0.146  0.00  0.00    -0.180 NA
ATOM      5  C   UNL     1      -3.648  -0.763  -0.518  0.00  0.00    +0.091 C 
ATOM      6  C   UNL     1      -2.236  -0.287  -0.877  0.00  0.00    -0.060 C 
ATOM      7  H   UNL     1      -1.741  -0.149   1.145  0.00  0.00    -0.081 HD
ENDROOT
BRANCH   4   8
ATOM      8  S   UNL     1      -4.594  -3.294  -0.842  0.00  0.00    +0.061 S 
ATOM      9  O   UNL     1      -4.691  -4.382   0.067  0.00  0.00    -0.153 OA
ATOM     10  O   UNL     1      -5.734  -2.576  -1.295  0.00  0.00    -0.153 OA
BRANCH   8  11
ATOM     11  C   UNL     1      -3.783  -3.909  -2.280  0.00  0.00    +0.107 A 
ATOM     12  C   UNL     1      -3.971  -3.285  -3.500  0.00  0.00    +0.031 A 
ATOM     13  C   UNL     1      -3.331  -3.763  -4.628  0.00  0.00    +0.042 A 
ATOM     14  C   UNL     1      -2.510  -4.874  -4.539  0.00  0.00    +0.142 A 
ATOM     15  C   UNL     1      -2.327  -5.503  -3.318  0.00  0.00    +0.078 A 
ATOM     16  C   UNL     1      -2.963  -5.019  -2.189  0.00  0.00    +0.051 A 
ATOM     17 CL   UNL     1      -1.298  -6.896  -3.204  0.00  0.00    -0.081 Cl
ATOM     18  F   UNL     1      -1.889  -5.346  -5.642  0.00  0.00    -0.204 F 
ENDBRANCH   8  11
ENDBRANCH   4   8
BRANCH   1  19
ATOM     19  C   UNL     1       0.002  -0.004   0.002  0.00  0.00    +0.016 C 
ATOM     20  C   UNL     1       0.462  -0.319  -1.423  0.00  0.00    -0.004 C 
BRANCH  19  22
ATOM     21  N   UNL     1       1.053   2.212   0.320  0.00  0.00    -0.310 N 
ATOM     22  C   UNL     1      -0.077   1.490   0.186  0.00  0.00    +0.200 C 
ATOM     23  O   UNL     1      -1.156   2.041   0.213  0.00  0.00    -0.278 OA
ATOM     24  H   UNL     1       2.032   1.712   0.295  0.00  0.00    +0.149 HD
BRANCH  21  26
ATOM     25  C   UNL     1       0.879   4.342  -0.869  0.00  0.00    +0.033 C 
ATOM     26  C   UNL     1       0.977   3.664   0.499  0.00  0.00    +0.100 C 
BRANCH  26  27
ATOM     27  C   UNL     1       2.212   4.149   1.213  0.00  0.00    -0.027 A 
ATOM     28  C   UNL     1       3.446   3.608   0.902  0.00  0.00    +0.005 A 
ATOM     29  C   UNL     1       4.580   4.055   1.554  0.00  0.00    +0.000 A 
ATOM     30  C   UNL     1       4.479   5.036   2.523  0.00  0.00    +0.000 A 
ATOM     31  C   UNL     1       3.245   5.572   2.837  0.00  0.00    +0.000 A 
ATOM     32  C   UNL     1       2.111   5.128   2.182  0.00  0.00    +0.005 A 
ENDBRANCH  26  27
ENDBRANCH  21  26
ENDBRANCH  19  22
ENDBRANCH   1  19
TORSDOF 6
