REMARK  Name = ZINC39666608
REMARK  9 active torsions:
REMARK  status: ('A' for Active; 'I' for Inactive)
REMARK    1  A    between atoms: C_1  and  C_2
REMARK    2  A    between atoms: C_5  and  C_9
REMARK    3  A    between atoms: C_6  and  C_8
REMARK    4  A    between atoms: C_13  and  C_22
REMARK    5  A    between atoms: N_24  and  C_25
REMARK    6  A    between atoms: C_25  and  C_26
REMARK    7  A    between atoms: C_26  and  C_28
REMARK    8  A    between atoms: C_26  and  O_29
REMARK    9  A    between atoms: O_29  and  C_30
REMARK                            x       y       z     vdW  Elec       q    Type
REMARK                         _______ _______ _______ _____ _____    ______ ____
ROOT
ATOM      1  C   UNL     1      -0.074  -1.593   1.031  0.00  0.00    +0.247 C 
ATOM      2  O   UNL     1       0.365  -0.461   0.968  0.00  0.00    -0.270 OA
ATOM      3  N   UNL     1      -0.397  -2.255  -0.098  0.00  0.00    -0.296 N 
ATOM      4  C   UNL     1      -0.192  -1.816  -1.498  0.00  0.00    +0.121 C 
ATOM      5  C   UNL     1       0.242  -3.095  -2.248  0.00  0.00    +0.100 C 
ATOM      6  C   UNL     1      -0.316  -4.254  -1.405  0.00  0.00    -0.004 C 
ATOM      7  C   UNL     1      -1.030  -3.590  -0.218  0.00  0.00    +0.115 C 
ATOM      8  C   UNL     1       0.821  -5.137  -0.901  0.00  0.00    -0.010 C 
ATOM      9  C   UNL     1       0.237  -6.313  -0.114  0.00  0.00    -0.082 C 
ATOM     10  N   UNL     1      -0.663  -7.085  -0.979  0.00  0.00    +0.379 N 
ATOM     11  C   UNL     1      -1.804  -6.255  -1.384  0.00  0.00    -0.082 C 
ATOM     12  C   UNL     1      -1.306  -5.076  -2.225  0.00  0.00    -0.010 C 
ATOM     13  H   UNL     1      -0.161  -7.388  -1.800  0.00  0.00    -0.086 HD
ATOM     14  H   UNL     1      -0.999  -7.894  -0.477  0.00  0.00    -0.086 HD
ENDROOT
BRANCH   1  19
ATOM     15  C   UNL     1      -0.777  -4.124   6.152  0.00  0.00    +0.044 C 
ATOM     16  C   UNL     1      -0.593  -3.461   4.811  0.00  0.00    -0.050 A 
ATOM     17  C   UNL     1      -1.574  -3.582   3.842  0.00  0.00    +0.004 A 
ATOM     18  C   UNL     1      -1.412  -2.978   2.613  0.00  0.00    +0.013 A 
ATOM     19  C   UNL     1      -0.255  -2.243   2.347  0.00  0.00    +0.040 A 
ATOM     20  C   UNL     1       0.730  -2.125   3.328  0.00  0.00    -0.038 A 
ATOM     21  C   UNL     1       0.553  -2.730   4.555  0.00  0.00    +0.007 A 
ATOM     22  C   UNL     1       1.982  -1.334   3.050  0.00  0.00    +0.044 C 
ENDBRANCH   1  19
BRANCH   5  23
ATOM     23  C   UNL     1       1.745  -3.175  -2.324  0.00  0.00    +0.218 C 
ATOM     24  O   UNL     1       2.424  -2.652  -1.466  0.00  0.00    -0.275 OA
ATOM     25  N   UNL     1       2.335  -3.829  -3.344  0.00  0.00    -0.312 N 
ATOM     26  H   UNL     1       1.796  -4.183  -4.069  0.00  0.00    +0.149 HD
BRANCH  25  27
ATOM     27  C   UNL     1       3.789  -4.004  -3.359  0.00  0.00    +0.148 C 
BRANCH  27  28
ATOM     28  C   UNL     1       4.210  -4.664  -4.674  0.00  0.00    +0.187 C 
ATOM     29  C   UNL     1       5.722  -4.900  -4.665  0.00  0.00    +0.053 C 
BRANCH  28  30
ATOM     30  O   UNL     1       3.869  -3.809  -5.766  0.00  0.00    -0.486 OA
BRANCH  30  31
ATOM     31  C   UNL     1       3.667  -4.401  -6.973  0.00  0.00    +0.139 A 
ATOM     32  C   UNL     1       3.908  -5.757  -7.131  0.00  0.00    +0.047 A 
ATOM     33  C   UNL     1       3.703  -6.357  -8.358  0.00  0.00    +0.004 A 
ATOM     34  C   UNL     1       3.258  -5.606  -9.431  0.00  0.00    +0.002 A 
ATOM     35  C   UNL     1       3.017  -4.253  -9.277  0.00  0.00    +0.023 A 
ATOM     36  C   UNL     1       3.215  -3.649  -8.050  0.00  0.00    +0.083 A 
ATOM     37 CL   UNL     1       2.906  -1.952  -7.856  0.00  0.00    -0.080 Cl
ENDBRANCH  30  31
ENDBRANCH  28  30
ENDBRANCH  27  28
ENDBRANCH  25  27
ENDBRANCH   5  23
TORSDOF 6
