REMARK  Name = ZINC40483305
REMARK  3 active torsions:
REMARK  status: ('A' for Active; 'I' for Inactive)
REMARK    1  A    between atoms: C_10  and  C_13
REMARK    2  A    between atoms: N_15  and  C_16
REMARK    3  A    between atoms: C_19  and  C_22
REMARK                            x       y       z     vdW  Elec       q    Type
REMARK                         _______ _______ _______ _____ _____    ______ ____
ROOT
ATOM      1  C   UNL     1       2.512  -2.594   0.925  0.00  0.00    +0.199 C 
ATOM      2  O   UNL     1       2.556  -1.858   1.888  0.00  0.00    -0.278 OA
ATOM      3  N   UNL     1       2.505  -3.930   1.097  0.00  0.00    -0.314 N 
ATOM      4  H   UNL     1       2.470  -4.518   0.327  0.00  0.00    +0.149 HD
ENDROOT
BRANCH   1  12
ATOM      5  C   UNL     1      -0.019   1.522   0.010  0.00  0.00    +0.000 C 
ATOM      6  C   UNL     1       1.427   2.031  -0.001  0.00  0.00    -0.002 C 
ATOM      7  C   UNL     1       2.083   1.585  -1.308  0.00  0.00    -0.015 C 
ATOM      8  C   UNL     1       2.067   0.082  -1.448  0.00  0.00    -0.068 C 
ATOM      9  C   UNL     1       0.670  -0.534  -1.249  0.00  0.00    -0.026 C 
ATOM     10  C   UNL     1       0.002  -0.004   0.002  0.00  0.00    +0.002 C 
ATOM     11  C   UNL     1       1.017  -2.028  -0.992  0.00  0.00    -0.005 C 
ATOM     12  C   UNL     1       2.466  -2.013  -0.465  0.00  0.00    +0.017 C 
ATOM     13  N   UNL     1       2.887  -0.598  -0.426  0.00  0.00    +0.389 N 
ATOM     14  H   UNL     1       3.866  -0.530  -0.661  0.00  0.00    -0.084 HD
ATOM     15  H   UNL     1       2.715  -0.198   0.484  0.00  0.00    -0.084 HD
ENDBRANCH   1  12
BRANCH   3  16
ATOM     16  C   UNL     1       2.550  -4.495   2.448  0.00  0.00    +0.073 C 
ATOM     17  C   UNL     1       4.005  -4.590   2.913  0.00  0.00    +0.023 C 
ATOM     18  C   UNL     1       4.052  -5.180   4.324  0.00  0.00    +0.016 C 
ATOM     19  C   UNL     1       3.427  -6.577   4.314  0.00  0.00    +0.102 C 
ATOM     20  C   UNL     1       1.972  -6.481   3.849  0.00  0.00    +0.016 C 
ATOM     21  C   UNL     1       1.925  -5.891   2.438  0.00  0.00    +0.023 C 
BRANCH  19  22
ATOM     22  C   UNL     1       3.474  -7.157   5.704  0.00  0.00    +0.359 C 
ATOM     23  O   UNL     1       2.614  -7.942   6.066  0.00  0.00    -0.246 OA
ATOM     24  O   UNL     1       4.371  -6.842   6.466  0.00  0.00    -0.246 OA
ENDBRANCH  19  22
ENDBRANCH   3  16
TORSDOF 3
