REMARK  Name = ZINC20503836
REMARK  8 active torsions:
REMARK  status: ('A' for Active; 'I' for Inactive)
REMARK    1  A    between atoms: N_9  and  C_11
REMARK    2  A    between atoms: C_11  and  C_12
REMARK    3  A    between atoms: C_21  and  C_23
REMARK    4  A    between atoms: C_23  and  N_24
REMARK    5  A    between atoms: N_24  and  C_25
REMARK    6  A    between atoms: C_25  and  N_27
REMARK    7  A    between atoms: N_27  and  C_28
REMARK    8  A    between atoms: C_31  and  N_34
REMARK                            x       y       z     vdW  Elec       q    Type
REMARK                         _______ _______ _______ _____ _____    ______ ____
ROOT
ATOM      1  C   UNL     1      -3.908  -6.199   2.087  0.00  0.00    -0.011 C 
ATOM      2  C   UNL     1      -3.915  -4.669   2.016  0.00  0.00    -0.073 C 
ATOM      3  N   UNL     1      -4.533  -4.243   0.753  0.00  0.00    +0.383 N 
ATOM      4  C   UNL     1      -5.933  -4.685   0.678  0.00  0.00    -0.078 C 
ATOM      5  C   UNL     1      -5.984  -6.215   0.710  0.00  0.00    -0.015 C 
ATOM      6  C   UNL     1      -4.552  -6.757   0.811  0.00  0.00    -0.012 C 
ATOM      7  C   UNL     1      -3.753  -6.257  -0.399  0.00  0.00    -0.010 C 
ATOM      8  C   UNL     1      -3.764  -4.726  -0.401  0.00  0.00    -0.051 C 
ATOM      9  H   UNL     1      -4.524  -3.143   0.727  0.00  0.00    -0.081 HD
ENDROOT
BRANCH   1  10
ATOM     10  C   UNL     1      -2.466  -6.700   2.194  0.00  0.00    +0.086 C 
BRANCH  10  19
ATOM     11  C   UNL     1      -1.077  -5.519   8.357  0.00  0.00    +0.000 A 
ATOM     12  C   UNL     1      -2.445  -5.674   8.231  0.00  0.00    +0.000 A 
ATOM     13  C   UNL     1      -2.990  -5.997   7.005  0.00  0.00    +0.005 A 
ATOM     14  C   UNL     1      -2.172  -6.167   5.897  0.00  0.00    -0.030 A 
ATOM     15  C   UNL     1      -0.809  -6.008   6.023  0.00  0.00    -0.042 A 
ATOM     16  C   UNL     1      -0.263  -5.685   7.256  0.00  0.00    +0.004 A 
ATOM     17  C   UNL     1       0.119  -6.176   4.847  0.00  0.00    +0.051 C 
ATOM     18  C   UNL     1      -0.596  -6.921   3.720  0.00  0.00    +0.089 C 
ATOM     19  N   UNL     1      -1.890  -6.264   3.473  0.00  0.00    -0.298 NA
ATOM     20  C   UNL     1      -2.812  -6.528   4.582  0.00  0.00    +0.119 C 
ENDBRANCH  10  19
ENDBRANCH   1  10
BRANCH   8  21
ATOM     21  C   UNL     1      -2.328  -4.205  -0.311  0.00  0.00    +0.088 C 
BRANCH  21  22
ATOM     22  N   UNL     1      -2.344  -2.745  -0.193  0.00  0.00    -0.328 N 
ATOM     23  H   UNL     1      -3.303  -2.205  -0.180  0.00  0.00    +0.148 HD
BRANCH  22  24
ATOM     24  C   UNL     1      -1.185  -2.064  -0.099  0.00  0.00    +0.134 C 
ATOM     25  S   UNL     1       0.306  -2.904  -0.118  0.00  0.00    -0.019 S 
BRANCH  24  26
ATOM     26  N   UNL     1      -1.200  -0.721   0.010  0.00  0.00    -0.297 N 
ATOM     27  H   UNL     1      -2.157  -0.188   0.114  0.00  0.00    +0.154 HD
BRANCH  26  28
ATOM     28  C   UNL     1       0.001  -0.003  -0.009  0.00  0.00    +0.033 A 
ATOM     29  C   UNL     1       0.194   1.054   0.871  0.00  0.00    +0.025 A 
ATOM     30  C   UNL     1       1.379   1.760   0.852  0.00  0.00    +0.029 A 
ATOM     31  C   UNL     1       2.379   1.416  -0.047  0.00  0.00    +0.065 A 
ATOM     32  C   UNL     1       2.187   0.359  -0.928  0.00  0.00    +0.029 A 
ATOM     33  C   UNL     1       1.002  -0.348  -0.909  0.00  0.00    +0.025 A 
BRANCH  31  34
ATOM     34  N   UNL     1       3.583   2.135  -0.067  0.00  0.00    -0.240 N 
ATOM     35  C   UNL     1       3.899   3.180   0.731  0.00  0.00    +0.114 A 
ATOM     36  C   UNL     1       5.145   3.590   0.398  0.00  0.00    +0.041 A 
ATOM     37  C   UNL     1       5.607   2.769  -0.637  0.00  0.00    +0.135 A 
ATOM     38  N   UNL     1       4.674   1.894  -0.913  0.00  0.00    -0.175 NA
ENDBRANCH  31  34
ENDBRANCH  26  28
ENDBRANCH  24  26
ENDBRANCH  22  24
ENDBRANCH  21  22
ENDBRANCH   8  21
TORSDOF 8
