REMARK  Name = ZINC02769501
REMARK  11 active torsions:
REMARK  status: ('A' for Active; 'I' for Inactive)
REMARK    1  A    between atoms: C_1  and  C_2
REMARK    2  A    between atoms: C_4  and  O_9
REMARK    3  A    between atoms: O_9  and  C_10
REMARK    4  A    between atoms: C_10  and  C_11
REMARK    5  A    between atoms: C_14  and  C_16
REMARK    6  A    between atoms: C_18  and  C_29
REMARK    7  A    between atoms: C_19  and  N_28
REMARK    8  A    between atoms: C_21  and  C_27
REMARK    9  A    between atoms: C_22  and  C_23
REMARK   10  A    between atoms: C_23  and  O_25
REMARK   11  A    between atoms: O_25  and  C_26
REMARK                            x       y       z     vdW  Elec       q    Type
REMARK                         _______ _______ _______ _____ _____    ______ ____
ROOT
ATOM      1  C   UNL     1      -1.810   2.704   3.546  0.00  0.00    +0.140 C 
ATOM      2  C   UNL     1      -2.664   2.534   4.773  0.00  0.00    +0.101 C 
ATOM      3  C   UNL     1      -2.188   1.886   5.864  0.00  0.00    +0.198 C 
ATOM      4  O   UNL     1      -0.945   1.375   5.898  0.00  0.00    -0.445 OA
ATOM      5  C   UNL     1      -0.294   1.155   4.747  0.00  0.00    +0.115 C 
ATOM      6  C   UNL     1      -0.645   1.754   3.601  0.00  0.00    +0.090 C 
ATOM      7  C   UNL     1       0.876   0.206   4.742  0.00  0.00    +0.087 C 
ENDROOT
BRANCH   1  11
ATOM      8  C   UNL     1      -0.265   5.978   4.028  0.00  0.00    +0.142 A 
ATOM      9  C   UNL     1      -0.870   6.198   2.846  0.00  0.00    +0.048 A 
ATOM     10  C   UNL     1      -1.531   4.999   2.495  0.00  0.00    +0.046 A 
ATOM     11  C   UNL     1      -1.298   4.121   3.486  0.00  0.00    +0.118 A 
ATOM     12  O   UNL     1      -0.528   4.718   4.410  0.00  0.00    -0.460 OA
BRANCH   8  13
ATOM     13  C   UNL     1       0.566   6.976   4.792  0.00  0.00    +0.303 C 
BRANCH  13  14
ATOM     14  O   UNL     1      -0.275   7.717   5.678  0.00  0.00    -0.484 OA
BRANCH  14  18
ATOM     15  C   UNL     1      -0.648  11.207   9.069  0.00  0.00    +0.045 C 
ATOM     16  C   UNL     1       0.174  10.385   8.110  0.00  0.00    -0.029 A 
ATOM     17  C   UNL     1      -0.435   9.422   7.329  0.00  0.00    +0.050 A 
ATOM     18  C   UNL     1       0.322   8.665   6.447  0.00  0.00    +0.121 A 
ATOM     19  C   UNL     1       1.690   8.874   6.354  0.00  0.00    +0.047 A 
ATOM     20  C   UNL     1       2.295   9.842   7.133  0.00  0.00    +0.024 A 
ATOM     21  C   UNL     1       1.538  10.596   8.013  0.00  0.00    +0.044 A 
ATOM     22 CL   UNL     1       2.300  11.807   8.995  0.00  0.00    -0.083 Cl
ENDBRANCH  14  18
ENDBRANCH  13  14
ENDBRANCH   8  13
ENDBRANCH   1  11
BRANCH   3  23
ATOM     23  N   UNL     1      -2.997   1.748   6.964  0.00  0.00    -0.328 N 
ATOM     24  H   UNL     1      -3.897   2.112   6.954  0.00  0.00    +0.145 HD
ATOM     25  H   UNL     1      -2.670   1.287   7.752  0.00  0.00    +0.145 HD
ENDBRANCH   3  23
BRANCH   6  26
ATOM     26  C   UNL     1       0.090   1.484   2.421  0.00  0.00    +0.339 C 
ATOM     27  O   UNL     1      -0.390   0.779   1.553  0.00  0.00    -0.245 OA
BRANCH  26  28
ATOM     28  O   UNL     1       1.323   2.008   2.259  0.00  0.00    -0.465 OA
ATOM     29  C   UNL     1       2.006   1.694   1.044  0.00  0.00    +0.280 C 
ENDBRANCH  26  28
ENDBRANCH   6  26
BRANCH   2  30
ATOM     30  C   UNL     1      -3.995   3.062   4.788  0.00  0.00    +0.101 C 
ATOM     31  N   UNL     1      -5.051   3.481   4.800  0.00  0.00    -0.191 NA
ENDBRANCH   2  30
TORSDOF 8
