REMARK  Name = ZINC40568865
REMARK  8 active torsions:
REMARK  status: ('A' for Active; 'I' for Inactive)
REMARK    1  A    between atoms: C_1  and  C_2
REMARK    2  A    between atoms: C_2  and  O_3
REMARK    3  A    between atoms: O_3  and  C_4
REMARK    4  A    between atoms: C_4  and  C_6
REMARK    5  A    between atoms: C_7  and  N_34
REMARK    6  A    between atoms: C_11  and  C_15
REMARK    7  A    between atoms: N_23  and  C_26
REMARK    8  A    between atoms: C_26  and  C_27
REMARK                            x       y       z     vdW  Elec       q    Type
REMARK                         _______ _______ _______ _____ _____    ______ ____
ROOT
ATOM      1  C   UNL     1       1.464  -2.116   2.518  0.00  0.00    +0.117 C 
ATOM      2  C   UNL     1       1.589  -3.462   2.635  0.00  0.00    +0.198 C 
ATOM      3  O   UNL     1       2.222  -4.067   3.659  0.00  0.00    -0.424 OA
ATOM      4  C   UNL     1       2.525  -3.320   4.750  0.00  0.00    +0.223 A 
ATOM      5  C   UNL     1       2.454  -1.954   4.752  0.00  0.00    +0.061 A 
ATOM      6  C   UNL     1       2.824  -1.506   6.012  0.00  0.00    +0.068 A 
ATOM      7  N   UNL     1       3.110  -2.553   6.750  0.00  0.00    -0.176 NA
ATOM      8  N   UNL     1       2.927  -3.706   5.971  0.00  0.00    -0.246 N 
ATOM      9  H   UNL     1       3.066  -4.621   6.264  0.00  0.00    +0.192 HD
ATOM     10  C   UNL     1       2.888  -0.067   6.456  0.00  0.00    +0.068 C 
ATOM     11  C   UNL     1       2.039  -1.170   3.537  0.00  0.00    +0.142 C 
ATOM     12  C   UNL     1       3.181  -0.390   2.971  0.00  0.00    -0.002 A 
ATOM     13  C   UNL     1       4.396  -0.788   2.456  0.00  0.00    +0.007 A 
ATOM     14  C   UNL     1       5.249   0.213   2.005  0.00  0.00    +0.000 A 
ATOM     15  C   UNL     1       4.893   1.545   2.070  0.00  0.00    +0.002 A 
ATOM     16  C   UNL     1       3.672   1.953   2.585  0.00  0.00    +0.024 A 
ATOM     17  C   UNL     1       2.807   0.958   3.042  0.00  0.00    +0.041 A 
ATOM     18  N   UNL     1       1.544   1.078   3.595  0.00  0.00    -0.265 N 
ATOM     19  C   UNL     1       1.016  -0.122   3.916  0.00  0.00    +0.240 C 
ATOM     20  O   UNL     1      -0.072  -0.322   4.413  0.00  0.00    -0.274 OA
ENDROOT
BRANCH   2  21
ATOM     21  N   UNL     1       1.041  -4.249   1.659  0.00  0.00    -0.329 N 
ATOM     22  H   UNL     1       0.650  -3.842   0.870  0.00  0.00    +0.145 HD
ATOM     23  H   UNL     1       1.044  -5.214   1.755  0.00  0.00    +0.145 HD
ENDBRANCH   2  21
BRANCH   1  24
ATOM     24  C   UNL     1       0.783  -1.590   1.411  0.00  0.00    +0.342 C 
ATOM     25  O   UNL     1       1.409  -1.096   0.489  0.00  0.00    -0.245 OA
BRANCH  24  26
ATOM     26  O   UNL     1      -0.566  -1.631   1.366  0.00  0.00    -0.462 OA
BRANCH  26  28
ATOM     27  C   UNL     1      -2.708  -1.195   0.336  0.00  0.00    +0.048 C 
ATOM     28  C   UNL     1      -1.188  -1.185   0.159  0.00  0.00    +0.229 C 
ENDBRANCH  26  28
ENDBRANCH  24  26
ENDBRANCH   1  24
BRANCH  18  29
ATOM     29  C   UNL     1       0.861   2.357   3.808  0.00  0.00    +0.148 C 
BRANCH  29  30
ATOM     30  C   UNL     1      -0.049   2.640   2.640  0.00  0.00    -0.030 A 
ATOM     31  C   UNL     1       0.455   3.244   1.503  0.00  0.00    +0.006 A 
ATOM     32  C   UNL     1      -0.379   3.505   0.432  0.00  0.00    +0.020 A 
ATOM     33  C   UNL     1      -1.718   3.161   0.498  0.00  0.00    +0.041 A 
ATOM     34  C   UNL     1      -2.221   2.556   1.636  0.00  0.00    +0.020 A 
ATOM     35  C   UNL     1      -1.385   2.291   2.705  0.00  0.00    +0.006 A 
ATOM     36 CL   UNL     1      -2.766   3.488  -0.847  0.00  0.00    -0.084 Cl
ENDBRANCH  29  30
ENDBRANCH  18  29
TORSDOF 6
