REMARK  Name = ZINC15856263
REMARK  8 active torsions:
REMARK  status: ('A' for Active; 'I' for Inactive)
REMARK    1  A    between atoms: C_1  and  C_2
REMARK    2  A    between atoms: C_7  and  N_8
REMARK    3  A    between atoms: N_8  and  C_9
REMARK    4  A    between atoms: C_9  and  N_11
REMARK    5  A    between atoms: C_12  and  C_14
REMARK    6  A    between atoms: C_15  and  C_16
REMARK    7  A    between atoms: C_20  and  N_22
REMARK    8  A    between atoms: N_26  and  C_28
REMARK                            x       y       z     vdW  Elec       q    Type
REMARK                         _______ _______ _______ _____ _____    ______ ____
ROOT
ATOM      1  N   UNL     1      -3.638  10.102   0.089  0.00  0.00    -0.296 N 
ATOM      2  H   UNL     1      -4.211   9.587   0.677  0.00  0.00    +0.154 HD
ENDROOT
BRANCH   1   9
ATOM      3  C   UNL     1      -6.110  11.440   0.316  0.00  0.00    +0.046 C 
ATOM      4  C   UNL     1      -4.811  12.203   0.304  0.00  0.00    -0.027 A 
ATOM      5  C   UNL     1      -4.837  13.556   0.405  0.00  0.00    +0.037 A 
ATOM      6  C   UNL     1      -3.630  14.277   0.394  0.00  0.00    +0.114 A 
ATOM      7  C   UNL     1      -2.363  13.539   0.273  0.00  0.00    +0.115 A 
ATOM      8  C   UNL     1      -2.401  12.138   0.178  0.00  0.00    +0.055 A 
ATOM      9  C   UNL     1      -3.606  11.497   0.189  0.00  0.00    +0.038 A 
ATOM     10  N   UNL     1      -1.425  14.474   0.292  0.00  0.00    -0.147 NA
ATOM     11  N   UNL     1      -1.989  15.626   0.406  0.00  0.00    -0.149 N 
ATOM     12  N   UNL     1      -3.272  15.550   0.469  0.00  0.00    -0.147 NA
BRANCH  11  13
ATOM     13  C   UNL     1      -1.281  16.834   0.457  0.00  0.00    +0.086 A 
ATOM     14  C   UNL     1      -1.965  18.037   0.575  0.00  0.00    +0.029 A 
ATOM     15  C   UNL     1      -1.264  19.225   0.630  0.00  0.00    +0.002 A 
ATOM     16  C   UNL     1       0.117  19.219   0.557  0.00  0.00    +0.000 A 
ATOM     17  C   UNL     1       0.801  18.023   0.434  0.00  0.00    +0.002 A 
ATOM     18  C   UNL     1       0.106  16.831   0.384  0.00  0.00    +0.029 A 
ENDBRANCH  11  13
ENDBRANCH   1   9
BRANCH   1  19
ATOM     19  C   UNL     1      -2.872   9.474  -0.825  0.00  0.00    +0.141 C 
ATOM     20  S   UNL     1      -1.967  10.387  -1.957  0.00  0.00    -0.018 S 
BRANCH  19  21
ATOM     21  N   UNL     1      -2.818   8.128  -0.849  0.00  0.00    -0.264 N 
ATOM     22  C   UNL     1      -2.053   7.500  -1.763  0.00  0.00    +0.242 C 
ATOM     23  O   UNL     1      -1.410   8.148  -2.567  0.00  0.00    -0.270 OA
ATOM     24  H   UNL     1      -3.331   7.611  -0.208  0.00  0.00    +0.157 HD
BRANCH  22  25
ATOM     25  C   UNL     1      -1.994   6.038  -1.789  0.00  0.00    +0.068 C 
ATOM     26  C   UNL     1      -1.228   5.410  -2.704  0.00  0.00    +0.013 C 
BRANCH  26  27
ATOM     27  C   UNL     1      -1.169   3.939  -2.729  0.00  0.00    -0.023 A 
ATOM     28  C   UNL     1      -1.906   3.190  -1.807  0.00  0.00    +0.008 A 
ATOM     29  C   UNL     1      -1.850   1.813  -1.840  0.00  0.00    +0.003 A 
ATOM     30  C   UNL     1      -1.058   1.172  -2.777  0.00  0.00    +0.033 A 
ATOM     31  C   UNL     1      -0.326   1.906  -3.694  0.00  0.00    +0.127 A 
ATOM     32  C   UNL     1      -0.376   3.284  -3.676  0.00  0.00    +0.040 A 
BRANCH  31  33
ATOM     33  N   UNL     1       0.513   1.210  -4.696  0.00  0.00    +0.056 N 
ATOM     34  O   UNL     1       0.558  -0.007  -4.713  0.00  0.00    -0.126 OA
ATOM     35  O   UNL     1       1.158   1.855  -5.503  0.00  0.00    -0.126 OA
ENDBRANCH  31  33
ENDBRANCH  26  27
ENDBRANCH  22  25
ENDBRANCH  19  21
ENDBRANCH   1  19
TORSDOF 7
