REMARK  Name = ZINC18137320
REMARK  4 active torsions:
REMARK  status: ('A' for Active; 'I' for Inactive)
REMARK    1  A    between atoms: C_1  and  C_2
REMARK    2  A    between atoms: C_2  and  C_12
REMARK    3  A    between atoms: N_3  and  C_4
REMARK    4  A    between atoms: C_13  and  C_28
REMARK                            x       y       z     vdW  Elec       q    Type
REMARK                         _______ _______ _______ _____ _____    ______ ____
ROOT
ATOM      1  C   UNL     1       0.025  -0.634  -1.321  0.00  0.00    +0.091 A 
ATOM      2  C   UNL     1       0.073   0.010  -2.542  0.00  0.00    +0.150 A 
ATOM      3  N   UNL     1       0.079  -0.928  -3.519  0.00  0.00    -0.284 N 
ATOM      4  H   UNL     1       0.110  -0.741  -4.471  0.00  0.00    +0.187 HD
ATOM      5  N   UNL     1       0.036  -2.204  -2.951  0.00  0.00    -0.194 N 
ATOM      6  C   UNL     1       0.008  -2.077  -1.608  0.00  0.00    +0.283 A 
ATOM      7  O   UNL     1      -0.028  -2.981  -0.794  0.00  0.00    -0.265 OA
ATOM      8  C   UNL     1       0.029  -3.399  -3.650  0.00  0.00    +0.196 A 
ATOM      9  N   UNL     1      -0.017  -4.625  -3.183  0.00  0.00    -0.221 NA
ATOM     10  C   UNL     1      -0.018  -5.709  -3.989  0.00  0.00    +0.081 A 
ATOM     11  C   UNL     1      -0.064  -7.073  -3.618  0.00  0.00    +0.029 A 
ATOM     12  C   UNL     1      -0.058  -8.058  -4.571  0.00  0.00    +0.002 A 
ATOM     13  C   UNL     1      -0.006  -7.758  -5.924  0.00  0.00    +0.001 A 
ATOM     14  C   UNL     1       0.039  -6.434  -6.323  0.00  0.00    +0.017 A 
ATOM     15  C   UNL     1       0.033  -5.441  -5.376  0.00  0.00    +0.041 A 
ATOM     16  S   UNL     1       0.072  -3.665  -5.416  0.00  0.00    -0.048 S 
ENDROOT
BRANCH   2  17
ATOM     17  C   UNL     1       0.110   1.502  -2.751  0.00  0.00    +0.434 C 
ATOM     18  F   UNL     1       0.204   2.144  -1.512  0.00  0.00    -0.164 F 
ATOM     19  F   UNL     1       1.221   1.835  -3.535  0.00  0.00    -0.164 F 
ATOM     20  F   UNL     1      -1.059   1.911  -3.401  0.00  0.00    -0.164 F 
ENDBRANCH   2  17
BRANCH   1  22
ATOM     21  C   UNL     1       1.294   0.387   0.673  0.00  0.00    +0.066 C 
ATOM     22  C   UNL     1       0.003  -0.004   0.002  0.00  0.00    +0.053 C 
ATOM     23  N   UNL     1      -1.137   0.219   0.600  0.00  0.00    -0.252 NA
BRANCH  23  24
ATOM     24  C   UNL     1      -1.159   0.808   1.836  0.00  0.00    +0.066 A 
ATOM     25  C   UNL     1      -0.270   0.387   2.828  0.00  0.00    +0.030 A 
ATOM     26  C   UNL     1      -0.296   0.983   4.071  0.00  0.00    +0.042 A 
ATOM     27  C   UNL     1      -1.200   1.998   4.338  0.00  0.00    +0.142 A 
ATOM     28  C   UNL     1      -2.085   2.420   3.357  0.00  0.00    +0.078 A 
ATOM     29  C   UNL     1      -2.064   1.835   2.107  0.00  0.00    +0.050 A 
ATOM     30 CL   UNL     1      -3.216   3.693   3.700  0.00  0.00    -0.081 Cl
ATOM     31  F   UNL     1      -1.220   2.579   5.558  0.00  0.00    -0.204 F 
ENDBRANCH  23  24
ENDBRANCH   1  22
TORSDOF 3
