REMARK  Name = ZINC23265985
REMARK  8 active torsions:
REMARK  status: ('A' for Active; 'I' for Inactive)
REMARK    1  A    between atoms: C_2  and  C_3
REMARK    2  A    between atoms: C_3  and  N_4
REMARK    3  A    between atoms: C_5  and  C_7
REMARK    4  A    between atoms: C_7  and  N_8
REMARK    5  A    between atoms: N_11  and  C_14
REMARK    6  A    between atoms: C_14  and  C_15
REMARK    7  A    between atoms: C_18  and  C_28
REMARK    8  A    between atoms: C_21  and  C_23
REMARK                            x       y       z     vdW  Elec       q    Type
REMARK                         _______ _______ _______ _____ _____    ______ ____
ROOT
ATOM      1  C   UNL     1      -6.129  -1.716  -2.304  0.00  0.00    +0.249 C 
ATOM      2  O   UNL     1      -5.396  -1.355  -3.201  0.00  0.00    -0.272 OA
ATOM      3  N   UNL     1      -7.087  -2.633  -2.543  0.00  0.00    -0.184 N 
ATOM      4  C   UNL     1      -7.355  -3.271  -3.841  0.00  0.00    +0.143 C 
ATOM      5  C   UNL     1      -8.532  -4.220  -3.543  0.00  0.00    +0.088 C 
ATOM      6  C   UNL     1      -8.814  -4.002  -2.074  0.00  0.00    +0.075 C 
ATOM      7  N   UNL     1      -7.989  -3.127  -1.603  0.00  0.00    -0.180 NA
ENDROOT
BRANCH   6   8
ATOM      8  C   UNL     1      -9.863  -4.678  -1.303  0.00  0.00    +0.035 A 
ATOM      9  C   UNL     1     -10.189  -4.539   0.035  0.00  0.00    +0.017 A 
ATOM     10  C   UNL     1     -11.226  -5.291   0.536  0.00  0.00    +0.008 A 
ATOM     11  C   UNL     1     -11.892  -6.140  -0.290  0.00  0.00    +0.046 A 
ATOM     12  S   UNL     1     -11.056  -5.889  -1.847  0.00  0.00    -0.095 S 
ENDBRANCH   6   8
BRANCH   4  13
ATOM     13  C   UNL     1      -7.748  -2.241  -4.868  0.00  0.00    +0.013 A 
ATOM     14  C   UNL     1      -7.419  -2.176  -6.182  0.00  0.00    +0.013 A 
ATOM     15  C   UNL     1      -7.901  -1.126  -6.942  0.00  0.00    +0.008 A 
ATOM     16  C   UNL     1      -8.687  -0.193  -6.351  0.00  0.00    +0.045 A 
ATOM     17  S   UNL     1      -8.773  -0.792  -4.672  0.00  0.00    -0.100 S 
ENDBRANCH   4  13
BRANCH   1  18
ATOM     18  C   UNL     1      -5.969  -1.137  -0.921  0.00  0.00    +0.182 C 
BRANCH  18  22
ATOM     19  N   UNL     1      -2.433   0.975   0.019  0.00  0.00    +0.387 N 
ATOM     20  C   UNL     1      -2.469   0.218  -1.240  0.00  0.00    -0.063 C 
ATOM     21  C   UNL     1      -3.579  -0.833  -1.169  0.00  0.00    +0.066 C 
ATOM     22  N   UNL     1      -4.866  -0.167  -0.921  0.00  0.00    -0.298 NA
ATOM     23  C   UNL     1      -4.830   0.590   0.338  0.00  0.00    +0.066 C 
ATOM     24  C   UNL     1      -3.719   1.641   0.267  0.00  0.00    -0.063 C 
ATOM     25  H   UNL     1      -2.256   0.262   0.838  0.00  0.00    -0.081 HD
BRANCH  19  26
ATOM     26  C   UNL     1      -1.330   1.944   0.019  0.00  0.00    +0.019 C 
BRANCH  26  28
ATOM     27  N   UNL     1       1.143   1.898   0.001  0.00  0.00    -0.313 N 
ATOM     28  C   UNL     1      -0.014   1.209   0.009  0.00  0.00    +0.197 C 
ATOM     29  O   UNL     1       0.002  -0.004   0.002  0.00  0.00    -0.278 OA
ATOM     30  H   UNL     1       1.129   2.998   0.007  0.00  0.00    +0.149 HD
BRANCH  27  31
ATOM     31  C   UNL     1       2.422   1.183  -0.015  0.00  0.00    +0.131 C 
BRANCH  31  33
ATOM     32  C   UNL     1       4.484   2.116   0.900  0.00  0.00    +0.005 C 
ATOM     33  C   UNL     1       3.554   2.178  -0.020  0.00  0.00    -0.016 C 
ENDBRANCH  31  33
ENDBRANCH  27  31
ENDBRANCH  26  28
ENDBRANCH  19  26
ENDBRANCH  18  22
ENDBRANCH   1  18
TORSDOF 8
