REMARK  Name = ZINC36648095
REMARK  11 active torsions:
REMARK  status: ('A' for Active; 'I' for Inactive)
REMARK    1  A    between atoms: C_1  and  C_2
REMARK    2  A    between atoms: C_5  and  O_34
REMARK    3  A    between atoms: N_11  and  C_12
REMARK    4  A    between atoms: C_12  and  C_13
REMARK    5  A    between atoms: C_13  and  N_14
REMARK    6  A    between atoms: N_14  and  C_15
REMARK    7  A    between atoms: N_14  and  C_16
REMARK    8  A    between atoms: C_17  and  C_19
REMARK    9  A    between atoms: N_25  and  S_26
REMARK   10  A    between atoms: S_26  and  C_29
REMARK   11  A    between atoms: O_34  and  C_35
REMARK                            x       y       z     vdW  Elec       q    Type
REMARK                         _______ _______ _______ _____ _____    ______ ____
ROOT
ATOM      1  C   UNL     1       0.066   1.110  -0.064  0.00  0.00    +0.045 C 
ATOM      2  C   UNL     1       0.191  -0.391  -0.036  0.00  0.00    -0.034 A 
ATOM      3  C   UNL     1       0.266  -1.104  -1.218  0.00  0.00    +0.008 A 
ATOM      4  C   UNL     1       0.381  -2.486  -1.173  0.00  0.00    +0.048 A 
ATOM      5  C   UNL     1       0.422  -3.164   0.023  0.00  0.00    +0.147 A 
ATOM      6  C   UNL     1       0.347  -2.463   1.253  0.00  0.00    +0.122 A 
ATOM      7  C   UNL     1       0.237  -1.058   1.165  0.00  0.00    +0.047 A 
ATOM      8  S   UNL     1       0.182  -0.574   2.873  0.00  0.00    -0.051 S 
ATOM      9  C   UNL     1       0.314  -2.213   3.575  0.00  0.00    +0.168 A 
ATOM     10  N   UNL     1       0.373  -2.971   2.506  0.00  0.00    -0.221 NA
ATOM     11  N   UNL     1       0.334  -2.588   4.909  0.00  0.00    -0.251 N 
ATOM     12  C   UNL     1       0.248  -1.652   5.874  0.00  0.00    +0.240 C 
ATOM     13  O   UNL     1       0.066  -0.490   5.577  0.00  0.00    -0.273 OA
ENDROOT
BRANCH  12  14
ATOM     14  C   UNL     1       0.377  -2.048   7.322  0.00  0.00    +0.166 C 
ATOM     15  C   UNL     1      -0.943  -1.774   8.050  0.00  0.00    +0.030 C 
ATOM     16  C   UNL     1      -0.763  -2.047   9.545  0.00  0.00    +0.003 C 
ATOM     17  C   UNL     1       0.304  -1.108  10.111  0.00  0.00    +0.017 C 
ATOM     18  C   UNL     1       1.638  -1.374   9.408  0.00  0.00    +0.110 C 
ATOM     19  N   UNL     1       1.442  -1.258   7.956  0.00  0.00    -0.164 NA
BRANCH  19  20
ATOM     20  S   UNL     1       2.399  -0.254   7.052  0.00  0.00    +0.068 S 
ATOM     21  O   UNL     1       3.621  -0.110   7.762  0.00  0.00    -0.152 OA
ATOM     22  O   UNL     1       2.345  -0.735   5.716  0.00  0.00    -0.152 OA
BRANCH  20  23
ATOM     23  C   UNL     1       1.631   1.332   7.046  0.00  0.00    +0.143 A 
ATOM     24  C   UNL     1       1.802   2.367   7.905  0.00  0.00    +0.036 A 
ATOM     25  C   UNL     1       1.085   3.531   7.703  0.00  0.00    +0.010 A 
ATOM     26  C   UNL     1       0.231   3.604   6.653  0.00  0.00    +0.047 A 
ATOM     27  S   UNL     1       0.430   1.996   5.903  0.00  0.00    -0.077 S 
ENDBRANCH  20  23
ENDBRANCH  19  20
ENDBRANCH  12  14
BRANCH   5  28
ATOM     28  O   UNL     1       0.534  -4.518   0.025  0.00  0.00    -0.493 OA
ATOM     29  C   UNL     1       0.605  -5.166  -1.247  0.00  0.00    +0.277 C 
ENDBRANCH   5  28
BRANCH  11  30
ATOM     30  C   UNL     1       0.450  -4.003   5.270  0.00  0.00    +0.097 C 
BRANCH  30  31
ATOM     31  C   UNL     1       1.927  -4.395   5.334  0.00  0.00    -0.060 C 
BRANCH  31  32
ATOM     32  N   UNL     1       2.043  -5.814   5.696  0.00  0.00    +0.377 N 
ATOM     33  C   UNL     1       1.468  -6.640   4.626  0.00  0.00    -0.097 C 
ATOM     34  C   UNL     1       3.459  -6.160   5.874  0.00  0.00    -0.097 C 
ATOM     35  H   UNL     1       1.544  -5.983   6.556  0.00  0.00    -0.083 HD
ENDBRANCH  31  32
ENDBRANCH  30  31
ENDBRANCH  11  30
TORSDOF 7
