REMARK  Name = ZINC09938129
REMARK  7 active torsions:
REMARK  status: ('A' for Active; 'I' for Inactive)
REMARK    1  A    between atoms: C_1  and  C_2
REMARK    2  A    between atoms: C_9  and  C_13
REMARK    3  A    between atoms: C_9  and  C_14
REMARK    4  A    between atoms: C_11  and  C_12
REMARK    5  A    between atoms: C_15  and  C_17
REMARK    6  A    between atoms: C_17  and  S_18
REMARK    7  A    between atoms: S_18  and  C_19
REMARK                            x       y       z     vdW  Elec       q    Type
REMARK                         _______ _______ _______ _____ _____    ______ ____
ROOT
ATOM      1  C   UNL     1       0.107   1.635  -0.037  0.00  0.00    +0.046 C 
ATOM      2  C   UNL     1      -0.302   0.185  -0.080  0.00  0.00    -0.028 A 
ATOM      3  C   UNL     1      -0.728  -0.382  -1.269  0.00  0.00    +0.005 A 
ATOM      4  C   UNL     1      -1.105  -1.713  -1.315  0.00  0.00    +0.001 A 
ATOM      5  C   UNL     1      -1.060  -2.494  -0.177  0.00  0.00    +0.010 A 
ATOM      6  C   UNL     1      -0.633  -1.935   1.023  0.00  0.00    -0.001 A 
ATOM      7  C   UNL     1      -0.250  -0.585   1.065  0.00  0.00    +0.047 A 
ATOM      8  N   UNL     1       0.169  -0.056   2.291  0.00  0.00    -0.261 N 
ATOM      9  C   UNL     1      -0.400  -0.618   3.523  0.00  0.00    +0.055 C 
ATOM     10  C   UNL     1      -0.439  -2.120   3.432  0.00  0.00    +0.002 C 
ATOM     11  C   UNL     1      -0.564  -2.731   2.264  0.00  0.00    -0.043 C 
ATOM     12  C   UNL     1      -0.616  -4.236   2.203  0.00  0.00    +0.044 C 
ATOM     13  C   UNL     1      -1.821  -0.084   3.716  0.00  0.00    +0.036 C 
ATOM     14  C   UNL     1       0.463  -0.203   4.716  0.00  0.00    +0.036 C 
ATOM     15  C   UNL     1       1.071   0.945   2.340  0.00  0.00    +0.231 C 
ATOM     16  O   UNL     1       1.700   1.242   1.347  0.00  0.00    -0.274 OA
ENDROOT
BRANCH  15  17
ATOM     17  C   UNL     1       1.296   1.693   3.628  0.00  0.00    +0.173 C 
BRANCH  17  18
ATOM     18  S   UNL     1       2.387   3.110   3.321  0.00  0.00    -0.075 S 
BRANCH  18  19
ATOM     19  C   UNL     1       2.552   3.871   4.902  0.00  0.00    +0.210 A 
ATOM     20  H   UNL     1       2.123   4.305   7.961  0.00  0.00    +0.192 HD
ATOM     21  N   UNL     1       3.274   4.966   5.165  0.00  0.00    -0.188 NA
ATOM     22  C   UNL     1       3.177   5.262   6.444  0.00  0.00    +0.209 A 
ATOM     23  N   UNL     1       2.377   4.344   7.025  0.00  0.00    -0.246 N 
ATOM     24  N   UNL     1       1.982   3.460   6.009  0.00  0.00    -0.144 NA
ATOM     25  N   UNL     1       3.789   6.327   7.080  0.00  0.00    -0.328 N 
ATOM     26  H   UNL     1       4.349   6.937   6.575  0.00  0.00    +0.145 HD
ATOM     27  H   UNL     1       3.657   6.464   8.031  0.00  0.00    +0.145 HD
ENDBRANCH  18  19
ENDBRANCH  17  18
ENDBRANCH  15  17
TORSDOF 3
