REMARK  Name = ZINC20856868
REMARK  7 active torsions:
REMARK  status: ('A' for Active; 'I' for Inactive)
REMARK    1  A    between atoms: C_1  and  C_2
REMARK    2  A    between atoms: C_2  and  N_3
REMARK    3  A    between atoms: C_12  and  S_13
REMARK    4  A    between atoms: S_13  and  C_14
REMARK    5  A    between atoms: C_14  and  C_15
REMARK    6  A    between atoms: N_17  and  C_18
REMARK    7  A    between atoms: C_27  and  C_31
REMARK                            x       y       z     vdW  Elec       q    Type
REMARK                         _______ _______ _______ _____ _____    ______ ____
ROOT
ATOM      1  N   UNL     1      -0.055   1.119   2.481  0.00  0.00    -0.288 N 
ATOM      2  C   UNL     1      -0.411  -0.059   3.026  0.00  0.00    +0.263 A 
ATOM      3  O   UNL     1      -1.313  -0.718   2.538  0.00  0.00    -0.267 OA
ATOM      4  C   UNL     1       0.287  -0.529   4.183  0.00  0.00    +0.076 A 
ATOM      5  C   UNL     1       0.073  -1.771   4.929  0.00  0.00    -0.023 A 
ATOM      6  C   UNL     1       0.865  -1.986   5.999  0.00  0.00    -0.004 A 
ATOM      7  S   UNL     1       1.928  -0.569   6.078  0.00  0.00    -0.073 S 
ATOM      8  C   UNL     1       1.304   0.310   4.667  0.00  0.00    +0.117 A 
ATOM      9  N   UNL     1       1.603   1.466   4.086  0.00  0.00    -0.216 NA
ATOM     10  C   UNL     1       0.948   1.873   3.017  0.00  0.00    +0.173 A 
ATOM     11  C   UNL     1       0.847  -3.168   6.919  0.00  0.00    +0.046 C 
ATOM     12  C   UNL     1       0.038  -4.289   6.252  0.00  0.00    -0.009 C 
ATOM     13  C   UNL     1      -1.274  -3.701   5.725  0.00  0.00    +0.008 C 
ATOM     14  C   UNL     1      -0.992  -2.788   4.531  0.00  0.00    +0.037 C 
ATOM     15  C   UNL     1      -0.265  -5.384   7.276  0.00  0.00    +0.008 C 
ENDROOT
BRANCH   1  17
ATOM     16  C   UNL     1      -0.051   1.099   0.035  0.00  0.00    +0.027 C 
ATOM     17  C   UNL     1      -0.762   1.604   1.293  0.00  0.00    +0.124 C 
ENDBRANCH   1  17
BRANCH  10  18
ATOM     18  S   UNL     1       1.373   3.411   2.271  0.00  0.00    -0.078 S 
BRANCH  18  19
ATOM     19  C   UNL     1       2.711   3.936   3.371  0.00  0.00    +0.173 C 
BRANCH  19  20
ATOM     20  C   UNL     1       3.246   5.268   2.913  0.00  0.00    +0.228 C 
ATOM     21  O   UNL     1       2.769   5.810   1.939  0.00  0.00    -0.275 OA
ATOM     22  N   UNL     1       4.253   5.858   3.587  0.00  0.00    -0.283 N 
ATOM     23  H   UNL     1       4.637   5.403   4.512  0.00  0.00    +0.155 HD
BRANCH  22  24
ATOM     24  C   UNL     1       4.813   7.050   3.108  0.00  0.00    +0.069 A 
ATOM     25  C   UNL     1       4.012   7.986   2.469  0.00  0.00    +0.029 A 
ATOM     26  C   UNL     1       4.565   9.161   1.998  0.00  0.00    +0.040 A 
ATOM     27  C   UNL     1       5.918   9.406   2.162  0.00  0.00    +0.126 A 
ATOM     28  C   UNL     1       6.720   8.475   2.798  0.00  0.00    +0.078 A 
ATOM     29  C   UNL     1       6.170   7.300   3.277  0.00  0.00    +0.147 A 
ATOM     30  F   UNL     1       6.952   6.393   3.903  0.00  0.00    -0.203 F 
ATOM     31  F   UNL     1       6.456  10.556   1.700  0.00  0.00    -0.205 F 
ENDBRANCH  22  24
ENDBRANCH  19  20
ENDBRANCH  18  19
ENDBRANCH  10  18
TORSDOF 5
