REMARK  Name = ZINC09836166
REMARK  9 active torsions:
REMARK  status: ('A' for Active; 'I' for Inactive)
REMARK    1  A    between atoms: C_1  and  C_2
REMARK    2  A    between atoms: C_2  and  O_3
REMARK    3  A    between atoms: O_3  and  C_4
REMARK    4  A    between atoms: C_7  and  N_10
REMARK    5  A    between atoms: C_20  and  C_21
REMARK    6  A    between atoms: C_20  and  O_32
REMARK    7  A    between atoms: N_23  and  C_24
REMARK    8  A    between atoms: C_24  and  C_25
REMARK    9  A    between atoms: C_25  and  C_26
REMARK                            x       y       z     vdW  Elec       q    Type
REMARK                         _______ _______ _______ _____ _____    ______ ____
ROOT
ATOM      1  N   UNL     1      -2.239   1.052   3.738  0.00  0.00    -0.214 N 
ATOM      2  C   UNL     1      -3.174   1.804   4.347  0.00  0.00    +0.314 C 
ATOM      3  O   UNL     1      -4.089   1.241   4.918  0.00  0.00    -0.252 OA
ATOM      4  N   UNL     1      -3.145   3.143   4.354  0.00  0.00    -0.269 N 
ATOM      5  C   UNL     1      -2.142   3.883   3.729  0.00  0.00    +0.043 A 
ATOM      6  C   UNL     1      -2.157   5.271   3.765  0.00  0.00    +0.024 A 
ATOM      7  C   UNL     1      -1.155   5.987   3.139  0.00  0.00    +0.002 A 
ATOM      8  C   UNL     1      -0.135   5.328   2.477  0.00  0.00    +0.001 A 
ATOM      9  C   UNL     1      -0.115   3.944   2.439  0.00  0.00    +0.010 A 
ATOM     10  C   UNL     1      -1.112   3.229   3.061  0.00  0.00    +0.033 A 
ATOM     11  C   UNL     1      -1.125   1.718   3.041  0.00  0.00    +0.247 C 
ATOM     12  H   UNL     1      -3.854   3.619   4.814  0.00  0.00    +0.156 HD
ENDROOT
BRANCH   1  16
ATOM     13  C   UNL     1      -2.494  -3.109   3.820  0.00  0.00    +0.121 A 
ATOM     14  C   UNL     1      -1.722  -2.443   4.761  0.00  0.00    +0.047 A 
ATOM     15  C   UNL     1      -1.638  -1.065   4.734  0.00  0.00    +0.027 A 
ATOM     16  C   UNL     1      -2.325  -0.346   3.765  0.00  0.00    +0.042 A 
ATOM     17  C   UNL     1      -3.101  -1.013   2.827  0.00  0.00    +0.027 A 
ATOM     18  C   UNL     1      -3.181  -2.392   2.852  0.00  0.00    +0.047 A 
BRANCH  13  19
ATOM     19  O   UNL     1      -2.577  -4.466   3.847  0.00  0.00    -0.492 OA
BRANCH  19  21
ATOM     20  C   UNL     1      -3.360  -6.604   3.038  0.00  0.00    +0.048 C 
ATOM     21  C   UNL     1      -3.389  -5.086   2.849  0.00  0.00    +0.225 C 
ENDBRANCH  19  21
ENDBRANCH  13  19
ENDBRANCH   1  16
BRANCH  11  22
ATOM     22  C   UNL     1      -1.145   1.272   1.602  0.00  0.00    +0.269 C 
ATOM     23  O   UNL     1      -0.246   0.584   1.168  0.00  0.00    -0.270 OA
ATOM     24  N   UNL     1      -2.161   1.639   0.796  0.00  0.00    -0.311 N 
ATOM     25  H   UNL     1      -2.880   2.190   1.143  0.00  0.00    +0.149 HD
BRANCH  24  26
ATOM     26  C   UNL     1      -2.180   1.206  -0.603  0.00  0.00    +0.108 C 
BRANCH  26  27
ATOM     27  C   UNL     1      -3.432   1.755  -1.290  0.00  0.00    +0.049 C 
BRANCH  27  28
ATOM     28  C   UNL     1      -3.451   1.309  -2.730  0.00  0.00    -0.072 C 
ATOM     29  C   UNL     1      -4.115   0.238  -3.024  0.00  0.00    -0.028 C 
ATOM     30  C   UNL     1      -4.222  -0.331  -4.409  0.00  0.00    +0.027 C 
ATOM     31  C   UNL     1      -3.811   0.718  -5.444  0.00  0.00    +0.004 C 
ATOM     32  C   UNL     1      -2.471   1.326  -5.013  0.00  0.00    +0.005 C 
ATOM     33  C   UNL     1      -2.695   2.131  -3.731  0.00  0.00    +0.030 C 
ENDBRANCH  27  28
ENDBRANCH  26  27
ENDBRANCH  24  26
ENDBRANCH  11  22
BRANCH  11  34
ATOM     34  O   UNL     1       0.096   1.259   3.624  0.00  0.00    -0.360 OA
ATOM     35  H   UNL     1       0.891   1.601   3.193  0.00  0.00    +0.213 HD
ENDBRANCH  11  34
TORSDOF 8
