REMARK  Name = ZINC39677037
REMARK  7 active torsions:
REMARK  status: ('A' for Active; 'I' for Inactive)
REMARK    1  A    between atoms: C_1  and  C_2
REMARK    2  A    between atoms: C_5  and  C_37
REMARK    3  A    between atoms: C_6  and  C_8
REMARK    4  A    between atoms: C_8  and  C_9
REMARK    5  A    between atoms: C_9  and  N_10
REMARK    6  A    between atoms: C_11  and  C_13
REMARK    7  A    between atoms: C_24  and  C_26
REMARK                            x       y       z     vdW  Elec       q    Type
REMARK                         _______ _______ _______ _____ _____    ______ ____
ROOT
ATOM      1  C   UNL     1       2.674  -5.133   6.019  0.00  0.00    +0.100 C 
ATOM      2  C   UNL     1       1.822  -6.413   5.865  0.00  0.00    +0.121 C 
ATOM      3  N   UNL     1       2.797  -7.471   5.508  0.00  0.00    -0.297 N 
ATOM      4  C   UNL     1       3.984  -7.176   6.346  0.00  0.00    +0.115 C 
ATOM      5  C   UNL     1       4.091  -5.638   6.339  0.00  0.00    -0.004 C 
ATOM      6  C   UNL     1       4.536  -5.133   7.708  0.00  0.00    -0.010 C 
ATOM      7  C   UNL     1       5.970  -5.599   7.978  0.00  0.00    -0.082 C 
ATOM      8  N   UNL     1       6.860  -5.083   6.931  0.00  0.00    +0.379 N 
ATOM      9  C   UNL     1       6.482  -5.648   5.629  0.00  0.00    -0.082 C 
ATOM     10  C   UNL     1       5.070  -5.184   5.260  0.00  0.00    -0.010 C 
ATOM     11  C   UNL     1       2.639  -8.474   4.623  0.00  0.00    +0.260 C 
ATOM     12  O   UNL     1       1.639  -8.527   3.938  0.00  0.00    -0.271 OA
ATOM     13  H   UNL     1       6.786  -4.078   6.894  0.00  0.00    -0.086 HD
ATOM     14  H   UNL     1       7.812  -5.341   7.144  0.00  0.00    -0.086 HD
ENDROOT
BRANCH  11  15
ATOM     15  C   UNL     1       3.705  -9.530   4.483  0.00  0.00    +0.296 C 
ATOM     16  C   UNL     1       3.743 -10.397   5.749  0.00  0.00    +0.283 C 
ATOM     17  O   UNL     1       4.754 -11.396   5.578  0.00  0.00    -0.484 OA
ATOM     18  C   UNL     1       4.765 -12.058   4.388  0.00  0.00    +0.162 A 
ATOM     19  C   UNL     1       5.455 -13.257   4.282  0.00  0.00    +0.049 A 
ATOM     20  C   UNL     1       5.477 -13.938   3.080  0.00  0.00    +0.004 A 
ATOM     21  C   UNL     1       4.812 -13.428   1.981  0.00  0.00    +0.004 A 
ATOM     22  C   UNL     1       4.122 -12.235   2.080  0.00  0.00    +0.049 A 
ATOM     23  C   UNL     1       4.094 -11.546   3.284  0.00  0.00    +0.163 A 
ATOM     24  O   UNL     1       3.403 -10.376   3.368  0.00  0.00    -0.473 OA
ENDBRANCH  11  15
BRANCH   1  26
ATOM     25  N   UNL     1       2.799  -3.004   4.766  0.00  0.00    -0.315 N 
ATOM     26  C   UNL     1       2.675  -4.345   4.734  0.00  0.00    +0.218 C 
ATOM     27  O   UNL     1       2.565  -4.919   3.671  0.00  0.00    -0.275 OA
ATOM     28  H   UNL     1       2.887  -2.545   5.617  0.00  0.00    +0.149 HD
BRANCH  25  29
ATOM     29  C   UNL     1       2.800  -2.238   3.518  0.00  0.00    +0.109 C 
BRANCH  29  30
ATOM     30  C   UNL     1       2.952  -0.749   3.833  0.00  0.00    +0.054 C 
BRANCH  30  36
ATOM     31  C   UNL     1       5.457   1.480   0.117  0.00  0.00    +0.044 C 
ATOM     32  C   UNL     1       4.152   1.106   0.770  0.00  0.00    -0.050 A 
ATOM     33  C   UNL     1       2.955   1.485   0.192  0.00  0.00    +0.003 A 
ATOM     34  C   UNL     1       1.758   1.143   0.791  0.00  0.00    +0.004 A 
ATOM     35  C   UNL     1       1.757   0.419   1.969  0.00  0.00    -0.047 A 
ATOM     36  C   UNL     1       2.953   0.039   2.548  0.00  0.00    -0.043 A 
ATOM     37  C   UNL     1       4.151   0.378   1.946  0.00  0.00    +0.007 A 
ATOM     38  C   UNL     1       0.452   0.046   2.623  0.00  0.00    +0.044 C 
ENDBRANCH  30  36
ENDBRANCH  29  30
ENDBRANCH  25  29
ENDBRANCH   1  26
TORSDOF 5
