REMARK  Name = ZINC06409868
REMARK  12 active torsions:
REMARK  status: ('A' for Active; 'I' for Inactive)
REMARK    1  A    between atoms: C_1  and  C_2
REMARK    2  A    between atoms: C_7  and  C_14
REMARK    3  A    between atoms: C_14  and  C_16
REMARK    4  A    between atoms: C_14  and  N_67
REMARK    5  A    between atoms: N_20  and  C_21
REMARK    6  A    between atoms: C_21  and  C_22
REMARK    7  A    between atoms: C_22  and  O_23
REMARK    8  A    between atoms: O_23  and  C_24
REMARK    9  A    between atoms: C_25  and  C_26
REMARK   10  A    between atoms: C_25  and  N_67
REMARK   11  A    between atoms: C_32  and  C_33
REMARK   12  A    between atoms: C_32  and  N_67
REMARK                            x       y       z     vdW  Elec       q    Type
REMARK                         _______ _______ _______ _____ _____    ______ ____
ROOT
ATOM      1  C   UNL     1       2.623   0.280   0.863  0.00  0.00    +0.039 C 
ENDROOT
BRANCH   1   8
ATOM      2  C   UNL     1      -5.028   2.413   0.134  0.00  0.00    +0.044 C 
ATOM      3  C   UNL     1      -3.571   2.039   0.040  0.00  0.00    -0.048 A 
ATOM      4  C   UNL     1      -2.939   2.042  -1.196  0.00  0.00    +0.004 A 
ATOM      5  C   UNL     1      -1.620   1.707  -1.303  0.00  0.00    +0.010 A 
ATOM      6  C   UNL     1      -0.897   1.362  -0.156  0.00  0.00    -0.001 A 
ATOM      7  C   UNL     1       0.517   0.991  -0.235  0.00  0.00    +0.017 A 
ATOM      8  C   UNL     1       1.165   0.661   0.909  0.00  0.00    +0.011 A 
ATOM      9  C   UNL     1       0.480   0.673   2.143  0.00  0.00    +0.251 A 
ATOM     10  O   UNL     1       1.081   0.372   3.159  0.00  0.00    -0.268 OA
ATOM     11  N   UNL     1      -0.820   1.006   2.224  0.00  0.00    -0.322 N 
ATOM     12  H   UNL     1      -1.261   1.004   3.088  0.00  0.00    +0.169 HD
ATOM     13  C   UNL     1      -1.535   1.352   1.098  0.00  0.00    +0.049 A 
ATOM     14  C   UNL     1      -2.880   1.698   1.182  0.00  0.00    +0.029 A 
ENDBRANCH   1   8
BRANCH   1  15
ATOM     15  C   UNL     1       3.091   0.256  -0.569  0.00  0.00    +0.143 A 
ATOM     16  N   UNL     1       3.324   1.295  -1.333  0.00  0.00    -0.115 NA
ATOM     17  N   UNL     1       3.708   0.863  -2.485  0.00  0.00    -0.023 NA
ATOM     18  N   UNL     1       3.726  -0.424  -2.475  0.00  0.00    -0.044 NA
ATOM     19  N   UNL     1       3.357  -0.836  -1.310  0.00  0.00    -0.228 N 
BRANCH  19  20
ATOM     20  C   UNL     1       3.244  -2.231  -0.875  0.00  0.00    +0.175 C 
BRANCH  20  21
ATOM     21  C   UNL     1       1.835  -2.746  -1.172  0.00  0.00    +0.183 C 
BRANCH  21  22
ATOM     22  O   UNL     1       1.725  -4.106  -0.748  0.00  0.00    -0.381 OA
ATOM     23  C   UNL     1       0.440  -4.686  -0.981  0.00  0.00    +0.194 C 
ENDBRANCH  21  22
ENDBRANCH  20  21
ENDBRANCH  19  20
ENDBRANCH   1  15
BRANCH   1  24
ATOM     24  N   UNL     1       3.401   1.262   1.647  0.00  0.00    +0.395 N 
ATOM     25  H   UNL     1       3.075   1.245   2.621  0.00  0.00    -0.079 HD
BRANCH  24  26
ATOM     26  C   UNL     1       3.201   2.619   1.097  0.00  0.00    -0.041 C 
BRANCH  26  27
ATOM     27  C   UNL     1       1.994   3.232   1.760  0.00  0.00    -0.064 A 
ATOM     28  C   UNL     1       0.838   3.441   1.032  0.00  0.00    +0.002 A 
ATOM     29  C   UNL     1      -0.271   3.999   1.641  0.00  0.00    +0.000 A 
ATOM     30  C   UNL     1      -0.220   4.357   2.975  0.00  0.00    +0.000 A 
ATOM     31  C   UNL     1       0.939   4.153   3.702  0.00  0.00    +0.000 A 
ATOM     32  C   UNL     1       2.046   3.591   3.094  0.00  0.00    +0.002 A 
ENDBRANCH  26  27
ENDBRANCH  24  26
BRANCH  24  33
ATOM     33  C   UNL     1       4.836   0.910   1.615  0.00  0.00    -0.041 C 
BRANCH  33  34
ATOM     34  C   UNL     1       5.550   1.692   2.687  0.00  0.00    -0.064 A 
ATOM     35  C   UNL     1       6.209   2.864   2.365  0.00  0.00    +0.003 A 
ATOM     36  C   UNL     1       6.859   3.585   3.349  0.00  0.00    +0.020 A 
ATOM     37  C   UNL     1       6.861   3.127   4.654  0.00  0.00    +0.041 A 
ATOM     38  C   UNL     1       6.206   1.951   4.975  0.00  0.00    +0.020 A 
ATOM     39  C   UNL     1       5.551   1.235   3.991  0.00  0.00    +0.003 A 
ATOM     40 CL   UNL     1       7.683   4.028   5.889  0.00  0.00    -0.084 Cl
ENDBRANCH  33  34
ENDBRANCH  24  33
ENDBRANCH   1  24
TORSDOF 10
