REMARK  Name = ZINC63504450
REMARK  11 active torsions:
REMARK  status: ('A' for Active; 'I' for Inactive)
REMARK    1  A    between atoms: C_1  and  C_2
REMARK    2  A    between atoms: C_2  and  C_3
REMARK    3  A    between atoms: C_2  and  C_4
REMARK    4  A    between atoms: C_4  and  N_5
REMARK    5  A    between atoms: C_6  and  N_30
REMARK    6  A    between atoms: C_7  and  C_14
REMARK    7  A    between atoms: C_14  and  C_16
REMARK    8  A    between atoms: C_16  and  N_17
REMARK    9  A    between atoms: N_17  and  C_18
REMARK   10  A    between atoms: N_17  and  C_21
REMARK   11  A    between atoms: C_18  and  C_19
REMARK                            x       y       z     vdW  Elec       q    Type
REMARK                         _______ _______ _______ _____ _____    ______ ____
ROOT
ATOM      1  N   UNL     1      -2.134  -1.964   0.170  0.00  0.00    -0.281 N 
ATOM      2  C   UNL     1      -2.076  -2.502  -1.085  0.00  0.00    +0.116 A 
ATOM      3  C   UNL     1      -1.849  -3.882  -1.223  0.00  0.00    +0.121 A 
ATOM      4  C   UNL     1      -1.686  -4.677   0.001  0.00  0.00    +0.266 A 
ATOM      5  O   UNL     1      -1.488  -5.876  -0.059  0.00  0.00    -0.267 OA
ATOM      6  N   UNL     1      -1.761  -4.050   1.193  0.00  0.00    -0.274 N 
ATOM      7  H   UNL     1      -1.655  -4.562   2.010  0.00  0.00    +0.173 HD
ATOM      8  C   UNL     1      -1.974  -2.726   1.263  0.00  0.00    +0.331 A 
ATOM      9  O   UNL     1      -2.030  -2.199   2.357  0.00  0.00    -0.246 OA
ENDROOT
BRANCH   2  10
ATOM     10  N   UNL     1      -2.235  -1.714  -2.183  0.00  0.00    -0.344 N 
ATOM     11  H   UNL     1      -2.471  -0.779  -2.078  0.00  0.00    +0.144 HD
ATOM     12  H   UNL     1      -2.113  -2.087  -3.069  0.00  0.00    +0.144 HD
ENDBRANCH   2  10
BRANCH   3  13
ATOM     13  C   UNL     1      -1.781  -4.485  -2.498  0.00  0.00    +0.186 C 
ATOM     14  O   UNL     1      -1.808  -3.796  -3.497  0.00  0.00    -0.290 OA
BRANCH  13  15
ATOM     15  C   UNL     1      -1.675  -5.983  -2.618  0.00  0.00    +0.165 C 
BRANCH  15  16
ATOM     16  N   UNL     1      -1.620  -6.358  -4.037  0.00  0.00    -0.277 NA
BRANCH  16  17
ATOM     17  C   UNL     1      -1.872  -7.794  -4.213  0.00  0.00    +0.089 C 
ATOM     18  C   UNL     1      -3.343  -8.124  -3.882  0.00  0.00    +0.028 C 
ATOM     19  C   UNL     1      -3.270  -8.502  -2.387  0.00  0.00    +0.037 C 
ATOM     20  C   UNL     1      -1.858  -9.003  -2.174  0.00  0.00    -0.043 A 
ATOM     21  C   UNL     1      -1.054  -8.596  -3.223  0.00  0.00    -0.027 A 
ATOM     22  C   UNL     1       0.286  -8.942  -3.238  0.00  0.00    +0.005 A 
ATOM     23  C   UNL     1       0.822  -9.692  -2.210  0.00  0.00    +0.000 A 
ATOM     24  C   UNL     1       0.019 -10.099  -1.161  0.00  0.00    +0.000 A 
ATOM     25  C   UNL     1      -1.318  -9.754  -1.143  0.00  0.00    +0.004 A 
ENDBRANCH  16  17
BRANCH  16  26
ATOM     26  C   UNL     1      -0.334  -5.972  -4.634  0.00  0.00    +0.174 C 
BRANCH  26  27
ATOM     27  C   UNL     1      -0.370  -6.226  -6.083  0.00  0.00    -0.090 C 
ATOM     28  C   UNL     1      -0.399  -6.428  -7.239  0.00  0.00    +0.005 C 
ENDBRANCH  26  27
ENDBRANCH  16  26
ENDBRANCH  15  16
ENDBRANCH  13  15
ENDBRANCH   3  13
BRANCH   1  29
ATOM     29  C   UNL     1      -2.369  -0.527   0.324  0.00  0.00    +0.131 C 
BRANCH  29  31
ATOM     30  C   UNL     1      -1.277   1.720   0.372  0.00  0.00    +0.009 C 
ATOM     31  C   UNL     1      -1.028   0.211   0.336  0.00  0.00    +0.003 C 
ATOM     32  C   UNL     1      -0.229  -0.204   1.573  0.00  0.00    +0.009 C 
ENDBRANCH  29  31
ENDBRANCH   1  29
TORSDOF 9
