REMARK  Name = ZINC39949108
REMARK  5 active torsions:
REMARK  status: ('A' for Active; 'I' for Inactive)
REMARK    1  A    between atoms: C_4  and  N_7
REMARK    2  A    between atoms: C_8  and  S_22
REMARK    3  A    between atoms: C_12  and  C_13
REMARK    4  A    between atoms: S_22  and  C_23
REMARK    5  A    between atoms: C_23  and  C_24
REMARK                            x       y       z     vdW  Elec       q    Type
REMARK                         _______ _______ _______ _____ _____    ______ ____
ROOT
ATOM      1  N   UNL     1       3.722  -0.442   0.065  0.00  0.00    -0.254 N 
ATOM      2  C   UNL     1       3.683  -1.907   0.203  0.00  0.00    +0.241 C 
ATOM      3  N   UNL     1       5.075  -2.330  -0.022  0.00  0.00    -0.237 N 
ATOM      4  N   UNL     1       5.811  -1.164  -0.265  0.00  0.00    -0.169 NA
ATOM      5  C   UNL     1       5.047  -0.104  -0.222  0.00  0.00    +0.151 C 
ATOM      6  H   UNL     1       5.416  -3.238  -0.005  0.00  0.00    +0.171 HD
ENDROOT
BRANCH   5   7
ATOM      7  C   UNL     1       5.502   1.207  -0.432  0.00  0.00    +0.022 C 
ATOM      8  C   UNL     1       6.821   1.625  -0.610  0.00  0.00    +0.006 A 
ATOM      9  C   UNL     1       8.047   0.925  -0.635  0.00  0.00    +0.010 A 
ATOM     10  C   UNL     1       9.206   1.605  -0.832  0.00  0.00    +0.001 A 
ATOM     11  C   UNL     1       9.220   2.990  -1.010  0.00  0.00    +0.002 A 
ATOM     12  C   UNL     1       8.081   3.725  -0.996  0.00  0.00    +0.026 A 
ATOM     13  C   UNL     1       6.831   3.085  -0.797  0.00  0.00    +0.043 A 
ATOM     14  N   UNL     1       5.604   3.565  -0.744  0.00  0.00    -0.380 N 
ATOM     15  C   UNL     1       4.662   2.463  -0.521  0.00  0.00    +0.152 C 
ATOM     16  H   UNL     1       5.362   4.499  -0.840  0.00  0.00    +0.160 HD
ENDBRANCH   5   7
BRANCH   1  20
ATOM     17  C   UNL     1       0.508   2.179   0.438  0.00  0.00    +0.000 A 
ATOM     18  C   UNL     1       1.057   1.934  -0.807  0.00  0.00    +0.002 A 
ATOM     19  C   UNL     1       2.123   1.065  -0.934  0.00  0.00    +0.023 A 
ATOM     20  C   UNL     1       2.644   0.438   0.190  0.00  0.00    +0.038 A 
ATOM     21  C   UNL     1       2.090   0.686   1.440  0.00  0.00    +0.023 A 
ATOM     22  C   UNL     1       1.024   1.556   1.560  0.00  0.00    +0.002 A 
ENDBRANCH   1  20
BRANCH   2  23
ATOM     23  S   UNL     1       2.586  -2.633  -1.045  0.00  0.00    -0.108 S 
BRANCH  23  24
ATOM     24  C   UNL     1       3.322  -2.128  -2.624  0.00  0.00    +0.168 C 
BRANCH  24  25
ATOM     25  C   UNL     1       2.497  -2.673  -3.761  0.00  0.00    +0.230 C 
ATOM     26  O   UNL     1       1.565  -3.415  -3.533  0.00  0.00    -0.274 OA
ATOM     27  N   UNL     1       2.793  -2.335  -5.032  0.00  0.00    -0.270 N 
ATOM     28  C   UNL     1       3.841  -1.345  -5.316  0.00  0.00    +0.114 C 
ATOM     29  C   UNL     1       3.305  -0.390  -6.390  0.00  0.00    +0.024 C 
ATOM     30  C   UNL     1       3.048  -1.182  -7.672  0.00  0.00    +0.038 C 
ATOM     31  C   UNL     1       2.204  -2.395  -7.382  0.00  0.00    -0.026 A 
ATOM     32  C   UNL     1       2.111  -2.926  -6.104  0.00  0.00    +0.039 A 
ATOM     33  C   UNL     1       1.332  -4.053  -5.872  0.00  0.00    +0.024 A 
ATOM     34  C   UNL     1       0.650  -4.649  -6.914  0.00  0.00    +0.002 A 
ATOM     35  C   UNL     1       0.743  -4.122  -8.189  0.00  0.00    +0.000 A 
ATOM     36  C   UNL     1       1.511  -2.993  -8.421  0.00  0.00    +0.005 A 
ENDBRANCH  24  25
ENDBRANCH  23  24
ENDBRANCH   2  23
TORSDOF 5
