REMARK  Name = ZINC39636658
REMARK  7 active torsions:
REMARK  status: ('A' for Active; 'I' for Inactive)
REMARK    1  A    between atoms: C_1  and  C_2
REMARK    2  A    between atoms: C_5  and  C_37
REMARK    3  A    between atoms: C_6  and  C_8
REMARK    4  A    between atoms: C_8  and  N_9
REMARK    5  A    between atoms: C_10  and  C_12
REMARK    6  A    between atoms: C_23  and  C_25
REMARK    7  A    between atoms: C_28  and  C_30
REMARK                            x       y       z     vdW  Elec       q    Type
REMARK                         _______ _______ _______ _____ _____    ______ ____
ROOT
ATOM      1  C   UNL     1       3.085  -4.431   4.205  0.00  0.00    +0.100 C 
ATOM      2  C   UNL     1       4.035  -3.214   4.273  0.00  0.00    +0.121 C 
ATOM      3  N   UNL     1       4.102  -2.871   5.713  0.00  0.00    -0.294 N 
ATOM      4  C   UNL     1       4.135  -4.183   6.403  0.00  0.00    +0.115 C 
ATOM      5  C   UNL     1       3.156  -5.066   5.604  0.00  0.00    -0.004 C 
ATOM      6  C   UNL     1       1.779  -5.053   6.261  0.00  0.00    -0.010 C 
ATOM      7  C   UNL     1       1.864  -5.741   7.626  0.00  0.00    -0.082 C 
ATOM      8  N   UNL     1       2.333  -7.121   7.453  0.00  0.00    +0.379 N 
ATOM      9  C   UNL     1       3.695  -7.122   6.907  0.00  0.00    -0.082 C 
ATOM     10  C   UNL     1       3.688  -6.493   5.511  0.00  0.00    -0.010 C 
ATOM     11  C   UNL     1       4.127  -1.644   6.270  0.00  0.00    +0.282 C 
ATOM     12  O   UNL     1       4.183  -1.526   7.480  0.00  0.00    -0.267 OA
ATOM     13  H   UNL     1       2.330  -7.590   8.346  0.00  0.00    -0.086 HD
ATOM     14  H   UNL     1       1.717  -7.607   6.819  0.00  0.00    -0.086 HD
ENDROOT
BRANCH  11  15
ATOM     15  C   UNL     1       4.085  -0.453   5.418  0.00  0.00    +0.190 A 
ATOM     16  C   UNL     1       4.110   0.854   5.854  0.00  0.00    +0.055 A 
ATOM     17  C   UNL     1       4.054   1.661   4.713  0.00  0.00    +0.051 A 
ATOM     18  C   UNL     1       3.998   0.827   3.634  0.00  0.00    +0.139 A 
ATOM     19  O   UNL     1       4.023  -0.444   4.070  0.00  0.00    -0.450 OA
BRANCH  18  20
ATOM     20  C   UNL     1       3.927   1.250   2.221  0.00  0.00    +0.052 A 
ATOM     21  C   UNL     1       2.986   2.201   1.820  0.00  0.00    +0.014 A 
ATOM     22  C   UNL     1       2.925   2.592   0.499  0.00  0.00    +0.001 A 
ATOM     23  C   UNL     1       3.794   2.046  -0.430  0.00  0.00    +0.003 A 
ATOM     24  C   UNL     1       4.729   1.103  -0.043  0.00  0.00    +0.039 A 
ATOM     25  C   UNL     1       4.806   0.706   1.279  0.00  0.00    +0.134 A 
ATOM     26  F   UNL     1       5.723  -0.211   1.659  0.00  0.00    -0.205 F 
ENDBRANCH  18  20
ENDBRANCH  11  15
BRANCH   1  28
ATOM     27  N   UNL     1       0.835  -4.806   3.250  0.00  0.00    -0.311 N 
ATOM     28  C   UNL     1       1.679  -3.983   3.903  0.00  0.00    +0.218 C 
ATOM     29  O   UNL     1       1.306  -2.881   4.248  0.00  0.00    -0.275 OA
ATOM     30  H   UNL     1       1.133  -5.687   2.974  0.00  0.00    +0.149 HD
BRANCH  27  31
ATOM     31  C   UNL     1      -0.533  -4.370   2.956  0.00  0.00    +0.139 C 
BRANCH  31  37
ATOM     32  C   UNL     1      -2.234  -6.343  -1.316  0.00  0.00    +0.044 C 
ATOM     33  C   UNL     1      -2.078  -6.410   0.181  0.00  0.00    -0.050 A 
ATOM     34  C   UNL     1      -2.605  -7.478   0.884  0.00  0.00    +0.003 A 
ATOM     35  C   UNL     1      -2.462  -7.539   2.257  0.00  0.00    +0.004 A 
ATOM     36  C   UNL     1      -1.791  -6.533   2.928  0.00  0.00    -0.046 A 
ATOM     37  C   UNL     1      -1.264  -5.467   2.225  0.00  0.00    -0.027 A 
ATOM     38  C   UNL     1      -1.403  -5.407   0.851  0.00  0.00    +0.008 A 
ATOM     39  C   UNL     1      -1.636  -6.600   4.426  0.00  0.00    +0.044 C 
ENDBRANCH  31  37
ENDBRANCH  27  31
ENDBRANCH   1  28
TORSDOF 5
