REMARK  Name = ZINC01248400
REMARK  8 active torsions:
REMARK  status: ('A' for Active; 'I' for Inactive)
REMARK    1  A    between atoms: C_1  and  C_2
REMARK    2  A    between atoms: C_2  and  C_3
REMARK    3  A    between atoms: C_3  and  C_29
REMARK    4  A    between atoms: C_10  and  N_26
REMARK    5  A    between atoms: C_12  and  S_14
REMARK    6  A    between atoms: S_14  and  C_15
REMARK    7  A    between atoms: C_15  and  C_16
REMARK    8  A    between atoms: N_18  and  C_19
REMARK                            x       y       z     vdW  Elec       q    Type
REMARK                         _______ _______ _______ _____ _____    ______ ____
ROOT
ATOM      1  C   UNL     1       1.172  -2.339   0.570  0.00  0.00    +0.071 C 
ATOM      2  C   UNL     1       2.368  -1.504   0.102  0.00  0.00    +0.071 C 
ATOM      3  C   UNL     1       1.954  -0.034   0.112  0.00  0.00    -0.020 A 
ATOM      4  C   UNL     1       0.639   0.285   0.140  0.00  0.00    +0.021 A 
ATOM      5  S   UNL     1       0.589   2.057   0.144  0.00  0.00    -0.071 S 
ATOM      6  C   UNL     1       2.325   2.370   0.108  0.00  0.00    +0.115 A 
ATOM      7  C   UNL     1       2.895   1.071   0.094  0.00  0.00    +0.051 A 
ATOM      8  C   UNL     1       4.318   0.991   0.065  0.00  0.00    +0.129 A 
ATOM      9  N   UNL     1       4.967   2.152   0.054  0.00  0.00    -0.207 NA
ATOM     10  C   UNL     1       4.368   3.334   0.068  0.00  0.00    +0.191 A 
ATOM     11  N   UNL     1       3.041   3.476   0.095  0.00  0.00    -0.214 NA
ATOM     12  C   UNL     1      -0.506  -0.679   0.161  0.00  0.00    +0.203 C 
ATOM     13  O   UNL     1       0.003  -1.980  -0.171  0.00  0.00    -0.368 OA
ATOM     14  C   UNL     1       0.925  -2.083   2.058  0.00  0.00    +0.042 C 
ENDROOT
BRANCH   8  15
ATOM     15  N   UNL     1       4.984  -0.221   0.049  0.00  0.00    -0.343 N 
ATOM     16  H   UNL     1       4.485  -1.049   0.127  0.00  0.00    +0.144 HD
ATOM     17  H   UNL     1       5.949  -0.243  -0.040  0.00  0.00    +0.144 HD
ENDBRANCH   8  15
BRANCH   1  19
ATOM     18  C   UNL     1       0.281  -4.660   0.820  0.00  0.00    +0.007 C 
ATOM     19  C   UNL     1       1.474  -3.823   0.354  0.00  0.00    +0.032 C 
ENDBRANCH   1  19
BRANCH  10  20
ATOM     20  S   UNL     1       5.369   4.784   0.051  0.00  0.00    -0.077 S 
BRANCH  20  21
ATOM     21  C   UNL     1       7.014   4.030   0.015  0.00  0.00    +0.173 C 
BRANCH  21  22
ATOM     22  C   UNL     1       8.062   5.112  -0.004  0.00  0.00    +0.227 C 
ATOM     23  O   UNL     1       7.730   6.279   0.005  0.00  0.00    -0.275 OA
ATOM     24  N   UNL     1       9.369   4.784  -0.032  0.00  0.00    -0.285 N 
ATOM     25  H   UNL     1       9.634   3.855  -0.118  0.00  0.00    +0.155 HD
BRANCH  24  26
ATOM     26  C   UNL     1      10.344   5.784   0.065  0.00  0.00    +0.033 A 
ATOM     27  C   UNL     1      11.541   5.657  -0.627  0.00  0.00    +0.024 A 
ATOM     28  C   UNL     1      12.499   6.648  -0.534  0.00  0.00    +0.017 A 
ATOM     29  C   UNL     1      12.271   7.761   0.256  0.00  0.00    +0.018 A 
ATOM     30  C   UNL     1      11.081   7.887   0.951  0.00  0.00    +0.017 A 
ATOM     31  C   UNL     1      10.118   6.902   0.857  0.00  0.00    +0.024 A 
ATOM     32 BR   UNL     1      13.588   9.112   0.386  0.00  0.00    -0.050 Br
ENDBRANCH  24  26
ENDBRANCH  21  22
ENDBRANCH  20  21
ENDBRANCH  10  20
TORSDOF 6
