REMARK  Name = ZINC09712412
REMARK  4 active torsions:
REMARK  status: ('A' for Active; 'I' for Inactive)
REMARK    1  A    between atoms: C_3  and  C_6
REMARK    2  A    between atoms: C_15  and  C_16
REMARK    3  A    between atoms: C_15  and  N_49
REMARK    4  A    between atoms: N_21  and  C_22
REMARK                            x       y       z     vdW  Elec       q    Type
REMARK                         _______ _______ _______ _____ _____    ______ ____
ROOT
ATOM      1  C   UNL     1       3.067   4.399  -3.208  0.00  0.00    +0.204 C 
ATOM      2  O   UNL     1       3.891   5.179  -2.779  0.00  0.00    -0.277 OA
ATOM      3  N   UNL     1       3.029   4.117  -4.525  0.00  0.00    -0.241 N 
ATOM      4  C   UNL     1       3.907   4.700  -5.365  0.00  0.00    +0.310 C 
ATOM      5  O   UNL     1       4.733   5.481  -4.935  0.00  0.00    -0.252 OA
ATOM      6  N   UNL     1       3.869   4.417  -6.682  0.00  0.00    -0.269 N 
ATOM      7  H   UNL     1       2.370   3.493  -4.868  0.00  0.00    +0.159 HD
ATOM      8  H   UNL     1       3.164   3.852  -7.037  0.00  0.00    +0.156 HD
ENDROOT
BRANCH   6   9
ATOM      9  C   UNL     1       4.847   4.939  -7.539  0.00  0.00    +0.038 A 
ATOM     10  C   UNL     1       6.144   5.125  -7.081  0.00  0.00    +0.027 A 
ATOM     11  C   UNL     1       7.110   5.638  -7.925  0.00  0.00    +0.051 A 
ATOM     12  C   UNL     1       6.787   5.970  -9.231  0.00  0.00    +0.166 A 
ATOM     13  C   UNL     1       5.487   5.784  -9.694  0.00  0.00    +0.168 A 
ATOM     14  C   UNL     1       4.521   5.264  -8.848  0.00  0.00    +0.073 A 
ATOM     15  O   UNL     1       5.427   6.182 -10.998  0.00  0.00    -0.453 OA
ATOM     16  C   UNL     1       6.793   6.228 -11.449  0.00  0.00    +0.466 C 
ATOM     17  O   UNL     1       7.542   6.483 -10.247  0.00  0.00    -0.453 OA
ENDBRANCH   6   9
BRANCH   1  18
ATOM     18  C   UNL     1       2.086   3.747  -2.268  0.00  0.00    +0.020 C 
BRANCH  18  27
ATOM     19  C   UNL     1       2.072   5.658  -0.782  0.00  0.00    +0.002 C 
ATOM     20  C   UNL     1       2.366   6.092   0.651  0.00  0.00    -0.046 A 
ATOM     21  C   UNL     1       1.891   7.272   1.218  0.00  0.00    +0.010 A 
ATOM     22  C   UNL     1       2.200   7.579   2.500  0.00  0.00    +0.045 A 
ATOM     23  S   UNL     1       3.204   6.181   2.982  0.00  0.00    -0.101 S 
ATOM     24  C   UNL     1       3.136   5.300   1.449  0.00  0.00    -0.010 A 
ATOM     25  C   UNL     1       3.761   3.996   1.074  0.00  0.00    +0.024 C 
ATOM     26  C   UNL     1       3.688   3.864  -0.456  0.00  0.00    -0.072 C 
ATOM     27  N   UNL     1       2.308   4.198  -0.881  0.00  0.00    +0.393 N 
ATOM     28  H   UNL     1       1.646   3.714  -0.263  0.00  0.00    -0.080 HD
BRANCH  19  31
ATOM     29  C   UNL     1      -1.274   7.029  -1.982  0.00  0.00    +0.008 A 
ATOM     30  C   UNL     1       0.096   6.976  -1.802  0.00  0.00    +0.010 A 
ATOM     31  C   UNL     1       0.628   5.939  -1.109  0.00  0.00    -0.019 A 
ATOM     32  S   UNL     1      -0.826   4.994  -0.685  0.00  0.00    -0.103 S 
ATOM     33  C   UNL     1      -2.044   6.043  -1.460  0.00  0.00    +0.045 A 
ENDBRANCH  19  31
ENDBRANCH  18  27
ENDBRANCH   1  18
TORSDOF 4
