REMARK  Name = ZINC18268018
REMARK  7 active torsions:
REMARK  status: ('A' for Active; 'I' for Inactive)
REMARK    1  A    between atoms: C_1  and  C_2
REMARK    2  A    between atoms: C_2  and  C_4
REMARK    3  A    between atoms: C_2  and  N_10
REMARK    4  A    between atoms: C_11  and  C_13
REMARK    5  A    between atoms: C_13  and  O_14
REMARK    6  A    between atoms: O_14  and  C_15
REMARK    7  A    between atoms: C_15  and  C_17
REMARK                            x       y       z     vdW  Elec       q    Type
REMARK                         _______ _______ _______ _____ _____    ______ ____
ROOT
ATOM      1  O   UNL     1      -3.965  -1.212  -2.472  0.00  0.00    -0.455 OA
ENDROOT
BRANCH   1   2
ATOM      2  C   UNL     1      -5.220  -1.657  -2.637  0.00  0.00    +0.314 C 
ATOM      3  O   UNL     1      -5.873  -1.995  -1.678  0.00  0.00    -0.250 OA
BRANCH   2   4
ATOM      4  C   UNL     1      -5.816  -1.735  -4.019  0.00  0.00    +0.070 C 
ATOM      5  C   UNL     1      -4.974  -2.674  -4.886  0.00  0.00    +0.021 C 
ATOM      6  C   UNL     1      -5.578  -2.753  -6.289  0.00  0.00    -0.008 C 
ATOM      7  C   UNL     1      -7.009  -3.289  -6.198  0.00  0.00    +0.007 C 
ATOM      8  C   UNL     1      -7.851  -2.350  -5.332  0.00  0.00    -0.008 C 
ATOM      9  C   UNL     1      -7.246  -2.271  -3.929  0.00  0.00    +0.021 C 
ATOM     10  C   UNL     1      -7.868  -0.955  -5.960  0.00  0.00    +0.021 C 
ATOM     11  C   UNL     1      -6.438  -0.419  -6.050  0.00  0.00    +0.028 C 
ATOM     12  C   UNL     1      -5.595  -1.358  -6.916  0.00  0.00    +0.021 C 
ATOM     13  C   UNL     1      -5.833  -0.340  -4.647  0.00  0.00    +0.036 C 
ATOM     14 BR   UNL     1      -6.459   1.374  -6.857  0.00  0.00    -0.084 Br
ENDBRANCH   2   4
ENDBRANCH   1   2
BRANCH   1  15
ATOM     15  C   UNL     1      -3.465  -1.164  -1.134  0.00  0.00    +0.327 C 
BRANCH  15  17
ATOM     16  N   UNL     1      -1.372  -0.511   0.012  0.00  0.00    -0.306 N 
ATOM     17  C   UNL     1      -2.051  -0.643  -1.145  0.00  0.00    +0.251 C 
ATOM     18  O   UNL     1      -1.524  -0.341  -2.194  0.00  0.00    -0.272 OA
ATOM     19  H   UNL     1      -1.794  -0.752   0.852  0.00  0.00    +0.149 HD
BRANCH  16  21
ATOM     20  C   UNL     1      -0.019   1.526   0.010  0.00  0.00    +0.033 C 
ATOM     21  C   UNL     1       0.002  -0.004   0.002  0.00  0.00    +0.100 C 
BRANCH  21  22
ATOM     22  C   UNL     1       0.731  -0.503   1.223  0.00  0.00    -0.027 A 
ATOM     23  C   UNL     1       0.081  -0.558   2.442  0.00  0.00    +0.005 A 
ATOM     24  C   UNL     1       0.749  -1.016   3.562  0.00  0.00    +0.000 A 
ATOM     25  C   UNL     1       2.068  -1.420   3.463  0.00  0.00    +0.000 A 
ATOM     26  C   UNL     1       2.718  -1.365   2.244  0.00  0.00    +0.000 A 
ATOM     27  C   UNL     1       2.048  -0.911   1.123  0.00  0.00    +0.005 A 
ENDBRANCH  21  22
ENDBRANCH  16  21
ENDBRANCH  15  17
ENDBRANCH   1  15
TORSDOF 6
