REMARK  Name = ZINC11843512
REMARK  8 active torsions:
REMARK  status: ('A' for Active; 'I' for Inactive)
REMARK    1  A    between atoms: C_1  and  N_2
REMARK    2  A    between atoms: N_2  and  C_3
REMARK    3  A    between atoms: C_3  and  C_4
REMARK    4  A    between atoms: C_4  and  C_5
REMARK    5  A    between atoms: C_11  and  C_13
REMARK    6  A    between atoms: C_13  and  C_14
REMARK    7  A    between atoms: C_21  and  C_22
REMARK    8  A    between atoms: C_21  and  N_64
REMARK                            x       y       z     vdW  Elec       q    Type
REMARK                         _______ _______ _______ _____ _____    ______ ____
ROOT
ATOM      1  C   UNL     1       4.285   5.090  -1.428  0.00  0.00    +0.028 C 
ATOM      2  C   UNL     1       4.918   4.907  -2.779  0.00  0.00    +0.200 C 
ATOM      3  O   UNL     1       5.704   5.744  -3.170  0.00  0.00    -0.278 OA
ATOM      4  N   UNL     1       4.650   3.861  -3.567  0.00  0.00    -0.318 N 
ATOM      5  C   UNL     1       3.694   2.819  -3.205  0.00  0.00    +0.085 C 
ATOM      6  C   UNL     1       3.424   2.854  -1.700  0.00  0.00    -0.058 C 
ATOM      7  H   UNL     1       5.113   3.791  -4.417  0.00  0.00    +0.149 HD
ATOM      8  N   UNL     1       3.083   4.242  -1.329  0.00  0.00    +0.391 N 
ATOM      9  H   UNL     1       2.368   4.596  -1.975  0.00  0.00    -0.080 HD
ENDROOT
BRANCH   1  10
ATOM     10  C   UNL     1       3.877   6.554  -1.252  0.00  0.00    +0.090 C 
BRANCH  10  13
ATOM     11  C   UNL     1       2.643   9.105  -1.234  0.00  0.00    +0.132 C 
ATOM     12  N   UNL     1       2.249   8.127  -2.251  0.00  0.00    -0.305 N 
ATOM     13  C   UNL     1       2.826   6.909  -2.273  0.00  0.00    +0.214 C 
ATOM     14  O   UNL     1       2.500   6.098  -3.114  0.00  0.00    -0.276 OA
BRANCH  12  15
ATOM     15  C   UNL     1       1.227   8.471  -3.242  0.00  0.00    +0.107 C 
BRANCH  15  16
ATOM     16  C   UNL     1      -0.154   8.089  -2.706  0.00  0.00    +0.022 C 
BRANCH  16  17
ATOM     17  C   UNL     1      -1.220   8.449  -3.742  0.00  0.00    -0.005 C 
ATOM     18  C   UNL     1      -1.272   9.970  -3.917  0.00  0.00    +0.031 C 
ATOM     19  C   UNL     1      -2.395  10.325  -4.896  0.00  0.00    +0.160 C 
ATOM     20  O   UNL     1      -3.634   9.810  -4.404  0.00  0.00    -0.380 OA
ATOM     21  C   UNL     1      -3.660   8.388  -4.265  0.00  0.00    +0.160 C 
ATOM     22  C   UNL     1      -2.588   7.955  -3.261  0.00  0.00    +0.031 C 
ENDBRANCH  16  17
ENDBRANCH  15  16
ENDBRANCH  12  15
ENDBRANCH  10  13
ENDBRANCH   1  10
BRANCH   8  23
ATOM     23  C   UNL     1       2.547   4.282   0.051  0.00  0.00    -0.041 C 
BRANCH  23  24
ATOM     24  C   UNL     1       1.256   3.506   0.099  0.00  0.00    -0.056 A 
ATOM     25  C   UNL     1       0.069   4.139  -0.104  0.00  0.00    +0.002 A 
ATOM     26  C   UNL     1      -1.135   3.438  -0.064  0.00  0.00    +0.001 A 
ATOM     27  C   UNL     1      -1.158   2.099   0.175  0.00  0.00    +0.008 A 
ATOM     28  C   UNL     1       0.048   1.411   0.395  0.00  0.00    -0.018 A 
ATOM     29  C   UNL     1       1.272   2.124   0.353  0.00  0.00    -0.017 A 
ATOM     30  C   UNL     1       2.478   1.435   0.567  0.00  0.00    +0.009 A 
ATOM     31  C   UNL     1       2.455   0.096   0.810  0.00  0.00    +0.001 A 
ATOM     32  C   UNL     1       1.251  -0.605   0.851  0.00  0.00    +0.001 A 
ATOM     33  C   UNL     1       0.064   0.029   0.649  0.00  0.00    +0.008 A 
ENDBRANCH  23  24
ENDBRANCH   8  23
TORSDOF 7
