REMARK  Name = ZINC06881926
REMARK  7 active torsions:
REMARK  status: ('A' for Active; 'I' for Inactive)
REMARK    1  A    between atoms: C_1  and  C_2
REMARK    2  A    between atoms: C_2  and  C_4
REMARK    3  A    between atoms: C_2  and  N_53
REMARK    4  A    between atoms: C_14  and  C_15
REMARK    5  A    between atoms: C_14  and  N_53
REMARK    6  A    between atoms: C_27  and  C_28
REMARK    7  A    between atoms: C_27  and  C_29
REMARK                            x       y       z     vdW  Elec       q    Type
REMARK                         _______ _______ _______ _____ _____    ______ ____
ROOT
ATOM      1  C   UNL     1       1.500  -0.412   1.576  0.00  0.00    +0.016 C 
ENDROOT
BRANCH   1   2
ATOM      2  C   UNL     1       2.627   0.114   0.725  0.00  0.00    +0.204 C 
ATOM      3  O   UNL     1       3.552  -0.612   0.427  0.00  0.00    -0.277 OA
ATOM      4  N   UNL     1       2.607   1.391   0.294  0.00  0.00    -0.257 N 
ATOM      5  C   UNL     1       1.491   2.213   0.517  0.00  0.00    +0.058 A 
ATOM      6  C   UNL     1       0.218   1.680   0.606  0.00  0.00    +0.025 A 
ATOM      7  C   UNL     1      -0.863   2.518   0.816  0.00  0.00    +0.002 A 
ATOM      8  C   UNL     1      -0.672   3.881   0.944  0.00  0.00    +0.002 A 
ATOM      9  C   UNL     1       0.598   4.420   0.856  0.00  0.00    +0.025 A 
ATOM     10  C   UNL     1       1.687   3.589   0.644  0.00  0.00    +0.055 A 
ATOM     11  N   UNL     1       2.981   4.113   0.559  0.00  0.00    -0.282 N 
ATOM     12  C   UNL     1       3.996   3.368   0.082  0.00  0.00    +0.241 C 
ATOM     13  O   UNL     1       5.118   3.828   0.058  0.00  0.00    -0.273 OA
ATOM     14  C   UNL     1       3.754   1.968  -0.423  0.00  0.00    +0.113 C 
ATOM     15  C   UNL     1       4.997   1.112  -0.173  0.00  0.00    +0.042 C 
ATOM     16  C   UNL     1       3.452   2.008  -1.922  0.00  0.00    +0.042 C 
ATOM     17  H   UNL     1       3.150   5.024   0.847  0.00  0.00    +0.155 HD
ENDBRANCH   1   2
BRANCH   1  18
ATOM     18  N   UNL     1       1.957  -1.619   2.290  0.00  0.00    +0.389 N 
ATOM     19  H   UNL     1       2.239  -2.331   1.606  0.00  0.00    -0.084 HD
ATOM     20  H   UNL     1       2.760  -1.379   2.884  0.00  0.00    -0.084 HD
BRANCH  18  22
ATOM     21  C   UNL     1      -0.023  -3.069   2.292  0.00  0.00    -0.009 C 
ATOM     22  C   UNL     1       0.872  -2.157   3.133  0.00  0.00    -0.043 C 
BRANCH  22  23
ATOM     23  C   UNL     1       1.472  -2.948   4.266  0.00  0.00    -0.054 A 
ATOM     24  C   UNL     1       2.749  -3.413   4.176  0.00  0.00    +0.002 A 
ATOM     25  C   UNL     1       3.321  -4.146   5.213  0.00  0.00    +0.001 A 
ATOM     26  C   UNL     1       2.619  -4.419   6.348  0.00  0.00    +0.008 A 
ATOM     27  C   UNL     1       1.299  -3.956   6.478  0.00  0.00    -0.018 A 
ATOM     28  C   UNL     1       0.719  -3.206   5.424  0.00  0.00    -0.016 A 
ATOM     29  C   UNL     1      -0.599  -2.738   5.556  0.00  0.00    +0.009 A 
ATOM     30  C   UNL     1      -1.298  -3.006   6.693  0.00  0.00    +0.001 A 
ATOM     31  C   UNL     1      -0.726  -3.740   7.731  0.00  0.00    +0.001 A 
ATOM     32  C   UNL     1       0.544  -4.218   7.634  0.00  0.00    +0.008 A 
ENDBRANCH  22  23
ENDBRANCH  18  22
ENDBRANCH   1  18
TORSDOF 4
