REMARK  Name = ZINC20683059
REMARK  12 active torsions:
REMARK  status: ('A' for Active; 'I' for Inactive)
REMARK    1  A    between atoms: C_1  and  C_2
REMARK    2  A    between atoms: C_2  and  O_3
REMARK    3  A    between atoms: O_3  and  C_4
REMARK    4  A    between atoms: C_4  and  C_6
REMARK    5  A    between atoms: C_6  and  O_7
REMARK    6  A    between atoms: O_7  and  C_8
REMARK    7  A    between atoms: N_15  and  N_16
REMARK    8  A    between atoms: N_16  and  C_17
REMARK    9  A    between atoms: C_17  and  N_19
REMARK   10  A    between atoms: N_19  and  C_20
REMARK   11  A    between atoms: C_23  and  O_26
REMARK   12  A    between atoms: O_26  and  C_27
REMARK                            x       y       z     vdW  Elec       q    Type
REMARK                         _______ _______ _______ _____ _____    ______ ____
ROOT
ATOM      1  C   UNL     1      -1.181   2.028   1.172  0.00  0.00    +0.122 A 
ATOM      2  C   UNL     1       0.007   1.309   1.133  0.00  0.00    +0.049 A 
ATOM      3  C   UNL     1       1.181   1.911   0.723  0.00  0.00    +0.050 A 
ATOM      4  C   UNL     1       1.185   3.248   0.352  0.00  0.00    +0.130 A 
ATOM      5  C   UNL     1      -0.012   3.974   0.392  0.00  0.00    +0.043 A 
ATOM      6  C   UNL     1      -1.193   3.364   0.807  0.00  0.00    +0.059 A 
ATOM      7  C   UNL     1      -0.001   5.398  -0.013  0.00  0.00    +0.074 C 
ATOM      8  N   UNL     1      -1.099   6.057  -0.223  0.00  0.00    -0.185 NA
ATOM      9  C   UNL     1       1.363   6.046  -0.170  0.00  0.00    +0.105 C 
ATOM     10  C   UNL     1       2.281   5.014  -0.842  0.00  0.00    +0.116 C 
ATOM     11  O   UNL     1       2.343   3.838  -0.038  0.00  0.00    -0.485 OA
ATOM     12  C   UNL     1       3.682   5.610  -0.991  0.00  0.00    +0.048 C 
ATOM     13  C   UNL     1       4.601   4.592  -1.670  0.00  0.00    +0.004 C 
ATOM     14  C   UNL     1       4.043   4.247  -3.053  0.00  0.00    +0.000 C 
ATOM     15  C   UNL     1       2.642   3.649  -2.903  0.00  0.00    +0.004 C 
ATOM     16  C   UNL     1       1.724   4.667  -2.223  0.00  0.00    +0.048 C 
ENDROOT
BRANCH   8  17
ATOM     17  N   UNL     1      -1.045   7.404  -0.605  0.00  0.00    -0.218 N 
ATOM     18  H   UNL     1      -0.072   7.902  -0.727  0.00  0.00    +0.176 HD
BRANCH  17  19
ATOM     19  C   UNL     1      -2.185   8.089  -0.823  0.00  0.00    +0.154 C 
ATOM     20  S   UNL     1      -2.119   9.734  -1.290  0.00  0.00    -0.017 S 
BRANCH  19  21
ATOM     21  N   UNL     1      -3.377   7.478  -0.674  0.00  0.00    -0.296 N 
ATOM     22  H   UNL     1      -3.419   6.403  -0.442  0.00  0.00    +0.154 HD
BRANCH  21  23
ATOM     23  C   UNL     1      -4.562   8.211  -0.813  0.00  0.00    +0.033 A 
ATOM     24  C   UNL     1      -5.589   8.055   0.109  0.00  0.00    +0.027 A 
ATOM     25  C   UNL     1      -6.755   8.781  -0.027  0.00  0.00    +0.047 A 
ATOM     26  C   UNL     1      -6.906   9.659  -1.090  0.00  0.00    +0.120 A 
ATOM     27  C   UNL     1      -5.883   9.812  -2.015  0.00  0.00    +0.047 A 
ATOM     28  C   UNL     1      -4.714   9.090  -1.877  0.00  0.00    +0.027 A 
BRANCH  26  29
ATOM     29  O   UNL     1      -8.057  10.371  -1.226  0.00  0.00    -0.495 OA
ATOM     30  C   UNL     1      -9.068  10.164  -0.238  0.00  0.00    +0.277 C 
ENDBRANCH  26  29
ENDBRANCH  21  23
ENDBRANCH  19  21
ENDBRANCH  17  19
ENDBRANCH   8  17
BRANCH   1  31
ATOM     31  O   UNL     1      -2.330   1.422   1.574  0.00  0.00    -0.481 OA
BRANCH  31  32
ATOM     32  C   UNL     1      -2.242   0.044   1.941  0.00  0.00    +0.349 C 
BRANCH  32  33
ATOM     33  C   UNL     1      -3.603  -0.453   2.356  0.00  0.00    +0.345 C 
ATOM     34  O   UNL     1      -4.551   0.296   2.338  0.00  0.00    -0.247 OA
BRANCH  33  35
ATOM     35  O   UNL     1      -3.762  -1.728   2.745  0.00  0.00    -0.463 OA
BRANCH  35  37
ATOM     36  C   UNL     1      -5.086  -3.611   3.539  0.00  0.00    +0.048 C 
ATOM     37  C   UNL     1      -5.101  -2.137   3.130  0.00  0.00    +0.229 C 
ENDBRANCH  35  37
ENDBRANCH  33  35
ENDBRANCH  32  33
ENDBRANCH  31  32
ENDBRANCH   1  31
TORSDOF 10
