REMARK  Name = ZINC15957843
REMARK  4 active torsions:
REMARK  status: ('A' for Active; 'I' for Inactive)
REMARK    1  A    between atoms: C_4  and  N_7
REMARK    2  A    between atoms: C_12  and  C_29
REMARK    3  A    between atoms: C_29  and  C_30
REMARK    4  A    between atoms: C_33  and  O_36
REMARK                            x       y       z     vdW  Elec       q    Type
REMARK                         _______ _______ _______ _____ _____    ______ ____
ROOT
ATOM      1  N   UNL     1       3.624  -0.652  -0.037  0.00  0.00    -0.210 N 
ATOM      2  C   UNL     1       4.801  -0.025  -0.139  0.00  0.00    +0.232 C 
ATOM      3  O   UNL     1       4.949   1.175  -0.231  0.00  0.00    -0.274 OA
ATOM      4  C   UNL     1       5.917  -1.044  -0.121  0.00  0.00    +0.108 C 
ATOM      5  C   UNL     1       6.606  -1.072  -1.501  0.00  0.00    +0.072 C 
ATOM      6  N   UNL     1       5.806  -2.033  -2.308  0.00  0.00    -0.295 NA
ATOM      7  C   UNL     1       5.457  -3.102  -1.354  0.00  0.00    +0.136 C 
ATOM      8  C   UNL     1       5.164  -2.399  -0.005  0.00  0.00    +0.123 C 
ATOM      9  C   UNL     1       3.710  -1.984   0.052  0.00  0.00    +0.233 C 
ATOM     10  O   UNL     1       2.770  -2.741   0.161  0.00  0.00    -0.274 OA
ATOM     11  C   UNL     1       6.569  -4.103  -1.217  0.00  0.00    +0.003 A 
ATOM     12  C   UNL     1       7.887  -4.010  -0.829  0.00  0.00    +0.008 A 
ATOM     13  C   UNL     1       8.683  -5.141  -0.804  0.00  0.00    +0.000 A 
ATOM     14  C   UNL     1       8.152  -6.365  -1.168  0.00  0.00    +0.002 A 
ATOM     15  C   UNL     1       6.832  -6.463  -1.558  0.00  0.00    +0.023 A 
ATOM     16  C   UNL     1       6.024  -5.329  -1.586  0.00  0.00    +0.039 A 
ATOM     17  N   UNL     1       4.681  -5.175  -1.938  0.00  0.00    -0.283 N 
ATOM     18  C   UNL     1       4.271  -3.896  -1.829  0.00  0.00    +0.243 C 
ATOM     19  O   UNL     1       3.162  -3.468  -2.068  0.00  0.00    -0.273 OA
ATOM     20  H   UNL     1       4.977  -1.592  -2.677  0.00  0.00    +0.124 HD
ATOM     21  H   UNL     1       4.110  -5.903  -2.227  0.00  0.00    +0.155 HD
ENDROOT
BRANCH   1  25
ATOM     22  C   UNL     1      -0.016   1.380   0.011  0.00  0.00    +0.000 A 
ATOM     23  C   UNL     1       0.420   0.718   1.145  0.00  0.00    +0.002 A 
ATOM     24  C   UNL     1       1.626   0.044   1.131  0.00  0.00    +0.024 A 
ATOM     25  C   UNL     1       2.399   0.031  -0.021  0.00  0.00    +0.044 A 
ATOM     26  C   UNL     1       1.958   0.695  -1.157  0.00  0.00    +0.024 A 
ATOM     27  C   UNL     1       0.752   1.368  -1.138  0.00  0.00    +0.002 A 
ENDBRANCH   1  25
BRANCH   5  28
ATOM     28  C   UNL     1       6.574   0.318  -2.140  0.00  0.00    +0.054 C 
BRANCH  28  29
ATOM     29  C   UNL     1       7.357   0.297  -3.428  0.00  0.00    -0.046 A 
ATOM     30  C   UNL     1       8.710   0.579  -3.418  0.00  0.00    +0.007 A 
ATOM     31  C   UNL     1       9.430   0.561  -4.597  0.00  0.00    +0.045 A 
ATOM     32  C   UNL     1       8.793   0.258  -5.792  0.00  0.00    +0.117 A 
ATOM     33  C   UNL     1       7.436  -0.025  -5.799  0.00  0.00    +0.045 A 
ATOM     34  C   UNL     1       6.721  -0.011  -4.617  0.00  0.00    +0.007 A 
BRANCH  32  35
ATOM     35  O   UNL     1       9.499   0.240  -6.953  0.00  0.00    -0.507 OA
ATOM     36  H   UNL     1       9.882  -0.622  -7.167  0.00  0.00    +0.292 HD
ENDBRANCH  32  35
ENDBRANCH  28  29
ENDBRANCH   5  28
TORSDOF 4
