REMARK  Name = ZINC63303353
REMARK  9 active torsions:
REMARK  status: ('A' for Active; 'I' for Inactive)
REMARK    1  A    between atoms: C_1  and  C_2
REMARK    2  A    between atoms: C_2  and  O_3
REMARK    3  A    between atoms: O_3  and  C_4
REMARK    4  A    between atoms: C_4  and  C_6
REMARK    5  A    between atoms: C_8  and  C_28
REMARK    6  A    between atoms: C_11  and  N_14
REMARK    7  A    between atoms: C_15  and  C_17
REMARK    8  A    between atoms: C_17  and  S_18
REMARK    9  A    between atoms: S_18  and  C_19
REMARK                            x       y       z     vdW  Elec       q    Type
REMARK                         _______ _______ _______ _____ _____    ______ ____
ROOT
ATOM      1  C   UNL     1       1.635  -2.712   2.018  0.00  0.00    +0.179 C 
ATOM      2  C   UNL     1       0.903  -3.743   2.917  0.00  0.00    +0.110 C 
ATOM      3  N   UNL     1       1.466  -5.091   2.713  0.00  0.00    -0.282 NA
ATOM      4  C   UNL     1       2.957  -5.043   2.799  0.00  0.00    +0.203 C 
ATOM      5  S   UNL     1       3.295  -3.495   1.852  0.00  0.00    -0.106 S 
ATOM      6  H   UNL     1       1.087  -5.746   3.380  0.00  0.00    +0.125 HD
ENDROOT
BRANCH   2   7
ATOM      7  C   UNL     1      -0.562  -3.759   2.566  0.00  0.00    -0.029 A 
ATOM      8  C   UNL     1      -1.074  -4.772   1.778  0.00  0.00    +0.005 A 
ATOM      9  C   UNL     1      -2.418  -4.787   1.457  0.00  0.00    +0.000 A 
ATOM     10  C   UNL     1      -3.251  -3.787   1.924  0.00  0.00    +0.000 A 
ATOM     11  C   UNL     1      -2.740  -2.774   2.713  0.00  0.00    +0.000 A 
ATOM     12  C   UNL     1      -1.396  -2.762   3.038  0.00  0.00    +0.005 A 
ENDBRANCH   2   7
BRANCH   4  13
ATOM     13  N   UNL     1       3.405  -4.923   4.188  0.00  0.00    -0.291 N 
ATOM     14  C   UNL     1       4.693  -5.166   4.504  0.00  0.00    +0.225 C 
ATOM     15  O   UNL     1       5.481  -5.483   3.638  0.00  0.00    -0.275 OA
ATOM     16  H   UNL     1       2.776  -4.670   4.881  0.00  0.00    +0.151 HD
BRANCH  14  17
ATOM     17  C   UNL     1       5.154  -5.043   5.934  0.00  0.00    +0.168 C 
BRANCH  17  18
ATOM     18  S   UNL     1       6.923  -5.430   6.034  0.00  0.00    -0.106 S 
BRANCH  18  19
ATOM     19  C   UNL     1       7.316  -5.239   7.794  0.00  0.00    +0.236 C 
ATOM     20  N   UNL     1       6.962  -3.887   8.246  0.00  0.00    -0.355 N 
ATOM     21  C   UNL     1       6.067  -4.009   9.183  0.00  0.00    +0.061 A 
ATOM     22  C   UNL     1       5.342  -3.031  10.005  0.00  0.00    +0.027 A 
ATOM     23  C   UNL     1       4.451  -3.463  10.921  0.00  0.00    +0.002 A 
ATOM     24  C   UNL     1       4.179  -4.827  11.130  0.00  0.00    +0.002 A 
ATOM     25  C   UNL     1       4.788  -5.805  10.431  0.00  0.00    +0.027 A 
ATOM     26  C   UNL     1       5.779  -5.453   9.404  0.00  0.00    +0.061 A 
ATOM     27  N   UNL     1       6.507  -6.167   8.595  0.00  0.00    -0.355 N 
ATOM     28  H   UNL     1       7.329  -3.055   7.907  0.00  0.00    +0.162 HD
ATOM     29  H   UNL     1       6.513  -7.135   8.531  0.00  0.00    +0.162 HD
ENDBRANCH  18  19
ENDBRANCH  17  18
ENDBRANCH  14  17
ENDBRANCH   4  13
BRANCH   1  30
ATOM     30  C   UNL     1       0.959  -2.587   0.677  0.00  0.00    +0.322 C 
ATOM     31  O   UNL     1       0.359  -3.527   0.212  0.00  0.00    -0.250 OA
BRANCH  30  32
ATOM     32  O   UNL     1       1.022  -1.430  -0.001  0.00  0.00    -0.464 OA
BRANCH  32  34
ATOM     33  C   UNL     1       0.540   0.006  -1.884  0.00  0.00    +0.048 C 
ATOM     34  C   UNL     1       0.359  -1.381  -1.266  0.00  0.00    +0.229 C 
ENDBRANCH  32  34
ENDBRANCH  30  32
ENDBRANCH   1  30
TORSDOF 8
