REMARK  Name = ZINC41583972
REMARK  10 active torsions:
REMARK  status: ('A' for Active; 'I' for Inactive)
REMARK    1  A    between atoms: C_1  and  C_2
REMARK    2  A    between atoms: C_5  and  C_36
REMARK    3  A    between atoms: N_8  and  C_10
REMARK    4  A    between atoms: C_10  and  C_11
REMARK    5  A    between atoms: C_12  and  O_35
REMARK    6  A    between atoms: C_18  and  C_31
REMARK    7  A    between atoms: C_19  and  O_22
REMARK    8  A    between atoms: O_22  and  C_23
REMARK    9  A    between atoms: C_26  and  O_29
REMARK   10  A    between atoms: O_29  and  C_30
REMARK                            x       y       z     vdW  Elec       q    Type
REMARK                         _______ _______ _______ _____ _____    ______ ____
ROOT
ATOM      1  C   UNL     1       2.758  -2.150   2.522  0.00  0.00    +0.020 A 
ATOM      2  C   UNL     1       3.578  -3.061   1.877  0.00  0.00    +0.122 A 
ATOM      3  C   UNL     1       4.920  -2.768   1.646  0.00  0.00    +0.046 A 
ATOM      4  C   UNL     1       5.447  -1.575   2.054  0.00  0.00    +0.019 A 
ATOM      5  C   UNL     1       4.634  -0.646   2.705  0.00  0.00    +0.068 A 
ATOM      6  C   UNL     1       3.276  -0.932   2.937  0.00  0.00    +0.144 A 
ATOM      7  O   UNL     1       2.499  -0.025   3.562  0.00  0.00    -0.447 OA
ATOM      8  C   UNL     1       2.968   1.160   3.975  0.00  0.00    +0.254 A 
ATOM      9  C   UNL     1       4.250   1.538   3.799  0.00  0.00    +0.222 A 
ATOM     10  C   UNL     1       5.162   0.651   3.161  0.00  0.00    +0.235 A 
ATOM     11  O   UNL     1       6.330   0.958   2.986  0.00  0.00    -0.283 OA
ENDROOT
BRANCH   8  12
ATOM     12  C   UNL     1       2.023   2.110   4.666  0.00  0.00    +0.454 C 
ATOM     13  F   UNL     1       2.736   3.219   5.133  0.00  0.00    -0.163 F 
ATOM     14  F   UNL     1       1.043   2.533   3.761  0.00  0.00    -0.163 F 
ATOM     15  F   UNL     1       1.413   1.459   5.744  0.00  0.00    -0.163 F 
ENDBRANCH   8  12
BRANCH   2  16
ATOM     16  O   UNL     1       3.070  -4.251   1.466  0.00  0.00    -0.506 OA
ATOM     17  H   UNL     1       2.710  -4.236   0.569  0.00  0.00    +0.292 HD
ENDBRANCH   2  16
BRANCH   1  18
ATOM     18  C   UNL     1       1.308  -2.478   2.766  0.00  0.00    -0.036 C 
BRANCH  18  24
ATOM     19  C   UNL     1      -0.132   1.431   0.195  0.00  0.00    +0.005 C 
ATOM     20  C   UNL     1      -0.199  -0.094   0.290  0.00  0.00    -0.031 C 
ATOM     21  C   UNL     1      -1.661  -0.536   0.406  0.00  0.00    +0.003 C 
ATOM     22  C   UNL     1      -1.713  -2.056   0.579  0.00  0.00    -0.031 C 
ATOM     23  C   UNL     1      -0.888  -2.453   1.805  0.00  0.00    -0.075 C 
ATOM     24  N   UNL     1       0.504  -2.027   1.622  0.00  0.00    +0.383 N 
ATOM     25  C   UNL     1       0.570  -0.564   1.526  0.00  0.00    -0.075 C 
ATOM     26  C   UNL     1      -3.164  -2.499   0.773  0.00  0.00    +0.005 C 
ATOM     27  H   UNL     1       0.871  -2.435   0.774  0.00  0.00    -0.081 HD
ENDBRANCH  18  24
ENDBRANCH   1  18
BRANCH   9  28
ATOM     28  O   UNL     1       4.671   2.755   4.239  0.00  0.00    -0.448 OA
BRANCH  28  29
ATOM     29  C   UNL     1       5.041   3.677   3.311  0.00  0.00    +0.129 A 
ATOM     30  C   UNL     1       4.869   3.408   1.960  0.00  0.00    +0.050 A 
ATOM     31  C   UNL     1       5.245   4.345   1.017  0.00  0.00    +0.049 A 
ATOM     32  C   UNL     1       5.794   5.553   1.420  0.00  0.00    +0.120 A 
ATOM     33  C   UNL     1       5.966   5.821   2.769  0.00  0.00    +0.049 A 
ATOM     34  C   UNL     1       5.585   4.888   3.713  0.00  0.00    +0.050 A 
BRANCH  32  35
ATOM     35  O   UNL     1       6.164   6.474   0.491  0.00  0.00    -0.495 OA
ATOM     36  C   UNL     1       6.723   7.697   0.976  0.00  0.00    +0.277 C 
ENDBRANCH  32  35
ENDBRANCH  28  29
ENDBRANCH   9  28
TORSDOF 7
