REMARK  Name = ZINC35495563
REMARK  4 active torsions:
REMARK  status: ('A' for Active; 'I' for Inactive)
REMARK    1  A    between atoms: C_1  and  N_2
REMARK    2  A    between atoms: N_2  and  C_3
REMARK    3  A    between atoms: C_3  and  C_5
REMARK    4  A    between atoms: C_3  and  C_15
REMARK                            x       y       z     vdW  Elec       q    Type
REMARK                         _______ _______ _______ _____ _____    ______ ____
ROOT
ATOM      1  C   UNL     1       0.690  -0.478  -1.207  0.00  0.00    +0.026 C 
ENDROOT
BRANCH   1   2
ATOM      2  C   UNL     1       0.603  -1.981  -1.277  0.00  0.00    -0.054 A 
ATOM      3  C   UNL     1       0.741  -2.738  -0.128  0.00  0.00    +0.004 A 
ATOM      4  C   UNL     1       0.663  -4.114  -0.186  0.00  0.00    +0.024 A 
ATOM      5  C   UNL     1       0.443  -4.752  -1.406  0.00  0.00    +0.037 A 
ATOM      6  C   UNL     1       0.306  -3.980  -2.553  0.00  0.00    -0.017 A 
ATOM      7  C   UNL     1       0.380  -2.606  -2.491  0.00  0.00    +0.008 A 
ATOM      8  C   UNL     1       0.082  -4.947  -3.692  0.00  0.00    +0.133 C 
ATOM      9  C   UNL     1       0.115  -6.309  -3.030  0.00  0.00    +0.222 C 
ATOM     10  O   UNL     1      -0.024  -7.381  -3.581  0.00  0.00    -0.275 OA
ATOM     11  N   UNL     1       0.327  -6.106  -1.719  0.00  0.00    -0.285 N 
ATOM     12  H   UNL     1       0.391  -6.820  -1.065  0.00  0.00    +0.155 HD
ENDBRANCH   1   2
BRANCH   1  13
ATOM     13  C   UNL     1       2.137  -0.060  -1.158  0.00  0.00    +0.097 A 
ATOM     14  C   UNL     1       2.860   0.395  -2.197  0.00  0.00    +0.044 A 
ATOM     15  C   UNL     1       4.157   0.666  -1.706  0.00  0.00    +0.057 A 
ATOM     16  C   UNL     1       4.150   0.361  -0.395  0.00  0.00    +0.170 A 
ATOM     17  O   UNL     1       2.922  -0.072  -0.068  0.00  0.00    -0.454 OA
ATOM     18 BR   UNL     1       5.617   0.524   0.787  0.00  0.00    -0.008 Br
ENDBRANCH   1  13
BRANCH   1  20
ATOM     19  C   UNL     1      -0.018   1.465   0.010  0.00  0.00    -0.099 C 
ATOM     20  N   UNL     1       0.002  -0.004   0.002  0.00  0.00    +0.386 N 
ATOM     21  H   UNL     1       0.490  -0.338   0.820  0.00  0.00    -0.085 HD
ATOM     22  H   UNL     1      -0.945  -0.353   0.009  0.00  0.00    -0.085 HD
ENDBRANCH   1  20
TORSDOF 3
