REMARK  Name = ZINC02051430
REMARK  13 active torsions:
REMARK  status: ('A' for Active; 'I' for Inactive)
REMARK    1  A    between atoms: C_1  and  C_2
REMARK    2  A    between atoms: C_2  and  C_3
REMARK    3  A    between atoms: C_2  and  C_4
REMARK    4  A    between atoms: C_7  and  C_10
REMARK    5  A    between atoms: C_16  and  C_35
REMARK    6  A    between atoms: C_17  and  C_26
REMARK    7  A    between atoms: C_19  and  C_22
REMARK    8  A    between atoms: C_20  and  N_21
REMARK    9  A    between atoms: C_22  and  O_24
REMARK   10  A    between atoms: O_24  and  C_25
REMARK   11  A    between atoms: C_29  and  C_32
REMARK   12  A    between atoms: C_32  and  C_33
REMARK   13  A    between atoms: C_32  and  C_34
REMARK                            x       y       z     vdW  Elec       q    Type
REMARK                         _______ _______ _______ _____ _____    ______ ____
ROOT
ATOM      1  C   UNL     1      -2.628   1.227  -1.009  0.00  0.00    +0.028 C 
ATOM      2  C   UNL     1      -3.778   1.836  -0.624  0.00  0.00    +0.080 A 
ATOM      3  C   UNL     1      -5.076   1.243  -0.278  0.00  0.00    +0.271 A 
ATOM      4  O   UNL     1      -5.240   0.038  -0.313  0.00  0.00    -0.266 OA
ATOM      5  N   UNL     1      -6.081   2.066   0.084  0.00  0.00    -0.257 N 
ATOM      6  C   UNL     1      -5.825   3.424   0.094  0.00  0.00    +0.104 A 
ATOM      7  C   UNL     1      -6.736   4.372   0.429  0.00  0.00    +0.072 C 
ATOM      8  C   UNL     1      -8.130   3.925   0.820  0.00  0.00    +0.102 C 
ATOM      9  C   UNL     1      -8.371   2.429   0.796  0.00  0.00    +0.087 C 
ATOM     10  C   UNL     1      -7.354   1.610   0.438  0.00  0.00    +0.115 C 
ATOM     11  S   UNL     1      -4.122   3.575  -0.408  0.00  0.00    -0.065 S 
ENDROOT
BRANCH   1  15
ATOM     12  C   UNL     1       0.949   3.477  -1.354  0.00  0.00    -0.045 A 
ATOM     13  C   UNL     1       0.912   2.170  -1.809  0.00  0.00    +0.004 A 
ATOM     14  C   UNL     1      -0.246   1.430  -1.696  0.00  0.00    +0.008 A 
ATOM     15  C   UNL     1      -1.387   2.006  -1.127  0.00  0.00    -0.024 A 
ATOM     16  C   UNL     1      -1.339   3.326  -0.664  0.00  0.00    +0.008 A 
ATOM     17  C   UNL     1      -0.173   4.052  -0.784  0.00  0.00    +0.004 A 
BRANCH  12  19
ATOM     18  C   UNL     1       1.957   5.516  -2.342  0.00  0.00    +0.012 C 
ATOM     19  C   UNL     1       2.219   4.278  -1.482  0.00  0.00    +0.013 C 
ATOM     20  C   UNL     1       2.689   4.713  -0.092  0.00  0.00    +0.012 C 
ENDBRANCH  12  19
ENDBRANCH   1  15
BRANCH   8  21
ATOM     21  C   UNL     1      -9.114   4.576  -0.117  0.00  0.00    -0.035 A 
ATOM     22  C   UNL     1      -9.032   4.341  -1.477  0.00  0.00    +0.005 A 
ATOM     23  C   UNL     1      -9.939   4.934  -2.337  0.00  0.00    +0.004 A 
ATOM     24  C   UNL     1     -10.920   5.770  -1.837  0.00  0.00    -0.045 A 
ATOM     25  C   UNL     1     -10.998   6.009  -0.478  0.00  0.00    +0.004 A 
ATOM     26  C   UNL     1     -10.096   5.411   0.382  0.00  0.00    +0.005 A 
BRANCH  24  27
ATOM     27  C   UNL     1     -11.905   6.421  -2.774  0.00  0.00    +0.013 C 
ATOM     28  C   UNL     1     -11.151   7.295  -3.779  0.00  0.00    +0.012 C 
ATOM     29  C   UNL     1     -12.685   5.340  -3.524  0.00  0.00    +0.012 C 
ENDBRANCH  24  27
ENDBRANCH   8  21
BRANCH  10  30
ATOM     30  N   UNL     1      -7.585   0.260   0.420  0.00  0.00    -0.344 N 
ATOM     31  H   UNL     1      -8.445  -0.081   0.129  0.00  0.00    +0.144 HD
ATOM     32  H   UNL     1      -6.888  -0.355   0.699  0.00  0.00    +0.144 HD
ENDBRANCH  10  30
BRANCH   9  33
ATOM     33  C   UNL     1      -9.625   1.901   1.140  0.00  0.00    +0.339 C 
ATOM     34  O   UNL     1      -9.777   0.696   1.221  0.00  0.00    -0.245 OA
BRANCH  33  35
ATOM     35  O   UNL     1     -10.663   2.731   1.382  0.00  0.00    -0.465 OA
ATOM     36  C   UNL     1     -11.911   2.125   1.727  0.00  0.00    +0.280 C 
ENDBRANCH  33  35
ENDBRANCH   9  33
BRANCH   7  37
ATOM     37  C   UNL     1      -6.388   5.761   0.414  0.00  0.00    +0.098 C 
ATOM     38  N   UNL     1      -6.113   6.864   0.402  0.00  0.00    -0.191 NA
ENDBRANCH   7  37
TORSDOF 8
