REMARK  Name = ZINC38643520
REMARK  7 active torsions:
REMARK  status: ('A' for Active; 'I' for Inactive)
REMARK    1  A    between atoms: C_4  and  C_7
REMARK    2  A    between atoms: C_8  and  C_9
REMARK    3  A    between atoms: C_12  and  N_19
REMARK    4  A    between atoms: C_14  and  S_15
REMARK    5  A    between atoms: N_20  and  C_21
REMARK    6  A    between atoms: C_25  and  S_32
REMARK    7  A    between atoms: C_30  and  N_31
REMARK                            x       y       z     vdW  Elec       q    Type
REMARK                         _______ _______ _______ _____ _____    ______ ____
ROOT
ATOM      1  N   UNL     1       8.849  -4.489   0.348  0.00  0.00    -0.149 NA
ATOM      2  N   UNL     1       9.858  -3.700   0.198  0.00  0.00    -0.147 NA
ENDROOT
BRANCH   2   3
ATOM      3  C   UNL     1      11.115  -4.171   0.360  0.00  0.00    +0.114 A 
ATOM      4  C   UNL     1      11.357  -5.598   0.579  0.00  0.00    +0.011 A 
ATOM      5  C   UNL     1      10.303  -6.517   0.627  0.00  0.00    +0.012 A 
ATOM      6  C   UNL     1      10.570  -7.839   0.832  0.00  0.00    +0.030 A 
ATOM      7  C   UNL     1      11.878  -8.286   0.995  0.00  0.00    +0.120 A 
ATOM      8  C   UNL     1      12.927  -7.418   0.955  0.00  0.00    +0.038 A 
ATOM      9  C   UNL     1      12.688  -6.049   0.744  0.00  0.00    -0.014 A 
ATOM     10  C   UNL     1      13.747  -5.124   0.694  0.00  0.00    +0.010 A 
ATOM     11  C   UNL     1      13.509  -3.802   0.490  0.00  0.00    +0.025 A 
ATOM     12  C   UNL     1      12.215  -3.306   0.317  0.00  0.00    +0.053 A 
BRANCH   7  13
ATOM     13  S   UNL     1      12.182 -10.002   1.259  0.00  0.00    +0.140 S 
ATOM     14  O   UNL     1      13.386 -10.097   2.070  0.00  0.00    -0.140 OA
ATOM     15  O   UNL     1      11.018 -10.536   1.950  0.00  0.00    -0.140 OA
ATOM     16  O   UNL     1      12.361 -10.606  -0.052  0.00  0.00    -0.043 OA
ENDBRANCH   7  13
BRANCH  12  17
ATOM     17  N   UNL     1      12.018  -1.948   0.106  0.00  0.00    -0.356 N 
ATOM     18  H   UNL     1      11.130  -1.612  -0.092  0.00  0.00    +0.142 HD
ATOM     19  H   UNL     1      12.769  -1.336   0.157  0.00  0.00    +0.142 HD
ENDBRANCH  12  17
ENDBRANCH   2   3
BRANCH   1  23
ATOM     20  C   UNL     1       5.011  -3.050  -0.150  0.00  0.00    +0.003 A 
ATOM     21  C   UNL     1       6.107  -2.193  -0.311  0.00  0.00    +0.012 A 
ATOM     22  C   UNL     1       7.375  -2.669  -0.147  0.00  0.00    +0.030 A 
ATOM     23  C   UNL     1       7.582  -4.014   0.184  0.00  0.00    +0.088 A 
ATOM     24  C   UNL     1       6.486  -4.870   0.346  0.00  0.00    +0.059 A 
ATOM     25  C   UNL     1       5.217  -4.393   0.187  0.00  0.00    +0.129 A 
BRANCH  25  26
ATOM     26  S   UNL     1       3.838  -5.470   0.398  0.00  0.00    +0.140 S 
ATOM     27  O   UNL     1       3.464  -5.942  -0.926  0.00  0.00    -0.140 OA
ATOM     28  O   UNL     1       4.279  -6.557   1.259  0.00  0.00    -0.140 OA
ATOM     29  O   UNL     1       2.780  -4.684   1.014  0.00  0.00    -0.043 OA
ENDBRANCH  25  26
BRANCH  20  31
ATOM     30  C   UNL     1       3.417  -1.213  -0.323  0.00  0.00    +0.008 C 
ATOM     31  C   UNL     1       3.644  -2.538  -0.327  0.00  0.00    +0.010 C 
BRANCH  30  35
ATOM     32  C   UNL     1      -0.527   0.266  -0.837  0.00  0.00    +0.000 A 
ATOM     33  C   UNL     1       0.523   1.151  -0.665  0.00  0.00    +0.001 A 
ATOM     34  C   UNL     1       1.808   0.678  -0.498  0.00  0.00    +0.008 A 
ATOM     35  C   UNL     1       2.047  -0.699  -0.501  0.00  0.00    -0.025 A 
ATOM     36  C   UNL     1       0.982  -1.587  -0.675  0.00  0.00    +0.008 A 
ATOM     37  C   UNL     1      -0.297  -1.099  -0.842  0.00  0.00    +0.001 A 
ENDBRANCH  30  35
ENDBRANCH  20  31
ENDBRANCH   1  23
TORSDOF 7
