REMARK  Name = ZINC10058965
REMARK  9 active torsions:
REMARK  status: ('A' for Active; 'I' for Inactive)
REMARK    1  A    between atoms: C_1  and  C_2
REMARK    2  A    between atoms: C_2  and  C_3
REMARK    3  A    between atoms: C_2  and  C_4
REMARK    4  A    between atoms: C_2  and  C_5
REMARK    5  A    between atoms: C_14  and  O_37
REMARK    6  A    between atoms: C_16  and  C_19
REMARK    7  A    between atoms: C_23  and  O_25
REMARK    8  A    between atoms: O_25  and  C_26
REMARK    9  A    between atoms: C_26  and  C_28
REMARK                            x       y       z     vdW  Elec       q    Type
REMARK                         _______ _______ _______ _____ _____    ______ ____
ROOT
ATOM      1  C   UNL     1       2.602  -4.988  -0.493  0.00  0.00    -0.000 C 
ATOM      2  C   UNL     1       1.490  -4.504  -1.428  0.00  0.00    +0.009 C 
ATOM      3  C   UNL     1       0.753  -3.324  -0.793  0.00  0.00    +0.037 C 
ATOM      4  C   UNL     1       1.774  -2.269  -0.382  0.00  0.00    -0.023 A 
ATOM      5  C   UNL     1       3.082  -2.588  -0.246  0.00  0.00    -0.004 A 
ATOM      6  S   UNL     1       3.871  -1.075   0.237  0.00  0.00    -0.078 S 
ATOM      7  C   UNL     1       2.498  -0.054   0.261  0.00  0.00    +0.080 A 
ATOM      8  C   UNL     1       1.434  -0.883  -0.115  0.00  0.00    +0.068 A 
ATOM      9  C   UNL     1       0.084  -0.267  -0.184  0.00  0.00    +0.220 C 
ATOM     10  N   UNL     1       0.004   1.033  -0.099  0.00  0.00    -0.223 NA
ATOM     11  C   UNL     1       1.149   1.933  -0.036  0.00  0.00    +0.224 C 
ATOM     12  N   UNL     1       2.325   1.276   0.562  0.00  0.00    -0.313 N 
ATOM     13  C   UNL     1       3.713  -3.928  -0.458  0.00  0.00    +0.046 C 
ATOM     14  H   UNL     1       2.943   1.755   1.135  0.00  0.00    +0.149 HD
ENDROOT
BRANCH  11  15
ATOM     15  C   UNL     1       1.495   2.386  -1.431  0.00  0.00    -0.002 A 
ATOM     16  C   UNL     1       2.804   2.698  -1.752  0.00  0.00    +0.007 A 
ATOM     17  C   UNL     1       3.125   3.114  -3.030  0.00  0.00    +0.004 A 
ATOM     18  C   UNL     1       2.138   3.219  -3.992  0.00  0.00    +0.046 A 
ATOM     19  C   UNL     1       0.824   2.908  -3.673  0.00  0.00    +0.132 A 
ATOM     20  C   UNL     1       0.506   2.486  -2.390  0.00  0.00    +0.053 A 
BRANCH  19  21
ATOM     21  O   UNL     1      -0.148   3.011  -4.617  0.00  0.00    -0.422 OA
BRANCH  21  22
ATOM     22  C   UNL     1      -1.057   3.992  -4.454  0.00  0.00    +0.345 C 
ATOM     23  O   UNL     1      -0.925   4.800  -3.556  0.00  0.00    -0.245 OA
BRANCH  22  24
ATOM     24  C   UNL     1      -2.212   4.086  -5.366  0.00  0.00    +0.063 A 
ATOM     25  C   UNL     1      -2.363   3.161  -6.403  0.00  0.00    +0.019 A 
ATOM     26  C   UNL     1      -3.445   3.247  -7.251  0.00  0.00    +0.050 A 
ATOM     27  C   UNL     1      -4.384   4.257  -7.086  0.00  0.00    +0.166 A 
ATOM     28  C   UNL     1      -4.236   5.187  -6.056  0.00  0.00    +0.167 A 
ATOM     29  C   UNL     1      -3.156   5.103  -5.199  0.00  0.00    +0.064 A 
ATOM     30  O   UNL     1      -5.280   6.066  -6.110  0.00  0.00    -0.453 OA
ATOM     31  C   UNL     1      -5.843   5.912  -7.426  0.00  0.00    +0.466 C 
ATOM     32  O   UNL     1      -5.518   4.555  -7.782  0.00  0.00    -0.453 OA
ENDBRANCH  22  24
ENDBRANCH  21  22
ENDBRANCH  19  21
ENDBRANCH  11  15
BRANCH   1  34
ATOM     33  C   UNL     1       4.293  -6.782  -0.087  0.00  0.00    +0.011 C 
ATOM     34  C   UNL     1       3.170  -6.310  -1.013  0.00  0.00    -0.035 C 
ATOM     35  C   UNL     1       2.061  -7.363  -1.047  0.00  0.00    +0.011 C 
ATOM     36  C   UNL     1       3.724  -6.107  -2.425  0.00  0.00    +0.011 C 
ENDBRANCH   1  34
BRANCH   9  37
ATOM     37  O   UNL     1      -1.025  -1.027  -0.330  0.00  0.00    -0.492 OA
ATOM     38  H   UNL     1      -1.848  -0.521  -0.363  0.00  0.00    +0.294 HD
ENDBRANCH   9  37
TORSDOF 6
