REMARK  Name = ZINC12433658
REMARK  6 active torsions:
REMARK  status: ('A' for Active; 'I' for Inactive)
REMARK    1  A    between atoms: C_1  and  C_2
REMARK    2  A    between atoms: C_9  and  C_26
REMARK    3  A    between atoms: C_10  and  C_11
REMARK    4  A    between atoms: C_11  and  N_65
REMARK    5  A    between atoms: C_12  and  N_65
REMARK    6  A    between atoms: C_18  and  C_20
REMARK                            x       y       z     vdW  Elec       q    Type
REMARK                         _______ _______ _______ _____ _____    ______ ____
ROOT
ATOM      1  C   UNL     1       2.390   3.896   0.805  0.00  0.00    +0.047 C 
ATOM      2  C   UNL     1       1.133   3.130   0.484  0.00  0.00    -0.008 A 
ATOM      3  C   UNL     1       1.165   1.776   0.370  0.00  0.00    +0.008 A 
ATOM      4  C   UNL     1      -0.016   1.074   0.071  0.00  0.00    +0.018 A 
ATOM      5  C   UNL     1      -1.176   1.738  -0.109  0.00  0.00    +0.093 A 
ATOM      6  N   UNL     1      -1.225   3.099   0.007  0.00  0.00    -0.304 N 
ATOM      7  C   UNL     1      -0.089   3.812   0.299  0.00  0.00    +0.141 A 
ATOM      8  N   UNL     1      -0.404   5.095   0.349  0.00  0.00    -0.223 NA
ATOM      9  C   UNL     1      -1.719   5.234   0.097  0.00  0.00    +0.146 A 
ATOM     10  C   UNL     1      -2.245   3.993  -0.118  0.00  0.00    +0.039 A 
ENDROOT
BRANCH   9  11
ATOM     11  C   UNL     1      -2.463   6.508   0.060  0.00  0.00    +0.267 C 
ATOM     12  O   UNL     1      -3.673   6.503  -0.062  0.00  0.00    -0.268 OA
ATOM     13  N   UNL     1      -1.802   7.678   0.162  0.00  0.00    -0.296 N 
ATOM     14  C   UNL     1      -0.333   7.711   0.156  0.00  0.00    +0.108 C 
ATOM     15  C   UNL     1       0.130   8.687  -0.936  0.00  0.00    +0.019 C 
ATOM     16  C   UNL     1      -0.527  10.050  -0.706  0.00  0.00    +0.003 C 
ATOM     17  C   UNL     1      -2.048   9.907  -0.801  0.00  0.00    +0.019 C 
ATOM     18  C   UNL     1      -2.536   8.945   0.287  0.00  0.00    +0.108 C 
ENDBRANCH   9  11
BRANCH  10  19
ATOM     19  C   UNL     1      -3.683   3.672  -0.435  0.00  0.00    -0.025 C 
BRANCH  19  20
ATOM     20  N   UNL     1      -4.418   3.449   0.824  0.00  0.00    +0.385 N 
ATOM     21  H   UNL     1      -4.368   4.298   1.400  0.00  0.00    -0.085 HD
ATOM     22  H   UNL     1      -3.989   2.666   1.332  0.00  0.00    -0.085 HD
BRANCH  20  23
ATOM     23  C   UNL     1      -5.831   3.133   0.544  0.00  0.00    -0.064 C 
ATOM     24  C   UNL     1      -6.623   4.432   0.385  0.00  0.00    -0.015 C 
ATOM     25  C   UNL     1      -8.091   4.103   0.103  0.00  0.00    -0.002 C 
ATOM     26  C   UNL     1      -8.665   3.295   1.268  0.00  0.00    +0.000 C 
ATOM     27  C   UNL     1      -7.873   1.996   1.427  0.00  0.00    +0.006 C 
ATOM     28  C   UNL     1      -6.405   2.325   1.709  0.00  0.00    +0.005 C 
BRANCH  28  29
ATOM     29  C   UNL     1      -5.625   1.045   1.866  0.00  0.00    -0.046 A 
ATOM     30  C   UNL     1      -5.574   0.135   0.827  0.00  0.00    +0.004 A 
ATOM     31  C   UNL     1      -4.855  -1.037   0.969  0.00  0.00    +0.000 A 
ATOM     32  C   UNL     1      -4.193  -1.303   2.153  0.00  0.00    +0.000 A 
ATOM     33  C   UNL     1      -4.248  -0.395   3.194  0.00  0.00    +0.000 A 
ATOM     34  C   UNL     1      -4.964   0.779   3.050  0.00  0.00    +0.004 A 
ENDBRANCH  28  29
ENDBRANCH  20  23
ENDBRANCH  19  20
ENDBRANCH  10  19
TORSDOF 5
