REMARK  Name = ZINC02140376
REMARK  6 active torsions:
REMARK  status: ('A' for Active; 'I' for Inactive)
REMARK    1  A    between atoms: C_16  and  C_18
REMARK    2  A    between atoms: C_16  and  N_22
REMARK    3  A    between atoms: C_16  and  N_52
REMARK    4  A    between atoms: C_23  and  C_25
REMARK    5  A    between atoms: C_25  and  O_26
REMARK    6  A    between atoms: O_26  and  C_27
REMARK                            x       y       z     vdW  Elec       q    Type
REMARK                         _______ _______ _______ _____ _____    ______ ____
ROOT
ATOM      1  C   UNL     1       3.250  -6.427  -0.062  0.00  0.00    +0.071 C 
ENDROOT
BRANCH   1  15
ATOM      2  C   UNL     1      -0.221  -8.374   3.750  0.00  0.00    +0.007 A 
ATOM      3  C   UNL     1       0.900  -9.013   3.208  0.00  0.00    +0.022 A 
ATOM      4  C   UNL     1       2.130  -8.442   3.297  0.00  0.00    +0.023 A 
ATOM      5  N   UNL     1       2.305  -7.284   3.974  0.00  0.00    -0.312 N 
ATOM      6  C   UNL     1       1.226  -6.608   4.441  0.00  0.00    +0.251 A 
ATOM      7  O   UNL     1       1.376  -5.505   4.943  0.00  0.00    -0.268 OA
ATOM      8  C   UNL     1      -0.058  -7.162   4.356  0.00  0.00    +0.070 A 
ATOM      9  C   UNL     1       3.621  -6.709   4.252  0.00  0.00    +0.126 C 
ATOM     10  C   UNL     1       4.696  -7.252   3.325  0.00  0.00    -0.007 C 
ATOM     11  C   UNL     1       4.575  -8.777   3.261  0.00  0.00    +0.011 C 
ATOM     12  C   UNL     1       3.266  -9.120   2.564  0.00  0.00    +0.020 C 
ATOM     13  C   UNL     1       3.292  -8.525   1.148  0.00  0.00    -0.066 C 
ATOM     14  C   UNL     1       4.601  -6.644   1.933  0.00  0.00    -0.071 C 
ATOM     15  N   UNL     1       3.344  -7.051   1.273  0.00  0.00    +0.395 N 
ATOM     16  H   UNL     1       2.551  -6.737   1.845  0.00  0.00    -0.079 HD
ENDBRANCH   1  15
BRANCH   1  17
ATOM     17  C   UNL     1       1.977  -5.579  -0.108  0.00  0.00    +0.194 C 
ATOM     18 CL   UNL     1       0.547  -6.621   0.238  0.00  0.00    -0.084 Cl
ATOM     19 CL   UNL     1       2.081  -4.271   1.128  0.00  0.00    -0.084 Cl
ATOM     20 CL   UNL     1       1.804  -4.845  -1.746  0.00  0.00    -0.084 Cl
ENDBRANCH   1  17
BRANCH   1  21
ATOM     21  N   UNL     1       3.185  -7.462  -1.097  0.00  0.00    -0.322 N 
ATOM     22  C   UNL     1       4.258  -7.704  -1.876  0.00  0.00    +0.249 C 
ATOM     23  O   UNL     1       5.277  -7.065  -1.720  0.00  0.00    -0.272 OA
ATOM     24  H   UNL     1       2.370  -7.973  -1.221  0.00  0.00    +0.147 HD
BRANCH  22  25
ATOM     25  C   UNL     1       4.191  -8.769  -2.940  0.00  0.00    +0.324 C 
BRANCH  25  26
ATOM     26  O   UNL     1       5.443  -8.835  -3.627  0.00  0.00    -0.483 OA
BRANCH  26  27
ATOM     27  C   UNL     1       5.551  -9.751  -4.625  0.00  0.00    +0.121 A 
ATOM     28  C   UNL     1       6.739  -9.869  -5.332  0.00  0.00    +0.048 A 
ATOM     29  C   UNL     1       6.848 -10.802  -6.346  0.00  0.00    +0.042 A 
ATOM     30  C   UNL     1       5.773 -11.618  -6.656  0.00  0.00    +0.124 A 
ATOM     31  C   UNL     1       4.588 -11.501  -5.950  0.00  0.00    +0.042 A 
ATOM     32  C   UNL     1       4.476 -10.570  -4.936  0.00  0.00    +0.048 A 
ATOM     33  F   UNL     1       5.881 -12.528  -7.648  0.00  0.00    -0.205 F 
ENDBRANCH  26  27
ENDBRANCH  25  26
ENDBRANCH  22  25
ENDBRANCH   1  21
TORSDOF 6
