REMARK  Name = ZINC27558828
REMARK  13 active torsions:
REMARK  status: ('A' for Active; 'I' for Inactive)
REMARK    1  A    between atoms: C_2  and  C_8
REMARK    2  A    between atoms: C_5  and  O_7
REMARK    3  A    between atoms: C_9  and  C_10
REMARK    4  A    between atoms: C_10  and  O_12
REMARK    5  A    between atoms: O_12  and  C_13
REMARK    6  A    between atoms: C_13  and  C_15
REMARK    7  A    between atoms: C_13  and  C_18
REMARK    8  A    between atoms: C_18  and  O_20
REMARK    9  A    between atoms: C_18  and  C_32
REMARK   10  A    between atoms: O_20  and  C_21
REMARK   11  A    between atoms: C_21  and  C_23
REMARK   12  A    between atoms: C_24  and  C_25
REMARK   13  A    between atoms: C_28  and  O_31
REMARK                            x       y       z     vdW  Elec       q    Type
REMARK                         _______ _______ _______ _____ _____    ______ ____
ROOT
ATOM      1  C   UNL     1       3.397   7.772   0.010  0.00  0.00    +0.340 C 
ENDROOT
BRANCH   1   2
ATOM      2  C   UNL     1       3.353   8.281  -1.408  0.00  0.00    +0.400 C 
ATOM      3  O   UNL     1       3.393   7.495  -2.339  0.00  0.00    -0.242 OA
ATOM      4  O   UNL     1       3.277   9.478  -1.624  0.00  0.00    -0.242 OA
ENDBRANCH   1   2
BRANCH   1   5
ATOM      5  O   UNL     1       3.486   6.346   0.002  0.00  0.00    -0.442 OA
BRANCH   5   6
ATOM      6  C   UNL     1       2.324   5.660   0.009  0.00  0.00    +0.333 C 
ATOM      7  O   UNL     1       1.264   6.258   0.022  0.00  0.00    -0.246 OA
BRANCH   6   9
ATOM      8  C   UNL     1       1.174   3.556   0.009  0.00  0.00    +0.015 C 
ATOM      9  C   UNL     1       2.337   4.242   0.002  0.00  0.00    +0.092 C 
BRANCH   8  11
ATOM     10  C   UNL     1      -0.017   1.372   0.010  0.00  0.00    +0.011 A 
ATOM     11  C   UNL     1       1.188   2.086   0.002  0.00  0.00    -0.025 A 
ATOM     12  C   UNL     1       2.405   1.395  -0.013  0.00  0.00    +0.011 A 
ATOM     13  C   UNL     1       2.413   0.019  -0.021  0.00  0.00    +0.046 A 
ATOM     14  C   UNL     1       1.214  -0.685  -0.014  0.00  0.00    +0.117 A 
ATOM     15  C   UNL     1       0.002  -0.004   0.002  0.00  0.00    +0.046 A 
BRANCH  14  16
ATOM     16  O   UNL     1       1.227  -2.042  -0.021  0.00  0.00    -0.507 OA
ATOM     17  H   UNL     1       1.239  -2.441   0.860  0.00  0.00    +0.292 HD
ENDBRANCH  14  16
ENDBRANCH   8  11
ENDBRANCH   6   9
ENDBRANCH   5   6
ENDBRANCH   1   5
BRANCH   1  18
ATOM     18  C   UNL     1       4.619   8.355   0.723  0.00  0.00    +0.340 C 
BRANCH  18  19
ATOM     19  C   UNL     1       4.733   7.752   2.099  0.00  0.00    +0.400 C 
ATOM     20  O   UNL     1       5.687   7.047   2.379  0.00  0.00    -0.242 OA
ATOM     21  O   UNL     1       3.870   7.970   2.933  0.00  0.00    -0.242 OA
ENDBRANCH  18  19
BRANCH  18  22
ATOM     22  O   UNL     1       5.797   8.053  -0.028  0.00  0.00    -0.442 OA
BRANCH  22  23
ATOM     23  C   UNL     1       6.816   8.935   0.051  0.00  0.00    +0.333 C 
ATOM     24  O   UNL     1       6.706   9.932   0.738  0.00  0.00    -0.246 OA
BRANCH  23  25
ATOM     25  C   UNL     1       8.015   8.698  -0.668  0.00  0.00    +0.092 C 
ATOM     26  C   UNL     1       9.035   9.581  -0.590  0.00  0.00    +0.015 C 
BRANCH  26  27
ATOM     27  C   UNL     1      10.277   9.335  -1.335  0.00  0.00    -0.025 A 
ATOM     28  C   UNL     1      10.405   8.191  -2.132  0.00  0.00    +0.011 A 
ATOM     29  C   UNL     1      11.570   7.967  -2.828  0.00  0.00    +0.046 A 
ATOM     30  C   UNL     1      12.621   8.874  -2.741  0.00  0.00    +0.117 A 
ATOM     31  C   UNL     1      12.499  10.011  -1.951  0.00  0.00    +0.046 A 
ATOM     32  C   UNL     1      11.336  10.248  -1.256  0.00  0.00    +0.011 A 
BRANCH  30  33
ATOM     33  O   UNL     1      13.768   8.648  -3.430  0.00  0.00    -0.507 OA
ATOM     34  H   UNL     1      13.774   9.026  -4.320  0.00  0.00    +0.292 HD
ENDBRANCH  30  33
ENDBRANCH  26  27
ENDBRANCH  23  25
ENDBRANCH  22  23
ENDBRANCH  18  22
ENDBRANCH   1  18
TORSDOF 13
