REMARK  Name = ZINC37516307
REMARK  4 active torsions:
REMARK  status: ('A' for Active; 'I' for Inactive)
REMARK    1  A    between atoms: C_6  and  N_7
REMARK    2  A    between atoms: N_7  and  C_8
REMARK    3  A    between atoms: C_8  and  C_9
REMARK    4  A    between atoms: C_12  and  N_16
REMARK                            x       y       z     vdW  Elec       q    Type
REMARK                         _______ _______ _______ _____ _____    ______ ____
ROOT
ATOM      1  N   UNL     1      -1.196  -0.721   0.010  0.00  0.00    -0.340 N 
ATOM      2  H   UNL     1      -1.181  -1.691   0.005  0.00  0.00    +0.146 HD
ENDROOT
BRANCH   1   8
ATOM      3  C   UNL     1      -0.017   1.385   0.010  0.00  0.00    +0.023 A 
ATOM      4  C   UNL     1       1.171   2.088   0.002  0.00  0.00    +0.006 A 
ATOM      5  C   UNL     1       2.382   1.415  -0.014  0.00  0.00    -0.044 A 
ATOM      6  C   UNL     1       2.404   0.032  -0.021  0.00  0.00    -0.042 A 
ATOM      7  C   UNL     1       1.216  -0.677  -0.013  0.00  0.00    +0.026 A 
ATOM      8  C   UNL     1       0.002  -0.004   0.002  0.00  0.00    +0.028 A 
ATOM      9  C   UNL     1       3.837  -0.456  -0.038  0.00  0.00    +0.036 C 
ATOM     10  C   UNL     1       4.674   0.763  -0.481  0.00  0.00    +0.009 C 
ATOM     11  C   UNL     1       3.798   1.949  -0.025  0.00  0.00    +0.036 C 
ENDBRANCH   1   8
BRANCH   1  12
ATOM     12  C   UNL     1      -2.476  -0.009   0.027  0.00  0.00    +0.138 C 
BRANCH  12  13
ATOM     13  C   UNL     1      -3.606  -1.006   0.033  0.00  0.00    -0.016 A 
ATOM     14  C   UNL     1      -4.270  -1.305  -1.143  0.00  0.00    +0.008 A 
ATOM     15  C   UNL     1      -5.306  -2.220  -1.137  0.00  0.00    +0.033 A 
ATOM     16  C   UNL     1      -5.679  -2.836   0.043  0.00  0.00    +0.127 A 
ATOM     17  C   UNL     1      -5.016  -2.537   1.218  0.00  0.00    +0.048 A 
ATOM     18  C   UNL     1      -3.976  -1.625   1.212  0.00  0.00    +0.025 A 
ATOM     19 BR   UNL     1      -3.063  -1.222   2.819  0.00  0.00    -0.050 Br
BRANCH  16  20
ATOM     20  N   UNL     1      -6.789  -3.815   0.048  0.00  0.00    +0.056 N 
ATOM     21  O   UNL     1      -7.370  -4.076  -0.980  0.00  0.00    -0.126 OA
ATOM     22  O   UNL     1      -7.116  -4.353   1.080  0.00  0.00    -0.126 OA
ENDBRANCH  16  20
ENDBRANCH  12  13
ENDBRANCH   1  12
TORSDOF 4
