REMARK  Name = ZINC09449669
REMARK  6 active torsions:
REMARK  status: ('A' for Active; 'I' for Inactive)
REMARK    1  A    between atoms: C_1  and  S_2
REMARK    2  A    between atoms: S_2  and  C_3
REMARK    3  A    between atoms: C_8  and  C_26
REMARK    4  A    between atoms: C_14  and  C_19
REMARK    5  A    between atoms: C_24  and  O_25
REMARK    6  A    between atoms: C_29  and  O_32
REMARK                            x       y       z     vdW  Elec       q    Type
REMARK                         _______ _______ _______ _____ _____    ______ ____
ROOT
ATOM      1  C   UNL     1      -1.702  -0.454   0.016  0.00  0.00    +0.210 A 
ATOM      2  N   UNL     1      -2.733   0.404   0.025  0.00  0.00    -0.187 NA
ATOM      3  C   UNL     1      -3.854  -0.264   0.030  0.00  0.00    +0.219 A 
ATOM      4  N   UNL     1      -3.558  -1.587   0.032  0.00  0.00    -0.220 N 
ATOM      5  N   UNL     1      -2.167  -1.684   0.014  0.00  0.00    -0.141 NA
ATOM      6  C   UNL     1      -4.570  -2.636   0.049  0.00  0.00    +0.175 C 
ATOM      7  C   UNL     1      -5.927  -2.052  -0.277  0.00  0.00    +0.041 C 
ATOM      8  C   UNL     1      -6.156  -0.722  -0.271  0.00  0.00    +0.020 C 
ATOM      9  N   UNL     1      -5.166   0.182   0.032  0.00  0.00    -0.287 N 
ATOM     10  C   UNL     1      -7.520  -0.167  -0.608  0.00  0.00    +0.060 C 
ATOM     11  C   UNL     1      -8.600  -1.163  -0.181  0.00  0.00    +0.035 C 
ATOM     12  C   UNL     1      -8.347  -2.489  -0.905  0.00  0.00    +0.088 C 
ATOM     13  C   UNL     1      -6.955  -2.960  -0.589  0.00  0.00    +0.164 C 
ATOM     14  O   UNL     1      -6.713  -4.151  -0.603  0.00  0.00    -0.292 OA
ATOM     15  H   UNL     1      -5.379   1.105   0.241  0.00  0.00    +0.155 HD
ENDROOT
BRANCH  11  16
ATOM     16  C   UNL     1      -9.959  -0.629  -0.555  0.00  0.00    -0.002 A 
ATOM     17  C   UNL     1     -10.259  -0.371  -1.879  0.00  0.00    +0.007 A 
ATOM     18  C   UNL     1     -11.505   0.118  -2.224  0.00  0.00    +0.001 A 
ATOM     19  C   UNL     1     -12.454   0.350  -1.245  0.00  0.00    +0.004 A 
ATOM     20  C   UNL     1     -12.159   0.093   0.080  0.00  0.00    +0.046 A 
ATOM     21  C   UNL     1     -10.911  -0.403   0.427  0.00  0.00    +0.120 A 
BRANCH  21  22
ATOM     22  O   UNL     1     -10.620  -0.662   1.729  0.00  0.00    -0.506 OA
ATOM     23  H   UNL     1     -10.239   0.089   2.204  0.00  0.00    +0.292 HD
ENDBRANCH  21  22
ENDBRANCH  11  16
BRANCH   6  24
ATOM     24  C   UNL     1      -4.614  -3.265   1.418  0.00  0.00    -0.018 A 
ATOM     25  C   UNL     1      -4.919  -2.492   2.523  0.00  0.00    +0.009 A 
ATOM     26  C   UNL     1      -4.960  -3.066   3.779  0.00  0.00    +0.046 A 
ATOM     27  C   UNL     1      -4.696  -4.420   3.931  0.00  0.00    +0.117 A 
ATOM     28  C   UNL     1      -4.391  -5.193   2.820  0.00  0.00    +0.046 A 
ATOM     29  C   UNL     1      -4.356  -4.615   1.566  0.00  0.00    +0.009 A 
BRANCH  27  30
ATOM     30  O   UNL     1      -4.735  -4.987   5.165  0.00  0.00    -0.507 OA
ATOM     31  H   UNL     1      -5.604  -5.331   5.412  0.00  0.00    +0.292 HD
ENDBRANCH  27  30
ENDBRANCH   6  24
BRANCH   1  33
ATOM     32  C   UNL     1      -0.022   1.810   0.012  0.00  0.00    +0.093 C 
ATOM     33  S   UNL     1       0.002  -0.004   0.002  0.00  0.00    -0.088 S 
ENDBRANCH   1  33
TORSDOF 5
