REMARK  Name = ZINC29433905
REMARK  9 active torsions:
REMARK  status: ('A' for Active; 'I' for Inactive)
REMARK    1  A    between atoms: C_1  and  C_2
REMARK    2  A    between atoms: C_2  and  C_3
REMARK    3  A    between atoms: C_3  and  N_4
REMARK    4  A    between atoms: N_4  and  C_5
REMARK    5  A    between atoms: C_8  and  S_24
REMARK    6  A    between atoms: C_10  and  N_11
REMARK    7  A    between atoms: N_11  and  S_12
REMARK    8  A    between atoms: S_12  and  C_15
REMARK    9  A    between atoms: S_24  and  N_27
REMARK                            x       y       z     vdW  Elec       q    Type
REMARK                         _______ _______ _______ _____ _____    ______ ____
ROOT
ATOM      1  C   UNL     1       2.294   1.192  -0.701  0.00  0.00    +0.050 A 
ATOM      2  C   UNL     1       3.480   1.909  -0.710  0.00  0.00    +0.027 A 
ATOM      3  C   UNL     1       3.572   3.101  -0.015  0.00  0.00    +0.030 A 
ATOM      4  C   UNL     1       2.482   3.585   0.684  0.00  0.00    +0.107 A 
ATOM      5  C   UNL     1       1.293   2.879   0.693  0.00  0.00    +0.054 A 
ATOM      6  C   UNL     1       1.192   1.682  -0.000  0.00  0.00    +0.071 A 
ENDROOT
BRANCH   4   7
ATOM      7  S   UNL     1       2.608   5.104   1.567  0.00  0.00    +0.056 S 
ATOM      8  O   UNL     1       3.655   5.845   0.954  0.00  0.00    -0.153 OA
ATOM      9  O   UNL     1       1.286   5.613   1.691  0.00  0.00    -0.153 OA
BRANCH   7  10
ATOM     10  N   UNL     1       3.120   4.740   3.099  0.00  0.00    -0.204 NA
ATOM     11  H   UNL     1       3.211   5.666   3.685  0.00  0.00    +0.144 HD
ATOM     12  H   UNL     1       4.098   4.239   3.050  0.00  0.00    +0.144 HD
ENDBRANCH   7  10
ENDBRANCH   4   7
BRANCH   1  13
ATOM     13  N   UNL     1       2.200  -0.018  -1.399  0.00  0.00    -0.342 N 
ATOM     14  H   UNL     1       1.256  -0.584  -1.395  0.00  0.00    +0.146 HD
BRANCH  13  15
ATOM     15  C   UNL     1       3.359  -0.532  -2.134  0.00  0.00    +0.101 C 
BRANCH  15  17
ATOM     16  C   UNL     1       4.202  -2.394  -3.570  0.00  0.00    +0.005 C 
ATOM     17  C   UNL     1       2.992  -1.859  -2.802  0.00  0.00    +0.015 C 
ENDBRANCH  15  17
ENDBRANCH  13  15
ENDBRANCH   1  13
BRANCH   6  18
ATOM     18  N   UNL     1      -0.011   0.966   0.007  0.00  0.00    -0.214 N 
ATOM     19  H   UNL     1       0.004  -0.134   0.006  0.00  0.00    +0.174 HD
BRANCH  18  20
ATOM     20  S   UNL     1      -1.456   1.774   0.019  0.00  0.00    +0.072 S 
ATOM     21  O   UNL     1      -2.475   0.784  -0.009  0.00  0.00    -0.150 OA
ATOM     22  O   UNL     1      -1.369   2.749   1.049  0.00  0.00    -0.150 OA
BRANCH  20  23
ATOM     23  C   UNL     1      -1.571   2.658  -1.502  0.00  0.00    +0.109 A 
ATOM     24  C   UNL     1      -2.148   2.061  -2.607  0.00  0.00    +0.029 A 
ATOM     25  C   UNL     1      -2.237   2.755  -3.797  0.00  0.00    +0.006 A 
ATOM     26  C   UNL     1      -1.750   4.048  -3.888  0.00  0.00    -0.044 A 
ATOM     27  C   UNL     1      -1.173   4.645  -2.783  0.00  0.00    -0.042 A 
ATOM     28  C   UNL     1      -1.090   3.949  -1.589  0.00  0.00    +0.032 A 
ATOM     29  C   UNL     1      -0.724   6.047  -3.135  0.00  0.00    +0.036 C 
ATOM     30  C   UNL     1      -1.476   6.398  -4.436  0.00  0.00    +0.009 C 
ATOM     31  C   UNL     1      -1.728   5.008  -5.058  0.00  0.00    +0.036 C 
ENDBRANCH  20  23
ENDBRANCH  18  20
ENDBRANCH   6  18
TORSDOF 8
