REMARK  Name = ZINC20867840
REMARK  9 active torsions:
REMARK  status: ('A' for Active; 'I' for Inactive)
REMARK    1  A    between atoms: C_1  and  C_2
REMARK    2  A    between atoms: C_2  and  O_3
REMARK    3  A    between atoms: O_3  and  C_4
REMARK    4  A    between atoms: C_7  and  C_10
REMARK    5  A    between atoms: C_10  and  C_12
REMARK    6  A    between atoms: C_13  and  N_21
REMARK    7  A    between atoms: C_22  and  C_24
REMARK    8  A    between atoms: C_29  and  C_36
REMARK    9  A    between atoms: C_31  and  C_35
REMARK                            x       y       z     vdW  Elec       q    Type
REMARK                         _______ _______ _______ _____ _____    ______ ____
ROOT
ATOM      1  C   UNL     1      -2.192  -0.339   0.206  0.00  0.00    +0.197 A 
ATOM      2  C   UNL     1      -2.061   0.992  -0.140  0.00  0.00    +0.091 A 
ATOM      3  C   UNL     1      -3.421   1.466  -0.420  0.00  0.00    +0.042 A 
ATOM      4  C   UNL     1      -3.958   2.691  -0.820  0.00  0.00    +0.013 A 
ATOM      5  C   UNL     1      -5.306   2.812  -1.010  0.00  0.00    +0.001 A 
ATOM      6  C   UNL     1      -6.143   1.722  -0.812  0.00  0.00    +0.004 A 
ATOM      7  C   UNL     1      -5.632   0.503  -0.422  0.00  0.00    +0.047 A 
ATOM      8  C   UNL     1      -4.263   0.357  -0.223  0.00  0.00    +0.138 A 
ATOM      9  O   UNL     1      -3.497  -0.687   0.149  0.00  0.00    -0.450 OA
ENDROOT
BRANCH   2  10
ATOM     10  N   UNL     1      -0.888   1.729  -0.203  0.00  0.00    -0.275 N 
ATOM     11  C   UNL     1      -0.890   3.031   0.146  0.00  0.00    +0.284 C 
ATOM     12  O   UNL     1      -1.937   3.584   0.422  0.00  0.00    -0.266 OA
ATOM     13  H   UNL     1       0.045   1.252  -0.537  0.00  0.00    +0.155 HD
BRANCH  11  14
ATOM     14  C   UNL     1       0.383   3.786   0.199  0.00  0.00    +0.194 A 
ATOM     15  C   UNL     1       0.350   5.094   0.553  0.00  0.00    +0.103 A 
ATOM     16  C   UNL     1       1.614   5.843   0.611  0.00  0.00    +0.193 A 
ATOM     17  O   UNL     1       1.645   7.020   0.927  0.00  0.00    -0.287 OA
ATOM     18  C   UNL     1       2.843   5.104   0.263  0.00  0.00    +0.067 A 
ATOM     19  C   UNL     1       4.092   5.724   0.280  0.00  0.00    -0.036 A 
ATOM     20  C   UNL     1       5.208   5.006  -0.049  0.00  0.00    +0.007 A 
ATOM     21  C   UNL     1       5.104   3.667  -0.400  0.00  0.00    -0.047 A 
ATOM     22  C   UNL     1       3.878   3.038  -0.424  0.00  0.00    +0.050 A 
ATOM     23  C   UNL     1       2.729   3.749  -0.092  0.00  0.00    +0.140 A 
ATOM     24  O   UNL     1       1.522   3.151  -0.110  0.00  0.00    -0.450 OA
ATOM     25  C   UNL     1       6.346   2.893  -0.760  0.00  0.00    +0.044 C 
ATOM     26  C   UNL     1       4.211   7.177   0.660  0.00  0.00    +0.044 C 
ENDBRANCH  11  14
ENDBRANCH   2  10
BRANCH   1  27
ATOM     27  C   UNL     1      -1.127  -1.202   0.563  0.00  0.00    +0.230 C 
ATOM     28  O   UNL     1       0.025  -0.812   0.488  0.00  0.00    -0.283 OA
BRANCH  27  32
ATOM     29  C   UNL     1      -1.950  -5.152   1.893  0.00  0.00    +0.121 A 
ATOM     30  C   UNL     1      -0.648  -4.665   1.930  0.00  0.00    +0.046 A 
ATOM     31  C   UNL     1      -0.378  -3.385   1.500  0.00  0.00    +0.015 A 
ATOM     32  C   UNL     1      -1.413  -2.576   1.025  0.00  0.00    +0.026 A 
ATOM     33  C   UNL     1      -2.721  -3.068   0.994  0.00  0.00    +0.015 A 
ATOM     34  C   UNL     1      -2.982  -4.350   1.421  0.00  0.00    +0.046 A 
BRANCH  29  35
ATOM     35  O   UNL     1      -2.213  -6.414   2.318  0.00  0.00    -0.492 OA
BRANCH  35  37
ATOM     36  C   UNL     1      -3.671  -8.287   2.770  0.00  0.00    +0.048 C 
ATOM     37  C   UNL     1      -3.572  -6.851   2.252  0.00  0.00    +0.225 C 
ENDBRANCH  35  37
ENDBRANCH  29  35
ENDBRANCH  27  32
ENDBRANCH   1  27
TORSDOF 6
