REMARK  Name = ZINC36525035
REMARK  14 active torsions:
REMARK  status: ('A' for Active; 'I' for Inactive)
REMARK    1  A    between atoms: C_1  and  C_2
REMARK    2  A    between atoms: C_2  and  C_3
REMARK    3  A    between atoms: C_2  and  C_4
REMARK    4  A    between atoms: C_2  and  N_5
REMARK    5  A    between atoms: C_6  and  C_8
REMARK    6  A    between atoms: C_8  and  C_10
REMARK    7  A    between atoms: C_8  and  N_22
REMARK    8  A    between atoms: C_19  and  O_20
REMARK    9  A    between atoms: O_20  and  C_21
REMARK   10  A    between atoms: N_22  and  C_23
REMARK   11  A    between atoms: C_24  and  C_26
REMARK   12  A    between atoms: C_26  and  C_28
REMARK   13  A    between atoms: C_26  and  O_34
REMARK   14  A    between atoms: O_34  and  C_35
REMARK                            x       y       z     vdW  Elec       q    Type
REMARK                         _______ _______ _______ _____ _____    ______ ____
ROOT
ATOM      1  C   UNL     1       2.249  -0.919  -2.504  0.00  0.00    +0.196 C 
ENDROOT
BRANCH   1   2
ATOM      2  C   UNL     1       1.680  -0.289  -3.750  0.00  0.00    +0.031 A 
ATOM      3  C   UNL     1       1.264  -1.095  -4.822  0.00  0.00    -0.009 A 
ATOM      4  C   UNL     1       1.367  -2.496  -4.764  0.00  0.00    +0.009 A 
ATOM      5  C   UNL     1       0.954  -3.245  -5.822  0.00  0.00    +0.001 A 
ATOM      6  C   UNL     1       0.430  -2.646  -6.966  0.00  0.00    +0.001 A 
ATOM      7  C   UNL     1       0.316  -1.292  -7.058  0.00  0.00    +0.008 A 
ATOM      8  C   UNL     1       0.732  -0.485  -5.986  0.00  0.00    -0.017 A 
ATOM      9  C   UNL     1       0.628   0.916  -6.045  0.00  0.00    +0.012 A 
ATOM     10  C   UNL     1       1.039   1.669  -4.990  0.00  0.00    +0.046 A 
ATOM     11  C   UNL     1       1.560   1.069  -3.839  0.00  0.00    +0.126 A 
BRANCH  11  12
ATOM     12  O   UNL     1       1.957   1.847  -2.798  0.00  0.00    -0.495 OA
ATOM     13  C   UNL     1       1.705   3.249  -2.904  0.00  0.00    +0.277 C 
ENDBRANCH  11  12
ENDBRANCH   1   2
BRANCH   1  15
ATOM     14  N   UNL     1       0.150  -0.688  -1.215  0.00  0.00    -0.309 N 
ATOM     15  C   UNL     1       1.473  -0.445  -1.302  0.00  0.00    +0.239 C 
ATOM     16  O   UNL     1       2.039   0.155  -0.413  0.00  0.00    -0.273 OA
ATOM     17  H   UNL     1      -0.302  -1.168  -1.926  0.00  0.00    +0.149 HD
BRANCH  14  19
ATOM     18  C   UNL     1      -0.500   1.295   0.059  0.00  0.00    +0.031 C 
ATOM     19  C   UNL     1      -0.604  -0.228  -0.047  0.00  0.00    +0.026 C 
ATOM     20  C   UNL     1      -0.026  -0.867   1.218  0.00  0.00    +0.031 C 
ATOM     21  C   UNL     1      -2.072  -0.630  -0.197  0.00  0.00    +0.031 C 
ENDBRANCH  14  19
ENDBRANCH   1  15
BRANCH   1  22
ATOM     22  N   UNL     1       3.655  -0.534  -2.361  0.00  0.00    -0.286 N 
ATOM     23  C   UNL     1       4.008   0.860  -2.079  0.00  0.00    +0.133 C 
ATOM     24  C   UNL     1       4.624  -1.462  -2.488  0.00  0.00    +0.250 C 
ATOM     25  O   UNL     1       4.337  -2.602  -2.788  0.00  0.00    -0.272 OA
BRANCH  24  26
ATOM     26  C   UNL     1       6.064  -1.084  -2.257  0.00  0.00    +0.233 C 
BRANCH  26  27
ATOM     27  C   UNL     1       6.573  -0.298  -3.437  0.00  0.00    -0.010 A 
ATOM     28  C   UNL     1       6.807  -0.933  -4.642  0.00  0.00    +0.006 A 
ATOM     29  C   UNL     1       7.274  -0.212  -5.725  0.00  0.00    +0.000 A 
ATOM     30  C   UNL     1       7.506   1.145  -5.603  0.00  0.00    +0.000 A 
ATOM     31  C   UNL     1       7.271   1.781  -4.398  0.00  0.00    +0.000 A 
ATOM     32  C   UNL     1       6.801   1.061  -3.316  0.00  0.00    +0.006 A 
ENDBRANCH  26  27
BRANCH  26  33
ATOM     33  O   UNL     1       6.848  -2.268  -2.100  0.00  0.00    -0.366 OA
ATOM     34  C   UNL     1       6.953  -2.722  -0.749  0.00  0.00    +0.195 C 
ENDBRANCH  26  33
ENDBRANCH  24  26
ENDBRANCH   1  22
TORSDOF 8
