REMARK  Name = ZINC63558010
REMARK  7 active torsions:
REMARK  status: ('A' for Active; 'I' for Inactive)
REMARK    1  A    between atoms: C_1  and  O_2
REMARK    2  A    between atoms: O_2  and  C_3
REMARK    3  A    between atoms: C_9  and  C_12
REMARK    4  A    between atoms: C_12  and  C_13
REMARK    5  A    between atoms: C_13  and  N_14
REMARK    6  A    between atoms: C_16  and  C_21
REMARK    7  A    between atoms: N_23  and  C_24
REMARK                            x       y       z     vdW  Elec       q    Type
REMARK                         _______ _______ _______ _____ _____    ______ ____
ROOT
ATOM      1  N   UNL     1      -0.756  -6.795   1.423  0.00  0.00    -0.300 N 
ATOM      2  C   UNL     1      -1.181  -8.197   1.322  0.00  0.00    +0.121 C 
ATOM      3  C   UNL     1       0.034  -9.030   1.785  0.00  0.00    +0.101 C 
ATOM      4  C   UNL     1       1.209  -8.073   1.480  0.00  0.00    +0.110 C 
ATOM      5  C   UNL     1       0.582  -6.696   1.502  0.00  0.00    +0.216 C 
ATOM      6  O   UNL     1       1.198  -5.654   1.581  0.00  0.00    -0.276 OA
ENDROOT
BRANCH   3   7
ATOM      7  C   UNL     1       0.152 -10.302   0.985  0.00  0.00    +0.222 C 
ATOM      8  O   UNL     1      -0.654 -10.546   0.112  0.00  0.00    -0.275 OA
ATOM      9  N   UNL     1       1.153 -11.168   1.240  0.00  0.00    -0.285 N 
ATOM     10  H   UNL     1       1.835 -10.943   1.891  0.00  0.00    +0.155 HD
BRANCH   9  11
ATOM     11  C   UNL     1       1.207 -12.393   0.565  0.00  0.00    +0.033 A 
ATOM     12  C   UNL     1       1.671 -13.527   1.218  0.00  0.00    +0.024 A 
ATOM     13  C   UNL     1       1.723 -14.735   0.549  0.00  0.00    +0.017 A 
ATOM     14  C   UNL     1       1.314 -14.815  -0.770  0.00  0.00    +0.018 A 
ATOM     15  C   UNL     1       0.851 -13.686  -1.423  0.00  0.00    +0.017 A 
ATOM     16  C   UNL     1       0.792 -12.477  -0.758  0.00  0.00    +0.024 A 
ATOM     17 BR   UNL     1       1.387 -16.470  -1.682  0.00  0.00    -0.050 Br
ENDBRANCH   9  11
ENDBRANCH   3   7
BRANCH   1  18
ATOM     18  C   UNL     1      -1.672  -5.652   1.431  0.00  0.00    +0.112 C 
BRANCH  18  19
ATOM     19  C   UNL     1      -1.911  -5.180  -0.004  0.00  0.00    +0.052 C 
BRANCH  19  26
ATOM     20  C   UNL     1      -1.202  -0.642  -0.029  0.00  0.00    +0.121 A 
ATOM     21  C   UNL     1      -2.376   0.131  -0.017  0.00  0.00    +0.047 A 
ATOM     22  C   UNL     1      -3.609  -0.419   0.001  0.00  0.00    +0.029 A 
ATOM     23  C   UNL     1      -3.755  -1.878   0.008  0.00  0.00    +0.043 A 
ATOM     24  N   UNL     1      -4.811  -2.652   0.025  0.00  0.00    -0.380 N 
ATOM     25  C   UNL     1      -4.365  -4.050   0.025  0.00  0.00    +0.144 C 
ATOM     26  C   UNL     1      -2.854  -4.004   0.004  0.00  0.00    -0.040 C 
ATOM     27  C   UNL     1      -2.519  -2.694  -0.005  0.00  0.00    +0.002 A 
ATOM     28  C   UNL     1      -1.228  -1.997  -0.029  0.00  0.00    +0.055 A 
ATOM     29  H   UNL     1      -5.733  -2.352   0.037  0.00  0.00    +0.160 HD
BRANCH  20  31
ATOM     30  C   UNL     1      -0.018   1.419  -0.046  0.00  0.00    +0.277 C 
ATOM     31  O   UNL     1       0.001  -0.010  -0.047  0.00  0.00    -0.495 OA
ENDBRANCH  20  31
ENDBRANCH  19  26
ENDBRANCH  18  19
ENDBRANCH   1  18
TORSDOF 6
