REMARK  Name = ZINC38614017
REMARK  5 active torsions:
REMARK  status: ('A' for Active; 'I' for Inactive)
REMARK    1  A    between atoms: C_1  and  O_2
REMARK    2  A    between atoms: O_2  and  C_3
REMARK    3  A    between atoms: C_3  and  C_5
REMARK    4  A    between atoms: C_7  and  N_16
REMARK    5  A    between atoms: C_17  and  C_19
REMARK                            x       y       z     vdW  Elec       q    Type
REMARK                         _______ _______ _______ _____ _____    ______ ____
ROOT
ATOM      1  C   UNL     1      -0.280  -3.544  -2.791  0.00  0.00    +0.234 C 
ATOM      2  C   UNL     1      -0.766  -2.614  -1.701  0.00  0.00    +0.053 C 
ATOM      3  C   UNL     1       0.352  -1.917  -1.276  0.00  0.00    +0.019 A 
ATOM      4  C   UNL     1       0.537  -0.917  -0.291  0.00  0.00    +0.031 A 
ATOM      5  C   UNL     1       1.774  -0.400  -0.082  0.00  0.00    +0.042 A 
ATOM      6  C   UNL     1       2.882  -0.829  -0.820  0.00  0.00    +0.022 A 
ATOM      7  C   UNL     1       2.778  -1.782  -1.778  0.00  0.00    +0.027 A 
ATOM      8  C   UNL     1       1.518  -2.372  -2.054  0.00  0.00    +0.045 A 
ATOM      9  N   UNL     1       1.160  -3.300  -2.921  0.00  0.00    -0.367 N 
ATOM     10 CL   UNL     1       1.985   0.826   1.128  0.00  0.00    -0.084 Cl
ATOM     11  H   UNL     1       1.753  -3.749  -3.543  0.00  0.00    +0.161 HD
ENDROOT
BRANCH   2  12
ATOM     12  N   UNL     1      -2.040  -2.488  -1.235  0.00  0.00    -0.286 N 
ATOM     13  C   UNL     1      -3.049  -3.141  -1.845  0.00  0.00    +0.223 C 
ATOM     14  O   UNL     1      -2.811  -3.921  -2.742  0.00  0.00    -0.275 OA
ATOM     15  H   UNL     1      -2.221  -1.929  -0.463  0.00  0.00    +0.155 HD
BRANCH  13  16
ATOM     16  C   UNL     1      -4.472  -2.901  -1.413  0.00  0.00    +0.049 C 
ATOM     17  C   UNL     1      -4.820  -1.423  -1.601  0.00  0.00    +0.019 C 
ATOM     18  C   UNL     1      -6.266  -1.180  -1.163  0.00  0.00    -0.008 C 
ATOM     19  C   UNL     1      -7.207  -2.038  -2.010  0.00  0.00    +0.007 C 
ATOM     20  C   UNL     1      -6.859  -3.516  -1.821  0.00  0.00    -0.008 C 
ATOM     21  C   UNL     1      -5.414  -3.759  -2.260  0.00  0.00    +0.019 C 
ATOM     22  C   UNL     1      -7.014  -3.892  -0.346  0.00  0.00    +0.021 C 
ATOM     23  C   UNL     1      -6.073  -3.034   0.501  0.00  0.00    +0.028 C 
ATOM     24  C   UNL     1      -6.421  -1.556   0.312  0.00  0.00    +0.021 C 
ATOM     25  C   UNL     1      -4.627  -3.278   0.062  0.00  0.00    +0.034 C 
ATOM     26 BR   UNL     1      -6.272  -3.518   2.396  0.00  0.00    -0.084 Br
ENDBRANCH  13  16
ENDBRANCH   2  12
BRANCH   1  27
ATOM     27  C   UNL     1      -0.530  -4.978  -2.400  0.00  0.00    +0.335 C 
ATOM     28  O   UNL     1       0.172  -5.510  -1.574  0.00  0.00    -0.248 OA
BRANCH  27  30
ATOM     29  C   UNL     1      -1.714  -7.018  -2.551  0.00  0.00    +0.280 C 
ATOM     30  O   UNL     1      -1.534  -5.663  -2.969  0.00  0.00    -0.466 OA
ENDBRANCH  27  30
ENDBRANCH   1  27
TORSDOF 4
