REMARK  Name = ZINC63572221
REMARK  4 active torsions:
REMARK  status: ('A' for Active; 'I' for Inactive)
REMARK    1  A    between atoms: C_1  and  O_2
REMARK    2  A    between atoms: O_2  and  C_3
REMARK    3  A    between atoms: C_6  and  C_9
REMARK    4  A    between atoms: N_27  and  C_28
REMARK                            x       y       z     vdW  Elec       q    Type
REMARK                         _______ _______ _______ _____ _____    ______ ____
ROOT
ATOM      1  C   UNL     1       3.012  -2.898  -4.506  0.00  0.00    +0.134 C 
ATOM      2  C   UNL     1       4.269  -3.581  -3.957  0.00  0.00    +0.131 C 
ATOM      3  C   UNL     1       3.809  -4.497  -2.830  0.00  0.00    -0.035 C 
ATOM      4  C   UNL     1       4.496  -4.138  -1.752  0.00  0.00    +0.001 A 
ATOM      5  C   UNL     1       4.538  -4.693  -0.389  0.00  0.00    +0.030 A 
ATOM      6  C   UNL     1       5.361  -4.061   0.490  0.00  0.00    +0.042 A 
ATOM      7  C   UNL     1       6.136  -2.946   0.153  0.00  0.00    +0.022 A 
ATOM      8  C   UNL     1       6.162  -2.374  -1.077  0.00  0.00    +0.027 A 
ATOM      9  C   UNL     1       5.341  -2.952  -2.088  0.00  0.00    +0.043 A 
ATOM     10  N   UNL     1       5.194  -2.618  -3.358  0.00  0.00    -0.375 N 
ATOM     11 CL   UNL     1       5.454  -4.668   2.114  0.00  0.00    -0.084 Cl
ATOM     12  C   UNL     1       2.715  -5.521  -3.013  0.00  0.00    +0.052 C 
ATOM     13  C   UNL     1       1.522  -4.785  -3.649  0.00  0.00    +0.114 C 
ATOM     14  N   UNL     1       2.000  -3.939  -4.749  0.00  0.00    -0.276 N 
ATOM     15  C   UNL     1       1.511  -4.117  -5.992  0.00  0.00    +0.307 C 
ATOM     16  O   UNL     1       1.959  -3.471  -6.920  0.00  0.00    -0.252 OA
ATOM     17  N   UNL     1       0.525  -5.010  -6.206  0.00  0.00    -0.267 N 
ATOM     18  H   UNL     1       0.147  -5.504  -5.461  0.00  0.00    +0.156 HD
ATOM     19  H   UNL     1       5.613  -1.872  -3.816  0.00  0.00    +0.160 HD
ENDROOT
BRANCH  17  20
ATOM     20  C   UNL     1       0.045  -5.226  -7.504  0.00  0.00    +0.070 A 
ATOM     21  C   UNL     1       0.236  -4.263  -8.485  0.00  0.00    +0.026 A 
ATOM     22  C   UNL     1      -0.239  -4.478  -9.764  0.00  0.00    +0.002 A 
ATOM     23  C   UNL     1      -0.904  -5.651 -10.069  0.00  0.00    +0.003 A 
ATOM     24  C   UNL     1      -1.097  -6.613  -9.096  0.00  0.00    +0.040 A 
ATOM     25  C   UNL     1      -0.620  -6.407  -7.814  0.00  0.00    +0.145 A 
ATOM     26  F   UNL     1      -0.803  -7.350  -6.864  0.00  0.00    -0.204 F 
ENDBRANCH  17  20
BRANCH   1  30
ATOM     27  C   UNL     1       1.532  -0.081  -1.653  0.00  0.00    +0.120 A 
ATOM     28  C   UNL     1       1.829   0.329  -2.944  0.00  0.00    +0.046 A 
ATOM     29  C   UNL     1       2.308  -0.583  -3.865  0.00  0.00    +0.009 A 
ATOM     30  C   UNL     1       2.490  -1.905  -3.500  0.00  0.00    -0.024 A 
ATOM     31  C   UNL     1       2.194  -2.316  -2.213  0.00  0.00    +0.009 A 
ATOM     32  C   UNL     1       1.722  -1.406  -1.287  0.00  0.00    +0.046 A 
BRANCH  27  34
ATOM     33  C   UNL     1       0.892   2.161  -1.191  0.00  0.00    +0.277 C 
ATOM     34  O   UNL     1       1.062   0.814  -0.745  0.00  0.00    -0.495 OA
ENDBRANCH  27  34
ENDBRANCH   1  30
TORSDOF 3
