REMARK  Name = ZINC03811641
REMARK  6 active torsions:
REMARK  status: ('A' for Active; 'I' for Inactive)
REMARK    1  A    between atoms: C_1  and  C_2
REMARK    2  A    between atoms: C_2  and  C_38
REMARK    3  A    between atoms: C_7  and  C_12
REMARK    4  A    between atoms: C_8  and  O_11
REMARK    5  A    between atoms: C_12  and  S_13
REMARK    6  A    between atoms: S_13  and  N_16
REMARK                            x       y       z     vdW  Elec       q    Type
REMARK                         _______ _______ _______ _____ _____    ______ ____
ROOT
ATOM      1  N   UNL     1       0.196   1.653   0.030  0.00  0.00    -0.181 NA
ATOM      2  C   UNL     1      -1.048   2.397  -0.205  0.00  0.00    +0.113 C 
ATOM      3  C   UNL     1      -1.308   3.309   1.007  0.00  0.00    +0.048 C 
ATOM      4  C   UNL     1      -0.041   4.081   1.303  0.00  0.00    -0.057 C 
ATOM      5  C   UNL     1      -0.058   5.416   1.401  0.00  0.00    +0.007 C 
ATOM      6  C   UNL     1       1.219   6.147   1.559  0.00  0.00    -0.013 A 
ATOM      7  C   UNL     1       2.044   5.946   2.656  0.00  0.00    +0.010 A 
ATOM      8  C   UNL     1       3.233   6.647   2.741  0.00  0.00    +0.020 A 
ATOM      9  C   UNL     1       3.586   7.532   1.737  0.00  0.00    +0.041 A 
ATOM     10  C   UNL     1       2.757   7.729   0.646  0.00  0.00    +0.024 A 
ATOM     11  C   UNL     1       1.562   7.032   0.560  0.00  0.00    -0.038 A 
ATOM     12  C   UNL     1       0.651   7.247  -0.609  0.00  0.00    +0.040 C 
ATOM     13  C   UNL     1      -0.591   8.018  -0.254  0.00  0.00    +0.042 C 
ATOM     14  C   UNL     1      -1.561   7.292   0.639  0.00  0.00    -0.021 A 
ATOM     15  C   UNL     1      -1.354   6.128   1.353  0.00  0.00    +0.075 A 
ATOM     16  N   UNL     1      -2.349   5.578   2.060  0.00  0.00    -0.255 NA
ATOM     17  C   UNL     1      -3.547   6.108   2.131  0.00  0.00    +0.111 A 
ATOM     18  C   UNL     1      -3.825   7.285   1.460  0.00  0.00    +0.020 A 
ATOM     19  C   UNL     1      -2.830   7.881   0.711  0.00  0.00    +0.007 A 
ATOM     20 CL   UNL     1       5.084   8.403   1.847  0.00  0.00    -0.084 Cl
ATOM     21  C   UNL     1       1.246   3.307   1.487  0.00  0.00    +0.048 C 
ATOM     22  C   UNL     1       1.441   2.395   0.269  0.00  0.00    +0.113 C 
ENDROOT
BRANCH   1  23
ATOM     23  S   UNL     1       0.197  -0.003   0.019  0.00  0.00    +0.032 S 
ATOM     24  O   UNL     1      -0.905  -0.360  -0.804  0.00  0.00    -0.158 OA
ATOM     25  O   UNL     1       1.522  -0.362  -0.347  0.00  0.00    -0.158 OA
BRANCH  23  26
ATOM     26  C   UNL     1      -0.127  -0.481   1.739  0.00  0.00    +0.195 C 
BRANCH  26  32
ATOM     27  C   UNL     1       0.680  -2.212   4.273  0.00  0.00    +0.012 C 
ATOM     28  C   UNL     1      -0.418  -2.595   3.279  0.00  0.00    -0.022 C 
ATOM     29  C   UNL     1      -0.329  -4.104   2.857  0.00  0.00    -0.002 C 
ATOM     30  C   UNL     1      -1.361  -4.138   1.689  0.00  0.00    +0.005 C 
ATOM     31  C   UNL     1      -1.255  -2.733   1.025  0.00  0.00    +0.012 C 
ATOM     32  C   UNL     1      -0.148  -2.006   1.849  0.00  0.00    +0.023 C 
ATOM     33  C   UNL     1       1.181  -2.735   1.483  0.00  0.00    +0.123 C 
ATOM     34  C   UNL     1       1.061  -4.125   2.150  0.00  0.00    +0.036 C 
ATOM     35  C   UNL     1      -1.808  -2.224   3.800  0.00  0.00    +0.012 C 
BRANCH  33  36
ATOM     36  O   UNL     1       1.299  -2.872   0.065  0.00  0.00    -0.391 OA
ATOM     37  H   UNL     1       2.108  -3.319  -0.220  0.00  0.00    +0.210 HD
ENDBRANCH  33  36
ENDBRANCH  26  32
ENDBRANCH  23  26
ENDBRANCH   1  23
TORSDOF 4
