REMARK  Name = ZINC19714704
REMARK  9 active torsions:
REMARK  status: ('A' for Active; 'I' for Inactive)
REMARK    1  A    between atoms: C_1  and  C_2
REMARK    2  A    between atoms: C_10  and  C_13
REMARK    3  A    between atoms: N_15  and  C_16
REMARK    4  A    between atoms: C_16  and  C_18
REMARK    5  A    between atoms: C_16  and  C_19
REMARK    6  A    between atoms: C_19  and  C_20
REMARK    7  A    between atoms: N_22  and  C_31
REMARK    8  A    between atoms: C_26  and  O_29
REMARK    9  A    between atoms: O_29  and  C_30
REMARK                            x       y       z     vdW  Elec       q    Type
REMARK                         _______ _______ _______ _____ _____    ______ ____
ROOT
ATOM      1  C   UNL     1       3.625  -0.729  -0.035  0.00  0.00    +0.251 C 
ATOM      2  O   UNL     1       3.628  -1.943   0.046  0.00  0.00    -0.270 OA
ATOM      3  N   UNL     1       4.789  -0.058  -0.144  0.00  0.00    -0.308 N 
ATOM      4  H   UNL     1       4.793   1.042  -0.138  0.00  0.00    +0.149 HD
ENDROOT
BRANCH   1  14
ATOM      5  C   UNL     1      -1.144   3.634   0.079  0.00  0.00    +0.047 C 
ATOM      6  C   UNL     1      -1.178   2.127   0.051  0.00  0.00    -0.008 A 
ATOM      7  C   UNL     1      -2.372   1.467   0.046  0.00  0.00    +0.008 A 
ATOM      8  C   UNL     1      -2.386   0.067   0.026  0.00  0.00    +0.019 A 
ATOM      9  C   UNL     1      -1.222  -0.623   0.007  0.00  0.00    +0.096 A 
ATOM     10  N   UNL     1      -0.026   0.028   0.006  0.00  0.00    -0.267 N 
ATOM     11  C   UNL     1       0.020   1.393   0.025  0.00  0.00    +0.143 A 
ATOM     12  N   UNL     1       1.185   2.046   0.025  0.00  0.00    -0.236 NA
ATOM     13  C   UNL     1       2.336   1.406   0.006  0.00  0.00    +0.131 A 
ATOM     14  C   UNL     1       2.355   0.005  -0.015  0.00  0.00    +0.119 A 
ATOM     15  C   UNL     1       1.119  -0.687  -0.015  0.00  0.00    +0.271 A 
ATOM     16  O   UNL     1       1.090  -1.905  -0.033  0.00  0.00    -0.266 OA
ENDBRANCH   1  14
BRANCH   3  17
ATOM     17  C   UNL     1       6.050  -0.794  -0.270  0.00  0.00    +0.075 C 
ATOM     18  C   UNL     1       6.564  -1.167   1.121  0.00  0.00    +0.028 C 
BRANCH  17  19
ATOM     19  C   UNL     1       7.084   0.084  -0.978  0.00  0.00    +0.059 C 
BRANCH  19  20
ATOM     20  C   UNL     1       6.634   0.350  -2.391  0.00  0.00    -0.020 A 
ATOM     21  C   UNL     1       6.999  -0.334  -3.487  0.00  0.00    +0.090 A 
ATOM     22  N   UNL     1       6.387   0.193  -4.591  0.00  0.00    -0.349 N 
ATOM     23  C   UNL     1       5.600   1.264  -4.224  0.00  0.00    +0.049 A 
ATOM     24  C   UNL     1       5.722   1.409  -2.831  0.00  0.00    +0.007 A 
ATOM     25  C   UNL     1       5.028   2.426  -2.171  0.00  0.00    +0.056 A 
ATOM     26  C   UNL     1       4.226   3.285  -2.895  0.00  0.00    +0.121 A 
ATOM     27  C   UNL     1       4.108   3.139  -4.275  0.00  0.00    +0.047 A 
ATOM     28  C   UNL     1       4.787   2.140  -4.936  0.00  0.00    +0.030 A 
ATOM     29  C   UNL     1       6.548  -0.303  -5.960  0.00  0.00    +0.149 C 
BRANCH  26  30
ATOM     30  O   UNL     1       3.548   4.277  -2.259  0.00  0.00    -0.495 OA
ATOM     31  C   UNL     1       2.736   5.130  -3.067  0.00  0.00    +0.277 C 
ENDBRANCH  26  30
ENDBRANCH  19  20
ENDBRANCH  17  19
ENDBRANCH   3  17
TORSDOF 5
