REMARK  Name = ZINC15017854
REMARK  4 active torsions:
REMARK  status: ('A' for Active; 'I' for Inactive)
REMARK    1  A    between atoms: C_1  and  C_2
REMARK    2  A    between atoms: C_16  and  C_19
REMARK    3  A    between atoms: C_24  and  O_25
REMARK    4  A    between atoms: O_25  and  C_26
REMARK                            x       y       z     vdW  Elec       q    Type
REMARK                         _______ _______ _______ _____ _____    ______ ____
ROOT
ATOM      1  C   UNL     1      -0.926   0.920  -4.986  0.00  0.00    +0.044 C 
ATOM      2  C   UNL     1      -1.125   1.607  -3.660  0.00  0.00    -0.050 A 
ATOM      3  C   UNL     1      -1.850   2.783  -3.593  0.00  0.00    +0.005 A 
ATOM      4  C   UNL     1      -2.035   3.411  -2.378  0.00  0.00    +0.023 A 
ATOM      5  C   UNL     1      -1.493   2.862  -1.221  0.00  0.00    +0.033 A 
ATOM      6  C   UNL     1      -0.763   1.685  -1.290  0.00  0.00    +0.003 A 
ATOM      7  C   UNL     1      -0.584   1.061  -2.512  0.00  0.00    +0.011 A 
ATOM      8  C   UNL     1      -0.154   1.066  -0.057  0.00  0.00    +0.155 C 
ATOM      9  C   UNL     1      -0.881   1.566   1.190  0.00  0.00    +0.047 C 
ATOM     10  C   UNL     1      -0.182   1.070   2.452  0.00  0.00    +0.011 C 
ATOM     11  C   UNL     1       1.294   1.480   2.415  0.00  0.00    +0.028 C 
ATOM     12  C   UNL     1       1.929   0.923   1.137  0.00  0.00    +0.160 C 
ATOM     13  O   UNL     1       1.226   1.435   0.004  0.00  0.00    -0.372 OA
ATOM     14  C   UNL     1      -0.912   3.098   1.171  0.00  0.00    +0.110 C 
ATOM     15  N   UNL     1      -1.698   3.514   0.000  0.00  0.00    -0.336 N 
ATOM     16  H   UNL     1      -2.348   4.229   0.073  0.00  0.00    +0.147 HD
ENDROOT
BRANCH  14  17
ATOM     17  C   UNL     1      -1.561   3.611   2.431  0.00  0.00    +0.015 A 
ATOM     18  C   UNL     1      -0.790   4.189   3.420  0.00  0.00    +0.009 A 
ATOM     19  C   UNL     1      -1.385   4.660   4.575  0.00  0.00    +0.001 A 
ATOM     20  C   UNL     1      -2.753   4.554   4.744  0.00  0.00    +0.004 A 
ATOM     21  C   UNL     1      -3.529   3.977   3.758  0.00  0.00    +0.046 A 
ATOM     22  C   UNL     1      -2.935   3.508   2.595  0.00  0.00    +0.125 A 
BRANCH  22  23
ATOM     23  O   UNL     1      -3.697   2.945   1.621  0.00  0.00    -0.495 OA
ATOM     24  C   UNL     1      -5.104   2.872   1.858  0.00  0.00    +0.277 C 
ENDBRANCH  22  23
ENDBRANCH  14  17
TORSDOF 2
