REMARK  Name = ZINC10144578
REMARK  9 active torsions:
REMARK  status: ('A' for Active; 'I' for Inactive)
REMARK    1  A    between atoms: C_1  and  C_2
REMARK    2  A    between atoms: C_7  and  N_8
REMARK    3  A    between atoms: C_21  and  S_22
REMARK    4  A    between atoms: S_22  and  C_23
REMARK    5  A    between atoms: C_23  and  C_25
REMARK    6  A    between atoms: C_23  and  C_26
REMARK    7  A    between atoms: N_28  and  C_29
REMARK    8  A    between atoms: C_29  and  C_31
REMARK    9  A    between atoms: C_29  and  C_32
REMARK                            x       y       z     vdW  Elec       q    Type
REMARK                         _______ _______ _______ _____ _____    ______ ____
ROOT
ATOM      1  N   UNL     1       1.139   1.913   0.002  0.00  0.00    -0.245 N 
ATOM      2  C   UNL     1      -0.014   1.212   0.009  0.00  0.00    +0.268 A 
ATOM      3  O   UNL     1       0.002  -0.004   0.002  0.00  0.00    -0.267 OA
ATOM      4  C   UNL     1      -1.294   1.943   0.019  0.00  0.00    +0.064 A 
ATOM      5  C   UNL     1      -2.514   1.268   0.030  0.00  0.00    +0.015 A 
ATOM      6  C   UNL     1      -3.691   1.986   0.045  0.00  0.00    +0.001 A 
ATOM      7  C   UNL     1      -3.665   3.372   0.052  0.00  0.00    +0.002 A 
ATOM      8  C   UNL     1      -2.464   4.053   0.045  0.00  0.00    +0.027 A 
ATOM      9  C   UNL     1      -1.270   3.347   0.031  0.00  0.00    +0.064 A 
ATOM     10  N   UNL     1      -0.046   4.003   0.024  0.00  0.00    -0.255 N 
ATOM     11  C   UNL     1       1.130   3.299   0.009  0.00  0.00    +0.245 A 
ATOM     12  N   UNL     1       2.101   4.181   0.005  0.00  0.00    -0.109 NA
ATOM     13  N   UNL     1       1.617   5.372   0.016  0.00  0.00    -0.120 NA
ATOM     14  C   UNL     1       0.307   5.326   0.027  0.00  0.00    +0.198 A 
ENDROOT
BRANCH   1  21
ATOM     15  C   UNL     1       2.342   1.256   2.495  0.00  0.00    +0.046 C 
ATOM     16  C   UNL     1       2.982   0.891   1.181  0.00  0.00    -0.026 A 
ATOM     17  C   UNL     1       4.186   0.213   1.163  0.00  0.00    +0.005 A 
ATOM     18  C   UNL     1       4.777  -0.117  -0.043  0.00  0.00    +0.000 A 
ATOM     19  C   UNL     1       4.163   0.225  -1.234  0.00  0.00    +0.002 A 
ATOM     20  C   UNL     1       2.957   0.897  -1.223  0.00  0.00    +0.026 A 
ATOM     21  C   UNL     1       2.361   1.231  -0.013  0.00  0.00    +0.056 A 
ENDBRANCH   1  21
BRANCH  14  22
ATOM     22  S   UNL     1      -0.791   6.704   0.045  0.00  0.00    -0.073 S 
BRANCH  22  23
ATOM     23  C   UNL     1       0.312   8.144   0.043  0.00  0.00    +0.137 C 
ATOM     24  C   UNL     1       1.119   8.171   1.343  0.00  0.00    +0.029 C 
BRANCH  23  25
ATOM     25  C   UNL     1      -0.507   9.404  -0.067  0.00  0.00    +0.227 C 
ATOM     26  O   UNL     1      -1.660   9.412   0.309  0.00  0.00    -0.275 OA
ATOM     27  N   UNL     1       0.042  10.522  -0.582  0.00  0.00    -0.308 N 
ATOM     28  H   UNL     1       0.964  10.515  -0.882  0.00  0.00    +0.149 HD
BRANCH  27  29
ATOM     29  C   UNL     1      -0.754  11.747  -0.688  0.00  0.00    +0.100 C 
ATOM     30  C   UNL     1      -1.561  11.720  -1.988  0.00  0.00    +0.033 C 
BRANCH  29  31
ATOM     31  C   UNL     1       0.163  12.944  -0.690  0.00  0.00    -0.027 A 
ATOM     32  C   UNL     1       1.357  12.897  -1.384  0.00  0.00    +0.005 A 
ATOM     33  C   UNL     1       2.196  13.996  -1.389  0.00  0.00    +0.000 A 
ATOM     34  C   UNL     1       1.844  15.138  -0.694  0.00  0.00    +0.000 A 
ATOM     35  C   UNL     1       0.652  15.182   0.004  0.00  0.00    +0.000 A 
ATOM     36  C   UNL     1      -0.189  14.085   0.006  0.00  0.00    +0.005 A 
ENDBRANCH  29  31
ENDBRANCH  27  29
ENDBRANCH  23  25
ENDBRANCH  22  23
ENDBRANCH  14  22
TORSDOF 6
