REMARK  Name = ZINC62703968
REMARK  9 active torsions:
REMARK  status: ('A' for Active; 'I' for Inactive)
REMARK    1  A    between atoms: C_1  and  C_2
REMARK    2  A    between atoms: C_2  and  C_3
REMARK    3  A    between atoms: C_6  and  C_8
REMARK    4  A    between atoms: C_8  and  O_9
REMARK    5  A    between atoms: O_9  and  C_10
REMARK    6  A    between atoms: C_13  and  C_17
REMARK    7  A    between atoms: C_17  and  C_18
REMARK    8  A    between atoms: C_18  and  C_20
REMARK    9  A    between atoms: C_18  and  N_21
REMARK                            x       y       z     vdW  Elec       q    Type
REMARK                         _______ _______ _______ _____ _____    ______ ____
ROOT
ATOM      1  C   UNL     1       4.684  -3.830   4.642  0.00  0.00    +0.135 A 
ATOM      2  C   UNL     1       5.482  -3.052   5.468  0.00  0.00    +0.047 A 
ATOM      3  C   UNL     1       6.481  -3.643   6.218  0.00  0.00    +0.007 A 
ATOM      4  C   UNL     1       6.685  -5.009   6.146  0.00  0.00    -0.048 A 
ATOM      5  C   UNL     1       5.891  -5.787   5.324  0.00  0.00    +0.022 A 
ATOM      6  C   UNL     1       4.887  -5.202   4.576  0.00  0.00    +0.060 A 
ATOM      7 BR   UNL     1       3.796  -6.267   3.458  0.00  0.00    -0.047 Br
ENDROOT
BRANCH   1   8
ATOM      8  O   UNL     1       3.701  -3.251   3.903  0.00  0.00    -0.486 OA
BRANCH   8   9
ATOM      9  C   UNL     1       3.550  -1.835   4.021  0.00  0.00    +0.271 C 
BRANCH   9  13
ATOM     10  C   UNL     1       0.731  -0.503   1.223  0.00  0.00    -0.010 A 
ATOM     11  C   UNL     1       0.236  -0.806   2.448  0.00  0.00    +0.011 A 
ATOM     12  C   UNL     1       1.102  -1.254   3.429  0.00  0.00    +0.015 A 
ATOM     13  C   UNL     1       2.420  -1.375   3.136  0.00  0.00    +0.027 A 
ATOM     14  S   UNL     1       2.469  -0.856   1.429  0.00  0.00    -0.095 S 
BRANCH  10  16
ATOM     15  C   UNL     1      -0.019   1.526   0.010  0.00  0.00    +0.009 C 
ATOM     16  C   UNL     1       0.002  -0.004   0.002  0.00  0.00    +0.039 C 
ENDBRANCH  10  16
ENDBRANCH   9  13
ENDBRANCH   8   9
ENDBRANCH   1   8
BRANCH   4  17
ATOM     17  C   UNL     1       7.776  -5.650   6.965  0.00  0.00    +0.019 C 
BRANCH  17  18
ATOM     18  C   UNL     1       7.215  -6.063   8.327  0.00  0.00    -0.074 C 
ATOM     19  C   UNL     1       8.348  -6.600   9.204  0.00  0.00    -0.014 C 
BRANCH  18  20
ATOM     20  N   UNL     1       6.201  -7.110   8.142  0.00  0.00    +0.380 N 
ATOM     21  H   UNL     1       6.622  -7.911   7.695  0.00  0.00    -0.090 HD
ATOM     22  H   UNL     1       5.831  -7.383   9.040  0.00  0.00    -0.090 HD
ATOM     23  H   UNL     1       5.454  -6.756   7.564  0.00  0.00    -0.090 HD
ENDBRANCH  18  20
ENDBRANCH  17  18
ENDBRANCH   4  17
TORSDOF 7
