REMARK  Name = ZINC33301010
REMARK  7 active torsions:
REMARK  status: ('A' for Active; 'I' for Inactive)
REMARK    1  A    between atoms: C_1  and  C_2
REMARK    2  A    between atoms: C_5  and  N_8
REMARK    3  A    between atoms: C_12  and  C_14
REMARK    4  A    between atoms: N_16  and  C_17
REMARK    5  A    between atoms: C_17  and  C_18
REMARK    6  A    between atoms: N_26  and  C_27
REMARK    7  A    between atoms: N_26  and  C_28
REMARK                            x       y       z     vdW  Elec       q    Type
REMARK                         _______ _______ _______ _____ _____    ______ ____
ROOT
ATOM      1  N   UNL     1      -1.188   1.914  -0.078  0.00  0.00    -0.276 N 
ATOM      2  C   UNL     1      -2.064   1.848   0.964  0.00  0.00    +0.112 A 
ATOM      3  C   UNL     1      -3.035   2.834   0.783  0.00  0.00    +0.074 A 
ATOM      4  C   UNL     1      -4.026   2.914   1.766  0.00  0.00    +0.048 A 
ATOM      5  C   UNL     1      -3.992   2.041   2.832  0.00  0.00    +0.078 A 
ATOM      6  S   UNL     1      -2.541   1.061   2.480  0.00  0.00    -0.064 S 
ATOM      7  N   UNL     1      -2.690   3.468  -0.396  0.00  0.00    -0.327 N 
ATOM      8  C   UNL     1      -1.609   2.933  -0.892  0.00  0.00    +0.181 A 
ATOM      9  N   UNL     1      -0.985   3.330  -2.061  0.00  0.00    -0.308 N 
ATOM     10  C   UNL     1      -1.861   3.124  -3.222  0.00  0.00    +0.131 C 
ATOM     11  C   UNL     1      -0.547   4.730  -1.975  0.00  0.00    +0.131 C 
ATOM     12  H   UNL     1      -3.306   4.296  -0.777  0.00  0.00    +0.169 HD
ENDROOT
BRANCH   1  17
ATOM     13  C   UNL     1       3.354  -1.387  -0.900  0.00  0.00    +0.044 C 
ATOM     14  C   UNL     1       2.148  -0.511  -0.680  0.00  0.00    -0.050 A 
ATOM     15  C   UNL     1       0.879  -1.058  -0.733  0.00  0.00    +0.005 A 
ATOM     16  C   UNL     1      -0.228  -0.257  -0.532  0.00  0.00    +0.026 A 
ATOM     17  C   UNL     1      -0.066   1.098  -0.276  0.00  0.00    +0.050 A 
ATOM     18  C   UNL     1       1.209   1.644  -0.223  0.00  0.00    +0.026 A 
ATOM     19  C   UNL     1       2.312   0.838  -0.426  0.00  0.00    +0.005 A 
ENDBRANCH   1  17
BRANCH   5  20
ATOM     20  C   UNL     1      -4.912   1.941   3.965  0.00  0.00    +0.251 C 
ATOM     21  O   UNL     1      -5.861   2.699   4.047  0.00  0.00    -0.270 OA
ATOM     22  N   UNL     1      -4.709   1.010   4.918  0.00  0.00    -0.308 N 
ATOM     23  H   UNL     1      -3.852   0.325   4.844  0.00  0.00    +0.149 HD
BRANCH  22  24
ATOM     24  C   UNL     1      -5.631   0.910   6.053  0.00  0.00    +0.136 C 
BRANCH  24  25
ATOM     25  C   UNL     1      -5.177  -0.218   6.981  0.00  0.00    +0.135 C 
ATOM     26  C   UNL     1      -6.140  -0.332   8.178  0.00  0.00    +0.035 C 
ATOM     27  C   UNL     1      -6.673  -1.783   8.100  0.00  0.00    +0.031 C 
ATOM     28  C   UNL     1      -5.587  -2.482   7.244  0.00  0.00    +0.160 C 
ATOM     29  O   UNL     1      -5.217  -1.473   6.280  0.00  0.00    -0.375 OA
ENDBRANCH  24  25
ENDBRANCH  22  24
ENDBRANCH   5  20
TORSDOF 4
