REMARK  Name = ZINC38848037
REMARK  5 active torsions:
REMARK  status: ('A' for Active; 'I' for Inactive)
REMARK    1  A    between atoms: C_7  and  C_15
REMARK    2  A    between atoms: N_17  and  C_18
REMARK    3  A    between atoms: C_18  and  C_19
REMARK    4  A    between atoms: C_19  and  C_20
REMARK    5  A    between atoms: C_20  and  N_21
REMARK                            x       y       z     vdW  Elec       q    Type
REMARK                         _______ _______ _______ _____ _____    ______ ____
ROOT
ATOM      1  C   UNL     1       0.021  -2.895   1.364  0.00  0.00    +0.233 C 
ATOM      2  O   UNL     1      -0.075  -2.047   2.225  0.00  0.00    -0.274 OA
ATOM      3  N   UNL     1       0.744  -4.010   1.593  0.00  0.00    -0.250 N 
ATOM      4  C   UNL     1       0.966  -4.915   0.567  0.00  0.00    +0.168 A 
ATOM      5  N   UNL     1       0.776  -6.213   0.561  0.00  0.00    -0.221 NA
ATOM      6  C   UNL     1       1.038  -6.980  -0.521  0.00  0.00    +0.116 A 
ATOM      7  C   UNL     1       0.879  -8.380  -0.659  0.00  0.00    +0.152 A 
ATOM      8  C   UNL     1       1.195  -9.009  -1.837  0.00  0.00    +0.079 A 
ATOM      9  C   UNL     1       1.679  -8.301  -2.930  0.00  0.00    +0.127 A 
ATOM     10  C   UNL     1       1.845  -6.930  -2.829  0.00  0.00    +0.055 A 
ATOM     11  C   UNL     1       1.531  -6.294  -1.653  0.00  0.00    +0.046 A 
ATOM     12  S   UNL     1       1.574  -4.611  -1.085  0.00  0.00    -0.052 S 
ATOM     13  F   UNL     1       1.983  -8.943  -4.079  0.00  0.00    -0.205 F 
ATOM     14  F   UNL     1       0.412  -9.105   0.381  0.00  0.00    -0.203 F 
ENDROOT
BRANCH   1  21
ATOM     15  C   UNL     1      -3.044  -5.620  -0.188  0.00  0.00    +0.001 A 
ATOM     16  C   UNL     1      -4.270  -5.005  -0.011  0.00  0.00    +0.004 A 
ATOM     17  C   UNL     1      -4.334  -3.639   0.181  0.00  0.00    +0.046 A 
ATOM     18  C   UNL     1      -3.169  -2.881   0.197  0.00  0.00    +0.133 A 
ATOM     19  C   UNL     1      -1.943  -3.501   0.020  0.00  0.00    +0.011 A 
ATOM     20  C   UNL     1      -1.884  -4.870  -0.173  0.00  0.00    +0.008 A 
ATOM     21  C   UNL     1      -0.667  -2.703   0.037  0.00  0.00    +0.142 C 
ATOM     22  C   UNL     1      -0.954  -1.241  -0.166  0.00  0.00    +0.011 A 
ATOM     23  C   UNL     1       0.075  -0.394  -0.541  0.00  0.00    +0.008 A 
ATOM     24  C   UNL     1      -0.167   0.953  -0.731  0.00  0.00    +0.001 A 
ATOM     25  C   UNL     1      -1.440   1.460  -0.547  0.00  0.00    +0.004 A 
ATOM     26  C   UNL     1      -2.470   0.620  -0.174  0.00  0.00    +0.046 A 
ATOM     27  C   UNL     1      -2.230  -0.736   0.018  0.00  0.00    +0.133 A 
ATOM     28  O   UNL     1      -3.254  -1.542   0.388  0.00  0.00    -0.455 OA
ENDBRANCH   1  21
BRANCH   3  29
ATOM     29  C   UNL     1       1.295  -4.264   2.926  0.00  0.00    +0.117 C 
BRANCH  29  30
ATOM     30  C   UNL     1       0.283  -5.058   3.754  0.00  0.00    +0.041 C 
BRANCH  30  31
ATOM     31  C   UNL     1       0.858  -5.324   5.146  0.00  0.00    +0.124 C 
BRANCH  31  32
ATOM     32  N   UNL     1      -0.111  -6.084   5.939  0.00  0.00    -0.338 N 
ATOM     33  C   UNL     1      -1.095  -5.564   6.736  0.00  0.00    +0.104 A 
ATOM     34  C   UNL     1      -1.752  -6.609   7.275  0.00  0.00    +0.101 A 
ATOM     35  N   UNL     1      -1.185  -7.736   6.819  0.00  0.00    -0.352 N 
ATOM     36  C   UNL     1      -0.205  -7.429   6.014  0.00  0.00    +0.173 A 
ATOM     37  H   UNL     1      -1.462  -8.636   7.049  0.00  0.00    +0.166 HD
ENDBRANCH  31  32
ENDBRANCH  30  31
ENDBRANCH  29  30
ENDBRANCH   3  29
TORSDOF 5
