REMARK  Name = ZINC39324793
REMARK  8 active torsions:
REMARK  status: ('A' for Active; 'I' for Inactive)
REMARK    1  A    between atoms: C_1  and  O_2
REMARK    2  A    between atoms: O_2  and  C_3
REMARK    3  A    between atoms: C_8  and  C_15
REMARK    4  A    between atoms: C_15  and  N_16
REMARK    5  A    between atoms: N_16  and  C_17
REMARK    6  A    between atoms: N_16  and  S_27
REMARK    7  A    between atoms: C_17  and  C_18
REMARK    8  A    between atoms: S_27  and  C_30
REMARK                            x       y       z     vdW  Elec       q    Type
REMARK                         _______ _______ _______ _____ _____    ______ ____
ROOT
ATOM      1  N   UNL     1       4.044  -5.702  -4.604  0.00  0.00    -0.171 NA
ENDROOT
BRANCH   1   2
ATOM      2  S   UNL     1       4.208  -6.856  -3.428  0.00  0.00    +0.064 S 
ATOM      3  O   UNL     1       5.040  -7.873  -3.970  0.00  0.00    -0.153 OA
ATOM      4  O   UNL     1       4.529  -6.169  -2.227  0.00  0.00    -0.153 OA
BRANCH   2   5
ATOM      5  C   UNL     1       2.620  -7.581  -3.185  0.00  0.00    +0.140 A 
ATOM      6  C   UNL     1       2.412  -8.911  -3.500  0.00  0.00    +0.031 A 
ATOM      7  C   UNL     1       1.167  -9.480  -3.310  0.00  0.00    +0.002 A 
ATOM      8  C   UNL     1       0.129  -8.720  -2.803  0.00  0.00    +0.003 A 
ATOM      9  C   UNL     1       0.335  -7.391  -2.486  0.00  0.00    +0.040 A 
ATOM     10  C   UNL     1       1.583  -6.821  -2.672  0.00  0.00    +0.150 A 
ATOM     11  F   UNL     1       1.788  -5.523  -2.359  0.00  0.00    -0.203 F 
ENDBRANCH   2   5
ENDBRANCH   1   2
BRANCH   1  12
ATOM     12  C   UNL     1       3.861  -4.297  -4.231  0.00  0.00    +0.126 C 
BRANCH  12  18
ATOM     13  C   UNL     1       7.878   0.206  -4.672  0.00  0.00    +0.122 A 
ATOM     14  C   UNL     1       6.783   0.746  -3.981  0.00  0.00    +0.046 A 
ATOM     15  C   UNL     1       5.801  -0.048  -3.490  0.00  0.00    +0.013 A 
ATOM     16  C   UNL     1       5.890  -1.496  -3.689  0.00  0.00    -0.007 A 
ATOM     17  C   UNL     1       4.922  -2.324  -3.211  0.00  0.00    -0.003 C 
ATOM     18  C   UNL     1       5.089  -3.809  -3.461  0.00  0.00    +0.114 C 
ATOM     19  C   UNL     1       6.319  -4.253  -4.221  0.00  0.00    +0.225 C 
ATOM     20  O   UNL     1       6.502  -5.434  -4.450  0.00  0.00    -0.275 OA
ATOM     21  N   UNL     1       7.192  -3.353  -4.637  0.00  0.00    -0.284 N 
ATOM     22  C   UNL     1       7.048  -2.044  -4.419  0.00  0.00    +0.044 A 
ATOM     23  C   UNL     1       8.013  -1.147  -4.896  0.00  0.00    +0.069 A 
ATOM     24  H   UNL     1       7.974  -3.658  -5.123  0.00  0.00    +0.155 HD
BRANCH  13  26
ATOM     25  C   UNL     1       8.653   2.439  -4.888  0.00  0.00    +0.277 C 
ATOM     26  O   UNL     1       8.833   1.045  -5.141  0.00  0.00    -0.495 OA
ENDBRANCH  13  26
ENDBRANCH  12  18
ENDBRANCH   1  12
BRANCH   1  27
ATOM     27  C   UNL     1       4.083  -6.086  -6.018  0.00  0.00    +0.144 C 
BRANCH  27  28
ATOM     28  C   UNL     1       5.483  -5.912  -6.547  0.00  0.00    -0.028 A 
ATOM     29  C   UNL     1       5.867  -4.704  -7.097  0.00  0.00    +0.009 A 
ATOM     30  C   UNL     1       7.151  -4.539  -7.584  0.00  0.00    +0.050 A 
ATOM     31  C   UNL     1       8.055  -5.587  -7.522  0.00  0.00    +0.166 A 
ATOM     32  C   UNL     1       7.668  -6.805  -6.967  0.00  0.00    +0.167 A 
ATOM     33  C   UNL     1       6.382  -6.960  -6.476  0.00  0.00    +0.054 A 
ATOM     34  O   UNL     1       8.726  -7.665  -7.022  0.00  0.00    -0.453 OA
ATOM     35  C   UNL     1       9.635  -7.096  -7.983  0.00  0.00    +0.466 C 
ATOM     36  O   UNL     1       9.356  -5.685  -7.923  0.00  0.00    -0.453 OA
ENDBRANCH  27  28
ENDBRANCH   1  27
TORSDOF 7
