REMARK  Name = ZINC00781570
REMARK  8 active torsions:
REMARK  status: ('A' for Active; 'I' for Inactive)
REMARK    1  A    between atoms: C_1  and  C_2
REMARK    2  A    between atoms: C_2  and  N_3
REMARK    3  A    between atoms: N_3  and  S_4
REMARK    4  A    between atoms: S_4  and  C_7
REMARK    5  A    between atoms: C_9  and  S_20
REMARK    6  A    between atoms: S_20  and  N_23
REMARK    7  A    between atoms: N_23  and  C_24
REMARK    8  A    between atoms: C_24  and  C_25
REMARK                            x       y       z     vdW  Elec       q    Type
REMARK                         _______ _______ _______ _____ _____    ______ ____
ROOT
ATOM      1  C   UNL     1      -1.336   2.950  -1.478  0.00  0.00    +0.115 A 
ATOM      2  C   UNL     1      -2.291   2.910  -2.456  0.00  0.00    +0.059 A 
ATOM      3  C   UNL     1      -2.258   3.720  -3.591  0.00  0.00    +0.129 A 
ATOM      4  C   UNL     1      -1.223   4.619  -3.768  0.00  0.00    +0.069 A 
ATOM      5  C   UNL     1      -0.259   4.648  -2.765  0.00  0.00    +0.019 A 
ATOM      6  C   UNL     1      -0.270   3.854  -1.617  0.00  0.00    +0.011 A 
ATOM      7  C   UNL     1       0.793   4.018  -0.713  0.00  0.00    +0.010 A 
ATOM      8  C   UNL     1       1.764   4.942  -0.992  0.00  0.00    +0.001 A 
ATOM      9  C   UNL     1       1.757   5.732  -2.141  0.00  0.00    +0.014 A 
ATOM     10  C   UNL     1       0.731   5.597  -3.060  0.00  0.00    +0.047 A 
ATOM     11  C   UNL     1       0.311   6.170  -4.344  0.00  0.00    +0.249 C 
ATOM     12  O   UNL     1       0.895   7.037  -4.966  0.00  0.00    -0.270 OA
ATOM     13  N   UNL     1      -0.845   5.559  -4.718  0.00  0.00    -0.279 N 
ATOM     14  H   UNL     1      -1.335   5.753  -5.532  0.00  0.00    +0.155 HD
ENDROOT
BRANCH   1  15
ATOM     15  S   UNL     1      -1.444   1.896  -0.070  0.00  0.00    +0.059 S 
ATOM     16  O   UNL     1      -0.173   1.276   0.072  0.00  0.00    -0.153 OA
ATOM     17  O   UNL     1      -2.643   1.148  -0.213  0.00  0.00    -0.153 OA
BRANCH  15  18
ATOM     18  N   UNL     1      -1.647   2.868   1.256  0.00  0.00    -0.190 NA
ATOM     19  H   UNL     1      -0.964   2.900   1.943  0.00  0.00    +0.148 HD
BRANCH  18  21
ATOM     20  C   UNL     1      -2.973   4.196   2.823  0.00  0.00    +0.022 C 
ATOM     21  C   UNL     1      -2.856   3.684   1.386  0.00  0.00    +0.102 C 
ENDBRANCH  18  21
ENDBRANCH  15  18
ENDBRANCH   1  15
BRANCH   3  22
ATOM     22  S   UNL     1      -3.534   3.596  -4.800  0.00  0.00    +0.060 S 
ATOM     23  O   UNL     1      -2.890   3.487  -6.061  0.00  0.00    -0.153 OA
ATOM     24  O   UNL     1      -4.450   2.619  -4.325  0.00  0.00    -0.153 OA
BRANCH  22  25
ATOM     25  N   UNL     1      -4.344   5.040  -4.805  0.00  0.00    -0.190 NA
ATOM     26  H   UNL     1      -5.274   5.076  -4.530  0.00  0.00    +0.148 HD
BRANCH  25  27
ATOM     27  C   UNL     1      -3.657   6.264  -5.225  0.00  0.00    +0.102 C 
ATOM     28  C   UNL     1      -4.689   7.361  -5.498  0.00  0.00    +0.022 C 
ENDBRANCH  25  27
ENDBRANCH  22  25
ENDBRANCH   3  22
TORSDOF 6
