REMARK  Name = ZINC09948688
REMARK  8 active torsions:
REMARK  status: ('A' for Active; 'I' for Inactive)
REMARK    1  A    between atoms: C_1  and  C_2
REMARK    2  A    between atoms: C_2  and  C_3
REMARK    3  A    between atoms: C_2  and  C_4
REMARK    4  A    between atoms: C_2  and  C_5
REMARK    5  A    between atoms: C_8  and  C_11
REMARK    6  A    between atoms: C_14  and  C_16
REMARK    7  A    between atoms: N_18  and  N_19
REMARK    8  A    between atoms: C_20  and  C_21
REMARK                            x       y       z     vdW  Elec       q    Type
REMARK                         _______ _______ _______ _____ _____    ______ ____
ROOT
ATOM      1  C   UNL     1      -2.580   4.250   0.037  0.00  0.00    +0.032 C 
ATOM      2  C   UNL     1      -1.724   4.268  -1.230  0.00  0.00    +0.022 C 
ATOM      3  C   UNL     1      -1.214   3.562   0.027  0.00  0.00    +0.085 C 
ENDROOT
BRANCH   1   7
ATOM      4  C   UNL     1      -6.046   1.752   0.042  0.00  0.00    -0.042 A 
ATOM      5  C   UNL     1      -5.830   2.636   1.082  0.00  0.00    +0.004 A 
ATOM      6  C   UNL     1      -4.708   3.445   1.081  0.00  0.00    +0.004 A 
ATOM      7  C   UNL     1      -3.803   3.368   0.039  0.00  0.00    -0.044 A 
ATOM      8  C   UNL     1      -4.021   2.488  -1.004  0.00  0.00    +0.004 A 
ATOM      9  C   UNL     1      -5.141   1.677  -1.000  0.00  0.00    +0.004 A 
BRANCH   4  11
ATOM     10  C   UNL     1      -8.525   1.742   0.056  0.00  0.00    +0.015 C 
ATOM     11  C   UNL     1      -7.268   0.870   0.044  0.00  0.00    -0.013 C 
ATOM     12  C   UNL     1      -7.266  -0.006  -1.210  0.00  0.00    +0.015 C 
ATOM     13  C   UNL     1      -7.252  -0.020   1.288  0.00  0.00    +0.015 C 
ENDBRANCH   4  11
ENDBRANCH   1   7
BRANCH   3  14
ATOM     14  C   UNL     1      -1.193   2.055   0.019  0.00  0.00    +0.236 C 
ATOM     15  O   UNL     1      -2.236   1.434   0.020  0.00  0.00    -0.274 OA
ATOM     16  N   UNL     1      -0.017   1.397   0.010  0.00  0.00    -0.207 N 
ATOM     17  H   UNL     1       0.816   1.893   0.004  0.00  0.00    +0.177 HD
BRANCH  16  18
ATOM     18  N   UNL     1       0.002  -0.004   0.002  0.00  0.00    -0.185 NA
ATOM     19  C   UNL     1       1.137  -0.639  -0.012  0.00  0.00    +0.176 C 
BRANCH  19  20
ATOM     20  C   UNL     1       1.157  -2.105  -0.020  0.00  0.00    +0.150 A 
ATOM     21  C   UNL     1       2.273  -2.891  -0.041  0.00  0.00    +0.067 A 
ATOM     22  C   UNL     1       1.827  -4.226  -0.039  0.00  0.00    +0.071 A 
ATOM     23  C   UNL     1       0.477  -4.193  -0.026  0.00  0.00    +0.185 A 
ATOM     24  O   UNL     1       0.077  -2.911  -0.015  0.00  0.00    -0.446 OA
ATOM     25 BR   UNL     1      -0.661  -5.703  -0.023  0.00  0.00    -0.007 Br
ATOM     26 BR   UNL     1       2.914  -5.773  -0.058  0.00  0.00    -0.046 Br
ENDBRANCH  19  20
ENDBRANCH  16  18
ENDBRANCH   3  14
TORSDOF 5
