REMARK  Name = ZINC36082211
REMARK  8 active torsions:
REMARK  status: ('A' for Active; 'I' for Inactive)
REMARK    1  A    between atoms: C_1  and  C_2
REMARK    2  A    between atoms: C_7  and  N_12
REMARK    3  A    between atoms: C_9  and  C_11
REMARK    4  A    between atoms: C_13  and  C_15
REMARK    5  A    between atoms: C_15  and  C_17
REMARK    6  A    between atoms: C_15  and  N_23
REMARK    7  A    between atoms: N_23  and  S_24
REMARK    8  A    between atoms: S_24  and  C_27
REMARK                            x       y       z     vdW  Elec       q    Type
REMARK                         _______ _______ _______ _____ _____    ______ ____
ROOT
ATOM      1  C   UNL     1       1.936  -4.254   4.128  0.00  0.00    +0.192 C 
ENDROOT
BRANCH   1   2
ATOM      2  C   UNL     1       1.659  -3.334   5.290  0.00  0.00    -0.020 A 
ATOM      3  C   UNL     1       0.477  -3.450   5.997  0.00  0.00    +0.006 A 
ATOM      4  C   UNL     1       0.224  -2.606   7.062  0.00  0.00    +0.000 A 
ATOM      5  C   UNL     1       1.152  -1.647   7.420  0.00  0.00    +0.000 A 
ATOM      6  C   UNL     1       2.334  -1.531   6.714  0.00  0.00    +0.000 A 
ATOM      7  C   UNL     1       2.590  -2.378   5.651  0.00  0.00    +0.006 A 
ENDBRANCH   1   2
BRANCH   1   9
ATOM      8  N   UNL     1       1.471  -2.526   2.420  0.00  0.00    -0.311 N 
ATOM      9  C   UNL     1       1.207  -3.754   2.907  0.00  0.00    +0.236 C 
ATOM     10  O   UNL     1       0.382  -4.458   2.364  0.00  0.00    -0.274 OA
ATOM     11  H   UNL     1       2.131  -1.963   2.855  0.00  0.00    +0.149 HD
BRANCH   8  17
ATOM     12  C   UNL     1      -0.019   1.526   0.010  0.00  0.00    +0.008 C 
ATOM     13  C   UNL     1       0.002  -0.004   0.002  0.00  0.00    -0.009 C 
ATOM     14  C   UNL     1       0.718  -0.497  -1.257  0.00  0.00    +0.003 C 
ATOM     15  C   UNL     1       0.739  -2.027  -1.265  0.00  0.00    +0.002 C 
ATOM     16  C   UNL     1       1.479  -2.534  -0.026  0.00  0.00    +0.022 C 
ATOM     17  C   UNL     1       0.763  -2.041   1.233  0.00  0.00    +0.076 C 
ATOM     18  C   UNL     1       0.742  -0.511   1.242  0.00  0.00    +0.009 C 
ATOM     19  C   UNL     1       0.026  -0.018   2.500  0.00  0.00    +0.009 C 
ENDBRANCH   8  17
ENDBRANCH   1   9
BRANCH   1  20
ATOM     20  N   UNL     1       1.473  -5.605   4.455  0.00  0.00    -0.174 NA
ATOM     21  H   UNL     1       0.546  -5.849   4.307  0.00  0.00    +0.149 HD
BRANCH  20  22
ATOM     22  S   UNL     1       2.533  -6.715   5.076  0.00  0.00    +0.061 S 
ATOM     23  O   UNL     1       1.788  -7.902   5.309  0.00  0.00    -0.153 OA
ATOM     24  O   UNL     1       3.683  -6.690   4.242  0.00  0.00    -0.153 OA
BRANCH  22  25
ATOM     25  C   UNL     1       3.043  -6.123   6.655  0.00  0.00    +0.133 A 
ATOM     26  C   UNL     1       2.721  -6.816   7.772  0.00  0.00    +0.031 A 
ATOM     27  C   UNL     1       3.108  -6.377   9.039  0.00  0.00    +0.004 A 
ATOM     28  C   UNL     1       3.822  -5.239   9.205  0.00  0.00    +0.031 A 
ATOM     29  C   UNL     1       4.195  -4.459   8.077  0.00  0.00    +0.102 A 
ATOM     30  C   UNL     1       3.795  -4.921   6.753  0.00  0.00    +0.126 A 
ATOM     31  N   UNL     1       4.204  -4.116   5.771  0.00  0.00    -0.189 NA
ATOM     32  S   UNL     1       5.007  -2.924   6.493  0.00  0.00    +0.117 S 
ATOM     33  N   UNL     1       4.890  -3.321   8.048  0.00  0.00    -0.191 NA
ENDBRANCH  22  25
ENDBRANCH  20  22
ENDBRANCH   1  20
TORSDOF 6
