REMARK  Name = ZINC09880704
REMARK  13 active torsions:
REMARK  status: ('A' for Active; 'I' for Inactive)
REMARK    1  A    between atoms: C_1  and  C_2
REMARK    2  A    between atoms: C_2  and  O_3
REMARK    3  A    between atoms: O_3  and  C_4
REMARK    4  A    between atoms: C_4  and  C_6
REMARK    5  A    between atoms: C_7  and  C_35
REMARK    6  A    between atoms: C_8  and  C_13
REMARK    7  A    between atoms: C_11  and  C_12
REMARK    8  A    between atoms: C_13  and  C_15
REMARK    9  A    between atoms: C_15  and  S_16
REMARK   10  A    between atoms: S_16  and  C_17
REMARK   11  A    between atoms: C_20  and  C_29
REMARK   12  A    between atoms: N_21  and  C_22
REMARK   13  A    between atoms: C_29  and  N_65
REMARK                            x       y       z     vdW  Elec       q    Type
REMARK                         _______ _______ _______ _____ _____    ______ ____
ROOT
ATOM      1  C   UNL     1      -4.580  -2.245   0.012  0.00  0.00    +0.196 A 
ATOM      2  N   UNL     1      -3.540  -3.046  -0.002  0.00  0.00    -0.122 NA
ATOM      3  N   UNL     1      -3.930  -4.270  -0.000  0.00  0.00    -0.135 NA
ATOM      4  C   UNL     1      -5.232  -4.326   0.005  0.00  0.00    +0.122 A 
ATOM      5  N   UNL     1      -5.695  -3.037   0.013  0.00  0.00    -0.276 N 
ENDROOT
BRANCH   5   6
ATOM      6  C   UNL     1      -7.034  -2.617   0.020  0.00  0.00    +0.050 A 
ATOM      7  C   UNL     1      -7.846  -2.904   1.109  0.00  0.00    +0.029 A 
ATOM      8  C   UNL     1      -9.162  -2.485   1.116  0.00  0.00    +0.040 A 
ATOM      9  C   UNL     1      -9.675  -1.789   0.035  0.00  0.00    +0.124 A 
ATOM     10  C   UNL     1      -8.867  -1.507  -1.055  0.00  0.00    +0.040 A 
ATOM     11  C   UNL     1      -7.549  -1.919  -1.063  0.00  0.00    +0.029 A 
ATOM     12  F   UNL     1     -10.964  -1.384   0.042  0.00  0.00    -0.205 F 
ENDBRANCH   5   6
BRANCH   1  13
ATOM     13  S   UNL     1      -4.547  -0.483   0.020  0.00  0.00    -0.078 S 
BRANCH  13  14
ATOM     14  C   UNL     1      -2.758  -0.203   0.014  0.00  0.00    +0.158 C 
BRANCH  14  15
ATOM     15  C   UNL     1      -2.482   1.278   0.020  0.00  0.00    +0.190 C 
ATOM     16  O   UNL     1      -3.404   2.068   0.028  0.00  0.00    -0.290 OA
BRANCH  15  19
ATOM     17  C   UNL     1       0.657   3.077   0.012  0.00  0.00    +0.083 A 
ATOM     18  C   UNL     1      -0.755   3.070   0.025  0.00  0.00    -0.008 A 
ATOM     19  C   UNL     1      -1.147   1.749   0.016  0.00  0.00    +0.087 A 
ATOM     20  N   UNL     1      -0.011   0.966   0.007  0.00  0.00    -0.355 N 
ATOM     21  H   UNL     1       0.002  -0.004   0.002  0.00  0.00    +0.166 HD
ATOM     22  C   UNL     1       1.072   1.757   0.001  0.00  0.00    +0.028 A 
ATOM     23  C   UNL     1       2.503   1.286  -0.015  0.00  0.00    +0.064 C 
ATOM     24  C   UNL     1      -1.659   4.276   0.040  0.00  0.00    +0.047 C 
BRANCH  17  25
ATOM     25  C   UNL     1       1.525   4.267   0.011  0.00  0.00    +0.341 C 
ATOM     26  O   UNL     1       1.874   4.763  -1.042  0.00  0.00    -0.245 OA
BRANCH  25  27
ATOM     27  O   UNL     1       1.933   4.804   1.177  0.00  0.00    -0.461 OA
BRANCH  27  29
ATOM     28  C   UNL     1       3.145   6.441   2.513  0.00  0.00    +0.048 C 
ATOM     29  C   UNL     1       2.787   5.976   1.099  0.00  0.00    +0.229 C 
ENDBRANCH  27  29
ENDBRANCH  25  27
ENDBRANCH  17  25
ENDBRANCH  15  19
ENDBRANCH  14  15
ENDBRANCH  13  14
ENDBRANCH   1  13
BRANCH   4  30
ATOM     30  C   UNL     1      -6.073  -5.577   0.002  0.00  0.00    -0.001 C 
BRANCH  30  36
ATOM     31  C   UNL     1      -7.194  -4.982  -2.059  0.00  0.00    -0.078 C 
ATOM     32  C   UNL     1      -7.342  -5.356  -3.536  0.00  0.00    -0.019 C 
ATOM     33  C   UNL     1      -7.975  -6.746  -3.645  0.00  0.00    -0.004 C 
ATOM     34  C   UNL     1      -7.103  -7.755  -2.892  0.00  0.00    -0.019 C 
ATOM     35  C   UNL     1      -6.961  -7.312  -1.434  0.00  0.00    -0.078 C 
ATOM     36  N   UNL     1      -6.324  -5.978  -1.398  0.00  0.00    +0.384 N 
ATOM     37  H   UNL     1      -5.429  -6.023  -1.898  0.00  0.00    -0.081 HD
ENDBRANCH  30  36
ENDBRANCH   4  30
TORSDOF 10
