REMARK  Name = ZINC35870388
REMARK  7 active torsions:
REMARK  status: ('A' for Active; 'I' for Inactive)
REMARK    1  A    between atoms: C_1  and  C_2
REMARK    2  A    between atoms: C_2  and  C_4
REMARK    3  A    between atoms: C_2  and  N_10
REMARK    4  A    between atoms: C_11  and  C_13
REMARK    5  A    between atoms: C_18  and  N_37
REMARK    6  A    between atoms: N_26  and  C_29
REMARK    7  A    between atoms: C_29  and  C_30
REMARK                            x       y       z     vdW  Elec       q    Type
REMARK                         _______ _______ _______ _____ _____    ______ ____
ROOT
ATOM      1  C   UNL     1       2.783  -1.099   2.395  0.00  0.00    +0.098 C 
ATOM      2  C   UNL     1       2.502  -0.166   3.572  0.00  0.00    +0.051 C 
ATOM      3  C   UNL     1       3.099   1.188   3.292  0.00  0.00    -0.023 A 
ATOM      4  C   UNL     1       2.558   2.306   3.902  0.00  0.00    +0.038 A 
ATOM      5  C   UNL     1       3.088   3.558   3.655  0.00  0.00    +0.127 A 
ATOM      6  C   UNL     1       4.162   3.698   2.795  0.00  0.00    +0.034 A 
ATOM      7  C   UNL     1       4.709   2.587   2.186  0.00  0.00    +0.025 A 
ATOM      8  C   UNL     1       4.178   1.325   2.435  0.00  0.00    +0.033 A 
ATOM      9  N   UNL     1       4.763   0.213   1.809  0.00  0.00    -0.329 N 
ATOM     10  C   UNL     1       4.289  -1.129   2.114  0.00  0.00    +0.069 C 
ATOM     11  C   UNL     1       4.565  -2.134   1.007  0.00  0.00    -0.055 C 
ATOM     12  N   UNL     1       5.869  -1.916   0.383  0.00  0.00    +0.385 N 
ATOM     13  C   UNL     1       5.885  -0.579  -0.231  0.00  0.00    -0.059 C 
ATOM     14  C   UNL     1       5.870   0.465   0.883  0.00  0.00    +0.087 C 
ATOM     15  H   UNL     1       6.593  -1.974   1.083  0.00  0.00    -0.081 HD
ENDROOT
BRANCH   1  17
ATOM     16  N   UNL     1       0.711  -0.489   1.189  0.00  0.00    -0.308 N 
ATOM     17  C   UNL     1       2.054  -0.600   1.174  0.00  0.00    +0.219 C 
ATOM     18  O   UNL     1       2.676  -0.297   0.177  0.00  0.00    -0.275 OA
ATOM     19  H   UNL     1       0.213  -0.731   1.986  0.00  0.00    +0.149 HD
BRANCH  16  21
ATOM     20  C   UNL     1      -0.019   1.526   0.010  0.00  0.00    +0.033 C 
ATOM     21  C   UNL     1       0.002  -0.004   0.002  0.00  0.00    +0.100 C 
BRANCH  21  22
ATOM     22  C   UNL     1      -1.412  -0.526   0.013  0.00  0.00    -0.027 A 
ATOM     23  C   UNL     1      -2.123  -0.571   1.197  0.00  0.00    +0.005 A 
ATOM     24  C   UNL     1      -3.420  -1.049   1.207  0.00  0.00    +0.000 A 
ATOM     25  C   UNL     1      -4.006  -1.482   0.032  0.00  0.00    +0.000 A 
ATOM     26  C   UNL     1      -3.295  -1.436  -1.153  0.00  0.00    +0.000 A 
ATOM     27  C   UNL     1      -2.000  -0.954  -1.163  0.00  0.00    +0.005 A 
ENDBRANCH  21  22
ENDBRANCH  16  21
ENDBRANCH   1  17
BRANCH   5  28
ATOM     28  N   UNL     1       2.505   4.750   4.310  0.00  0.00    +0.056 N 
ATOM     29  O   UNL     1       1.566   4.628   5.062  0.00  0.00    -0.126 OA
ATOM     30  O   UNL     1       2.968   5.846   4.094  0.00  0.00    -0.126 OA
ENDBRANCH   5  28
BRANCH  12  31
ATOM     31  C   UNL     1       6.097  -2.935  -0.650  0.00  0.00    -0.043 C 
BRANCH  31  32
ATOM     32  C   UNL     1       7.489  -2.784  -1.207  0.00  0.00    -0.064 A 
ATOM     33  C   UNL     1       7.713  -1.957  -2.292  0.00  0.00    +0.004 A 
ATOM     34  C   UNL     1       8.990  -1.817  -2.803  0.00  0.00    +0.038 A 
ATOM     35  C   UNL     1      10.044  -2.506  -2.227  0.00  0.00    +0.123 A 
ATOM     36  C   UNL     1       9.819  -3.333  -1.140  0.00  0.00    +0.038 A 
ATOM     37  C   UNL     1       8.542  -3.467  -0.628  0.00  0.00    +0.004 A 
ATOM     38  F   UNL     1      11.293  -2.370  -2.726  0.00  0.00    -0.205 F 
ENDBRANCH  31  32
ENDBRANCH  12  31
TORSDOF 6
