REMARK  Name = ZINC39678246
REMARK  7 active torsions:
REMARK  status: ('A' for Active; 'I' for Inactive)
REMARK    1  A    between atoms: C_1  and  O_2
REMARK    2  A    between atoms: O_2  and  C_3
REMARK    3  A    between atoms: C_8  and  C_9
REMARK    4  A    between atoms: C_13  and  C_22
REMARK    5  A    between atoms: N_24  and  C_25
REMARK    6  A    between atoms: C_25  and  C_26
REMARK    7  A    between atoms: C_31  and  N_32
REMARK                            x       y       z     vdW  Elec       q    Type
REMARK                         _______ _______ _______ _____ _____    ______ ____
ROOT
ATOM      1  C   UNL     1       0.439  -3.002   0.083  0.00  0.00    +0.250 C 
ATOM      2  O   UNL     1       1.529  -2.526  -0.173  0.00  0.00    -0.270 OA
ATOM      3  N   UNL     1       0.270  -4.339   0.077  0.00  0.00    -0.296 N 
ATOM      4  C   UNL     1      -0.992  -5.096   0.257  0.00  0.00    +0.121 C 
ATOM      5  C   UNL     1      -0.892  -6.266  -0.747  0.00  0.00    +0.100 C 
ATOM      6  C   UNL     1       0.617  -6.452  -0.983  0.00  0.00    -0.004 C 
ATOM      7  C   UNL     1       1.302  -5.385  -0.118  0.00  0.00    +0.115 C 
ATOM      8  C   UNL     1       0.953  -6.227  -2.454  0.00  0.00    -0.010 C 
ATOM      9  C   UNL     1       2.448  -6.473  -2.675  0.00  0.00    -0.082 C 
ATOM     10  N   UNL     1       2.782  -7.847  -2.281  0.00  0.00    +0.379 N 
ATOM     11  C   UNL     1       2.543  -8.029  -0.845  0.00  0.00    -0.082 C 
ATOM     12  C   UNL     1       1.052  -7.848  -0.546  0.00  0.00    -0.010 C 
ATOM     13  H   UNL     1       2.208  -8.494  -2.801  0.00  0.00    -0.086 HD
ATOM     14  H   UNL     1       3.754  -8.027  -2.485  0.00  0.00    -0.086 HD
ENDROOT
BRANCH   1  20
ATOM     15  C   UNL     1      -0.816  -0.870  -0.231  0.00  0.00    +0.132 A 
ATOM     16  C   UNL     1      -1.891  -0.047   0.071  0.00  0.00    +0.046 A 
ATOM     17  C   UNL     1      -2.836  -0.453   0.993  0.00  0.00    +0.004 A 
ATOM     18  C   UNL     1      -2.718  -1.681   1.623  0.00  0.00    +0.001 A 
ATOM     19  C   UNL     1      -1.657  -2.511   1.335  0.00  0.00    +0.017 A 
ATOM     20  C   UNL     1      -0.697  -2.116   0.400  0.00  0.00    +0.078 A 
BRANCH  15  22
ATOM     21  C   UNL     1      -0.075   0.810  -1.738  0.00  0.00    +0.277 C 
ATOM     22  O   UNL     1       0.113  -0.473  -1.136  0.00  0.00    -0.494 OA
ENDBRANCH  15  22
ENDBRANCH   1  20
BRANCH   5  23
ATOM     23  C   UNL     1      -1.491  -7.516  -0.156  0.00  0.00    +0.218 C 
ATOM     24  O   UNL     1      -1.277  -7.802   1.003  0.00  0.00    -0.275 OA
ATOM     25  N   UNL     1      -2.265  -8.317  -0.916  0.00  0.00    -0.311 N 
ATOM     26  H   UNL     1      -2.436  -8.088  -1.843  0.00  0.00    +0.149 HD
BRANCH  25  27
ATOM     27  C   UNL     1      -2.847  -9.532  -0.342  0.00  0.00    +0.141 C 
BRANCH  27  28
ATOM     28  C   UNL     1      -3.663 -10.242  -1.391  0.00  0.00    -0.009 A 
ATOM     29  C   UNL     1      -5.037 -10.101  -1.412  0.00  0.00    +0.007 A 
ATOM     30  C   UNL     1      -5.786 -10.753  -2.374  0.00  0.00    +0.000 A 
ATOM     31  C   UNL     1      -5.163 -11.548  -3.319  0.00  0.00    +0.002 A 
ATOM     32  C   UNL     1      -3.789 -11.693  -3.304  0.00  0.00    +0.023 A 
ATOM     33  C   UNL     1      -3.033 -11.035  -2.342  0.00  0.00    +0.034 A 
BRANCH  33  34
ATOM     34  N   UNL     1      -1.644 -11.176  -2.327  0.00  0.00    -0.330 N 
ATOM     35  C   UNL     1      -1.009 -12.257  -1.561  0.00  0.00    +0.105 C 
ATOM     36  C   UNL     1      -0.082 -13.043  -2.493  0.00  0.00    +0.019 C 
ATOM     37  C   UNL     1       0.905 -12.079  -3.156  0.00  0.00    +0.003 C 
ATOM     38  C   UNL     1       0.135 -11.054  -3.993  0.00  0.00    +0.019 C 
ATOM     39  C   UNL     1      -0.790 -10.249  -3.082  0.00  0.00    +0.105 C 
ENDBRANCH  33  34
ENDBRANCH  27  28
ENDBRANCH  25  27
ENDBRANCH   5  23
TORSDOF 6
