REMARK  Name = ZINC14974486
REMARK  7 active torsions:
REMARK  status: ('A' for Active; 'I' for Inactive)
REMARK    1  A    between atoms: C_1  and  C_2
REMARK    2  A    between atoms: C_7  and  C_9
REMARK    3  A    between atoms: C_7  and  C_10
REMARK    4  A    between atoms: N_11  and  C_13
REMARK    5  A    between atoms: C_13  and  C_14
REMARK    6  A    between atoms: C_18  and  C_21
REMARK    7  A    between atoms: N_23  and  C_24
REMARK                            x       y       z     vdW  Elec       q    Type
REMARK                         _______ _______ _______ _____ _____    ______ ____
ROOT
ATOM      1  C   UNL     1      -3.549  -2.487  -0.378  0.00  0.00    +0.003 A 
ATOM      2  N   UNL     1      -3.852  -1.528   0.530  0.00  0.00    -0.327 N 
ATOM      3  C   UNL     1      -5.128  -1.155   0.746  0.00  0.00    +0.261 A 
ATOM      4  O   UNL     1      -5.381  -0.291   1.567  0.00  0.00    -0.267 OA
ATOM      5  C   UNL     1      -6.176  -1.771   0.015  0.00  0.00    +0.101 A 
ATOM      6  C   UNL     1      -5.857  -2.756  -0.917  0.00  0.00    +0.020 A 
ATOM      7  C   UNL     1      -4.518  -3.100  -1.105  0.00  0.00    +0.020 A 
ATOM      8  H   UNL     1      -3.139  -1.104   1.032  0.00  0.00    +0.169 HD
ENDROOT
BRANCH   5   9
ATOM      9  C   UNL     1      -7.576  -1.378   0.238  0.00  0.00    +0.250 C 
ATOM     10  O   UNL     1      -8.474  -1.985  -0.314  0.00  0.00    -0.270 OA
ATOM     11  N   UNL     1      -7.864  -0.345   1.054  0.00  0.00    -0.300 N 
ATOM     12  H   UNL     1      -7.155   0.092   1.552  0.00  0.00    +0.150 HD
BRANCH  11  13
ATOM     13  C   UNL     1      -9.247   0.118   1.191  0.00  0.00    +0.135 C 
ATOM     14  C   UNL     1      -9.553   1.157   0.140  0.00  0.00    -0.015 A 
ATOM     15  C   UNL     1      -9.547   1.110  -1.238  0.00  0.00    +0.006 A 
ATOM     16  C   UNL     1      -9.876   2.236  -1.972  0.00  0.00    +0.000 A 
ATOM     17  C   UNL     1     -10.211   3.412  -1.324  0.00  0.00    +0.001 A 
ATOM     18  C   UNL     1     -10.220   3.468   0.054  0.00  0.00    +0.009 A 
ATOM     19  C   UNL     1      -9.889   2.336   0.800  0.00  0.00    -0.012 A 
ATOM     20  C   UNL     1      -9.818   2.118   2.267  0.00  0.00    -0.012 A 
ATOM     21  C   UNL     1      -9.437   0.803   2.522  0.00  0.00    -0.015 A 
ATOM     22  C   UNL     1      -9.301   0.358   3.820  0.00  0.00    +0.006 A 
ATOM     23  C   UNL     1      -9.543   1.218   4.876  0.00  0.00    +0.000 A 
ATOM     24  C   UNL     1      -9.922   2.526   4.633  0.00  0.00    +0.001 A 
ATOM     25  C   UNL     1     -10.060   2.980   3.337  0.00  0.00    +0.009 A 
ENDBRANCH  11  13
ENDBRANCH   5   9
BRANCH   1  26
ATOM     26  C   UNL     1      -2.109  -2.875  -0.590  0.00  0.00    -0.024 C 
BRANCH  26  36
ATOM     27  C   UNL     1       1.886  -0.666  -2.416  0.00  0.00    +0.009 C 
ATOM     28  C   UNL     1       0.553  -1.417  -2.552  0.00  0.00    -0.048 C 
ATOM     29  C   UNL     1      -0.612  -0.481  -2.978  0.00  0.00    -0.011 C 
ATOM     30  C   UNL     1      -1.813  -1.327  -2.471  0.00  0.00    -0.067 C 
ATOM     31  C   UNL     1      -1.976  -2.507  -3.410  0.00  0.00    -0.009 C 
ATOM     32  C   UNL     1      -0.716  -3.227  -3.838  0.00  0.00    -0.036 C 
ATOM     33  C   UNL     1       0.611  -2.537  -3.591  0.00  0.00    +0.011 C 
ATOM     34  C   UNL     1      -0.684  -4.628  -3.199  0.00  0.00    +0.011 C 
ATOM     35  C   UNL     1      -0.825  -3.461  -5.368  0.00  0.00    +0.011 C 
ATOM     36  N   UNL     1      -1.372  -1.735  -1.123  0.00  0.00    +0.386 N 
ATOM     37  C   UNL     1       0.074  -2.014  -1.210  0.00  0.00    -0.071 C 
ATOM     38  H   UNL     1      -1.500  -0.942  -0.491  0.00  0.00    -0.081 HD
ENDBRANCH  26  36
ENDBRANCH   1  26
TORSDOF 4
