REMARK  Name = ZINC35711504
REMARK  15 active torsions:
REMARK  status: ('A' for Active; 'I' for Inactive)
REMARK    1  A    between atoms: C_1  and  C_2
REMARK    2  A    between atoms: C_2  and  O_3
REMARK    3  A    between atoms: O_3  and  C_4
REMARK    4  A    between atoms: C_4  and  C_6
REMARK    5  A    between atoms: C_13  and  C_15
REMARK    6  A    between atoms: C_18  and  C_20
REMARK    7  A    between atoms: C_20  and  N_21
REMARK    8  A    between atoms: N_21  and  C_22
REMARK    9  A    between atoms: N_21  and  C_32
REMARK   10  A    between atoms: C_22  and  C_23
REMARK   11  A    between atoms: C_26  and  C_29
REMARK   12  A    between atoms: C_29  and  C_30
REMARK   13  A    between atoms: C_29  and  C_31
REMARK   14  A    between atoms: C_32  and  C_34
REMARK   15  A    between atoms: C_32  and  C_35
REMARK                            x       y       z     vdW  Elec       q    Type
REMARK                         _______ _______ _______ _____ _____    ______ ____
ROOT
ATOM      1  N   UNL     1       5.704  -6.043  -8.826  0.00  0.00    +0.393 N 
ATOM      2  H   UNL     1       6.001  -5.910  -9.781  0.00  0.00    -0.080 HD
ENDROOT
BRANCH   1   3
ATOM      3  C   UNL     1       4.254  -5.822  -8.730  0.00  0.00    -0.040 C 
ATOM      4  C   UNL     1       3.983  -4.350  -8.415  0.00  0.00    -0.008 C 
BRANCH   3   5
ATOM      5  C   UNL     1       3.603  -6.184 -10.040  0.00  0.00    -0.061 A 
ATOM      6  C   UNL     1       4.157  -5.751 -11.230  0.00  0.00    +0.002 A 
ATOM      7  C   UNL     1       3.560  -6.083 -12.432  0.00  0.00    +0.000 A 
ATOM      8  C   UNL     1       2.408  -6.848 -12.443  0.00  0.00    +0.000 A 
ATOM      9  C   UNL     1       1.855  -7.282 -11.253  0.00  0.00    +0.000 A 
ATOM     10  C   UNL     1       2.455  -6.953 -10.051  0.00  0.00    +0.002 A 
ENDBRANCH   3   5
ENDBRANCH   1   3
BRANCH   1  11
ATOM     11  C   UNL     1       6.403  -5.087  -7.958  0.00  0.00    +0.020 C 
BRANCH  11  15
ATOM     12  C   UNL     1       6.229  -1.713  -9.266  0.00  0.00    +0.164 A 
ATOM     13  C   UNL     1       7.228  -2.224 -10.038  0.00  0.00    +0.230 A 
ATOM     14  O   UNL     1       7.405  -3.498  -9.655  0.00  0.00    -0.449 OA
ATOM     15  C   UNL     1       6.536  -3.765  -8.670  0.00  0.00    +0.179 A 
ATOM     16  N   UNL     1       5.828  -2.704  -8.424  0.00  0.00    -0.210 NA
BRANCH  12  23
ATOM     17  C   UNL     1       4.512  -0.241  -6.001  0.00  0.00    +0.115 C 
ATOM     18  C   UNL     1       3.879   1.151  -5.957  0.00  0.00    +0.018 C 
ATOM     19  C   UNL     1       4.547   2.051  -6.998  0.00  0.00    +0.020 C 
ATOM     20  C   UNL     1       4.324   1.463  -8.395  0.00  0.00    +0.108 C 
ATOM     21  N   UNL     1       4.800   0.072  -8.403  0.00  0.00    -0.295 N 
ATOM     22  C   UNL     1       4.289  -0.856  -7.386  0.00  0.00    +0.122 C 
ATOM     23  C   UNL     1       5.688  -0.343  -9.328  0.00  0.00    +0.268 C 
ATOM     24  O   UNL     1       6.043   0.412 -10.213  0.00  0.00    -0.268 OA
BRANCH  17  25
ATOM     25  C   UNL     1       3.876  -1.117  -4.953  0.00  0.00    +0.312 C 
ATOM     26  O   UNL     1       3.005  -0.673  -4.242  0.00  0.00    -0.250 OA
BRANCH  25  27
ATOM     27  O   UNL     1       4.276  -2.390  -4.809  0.00  0.00    -0.465 OA
BRANCH  27  29
ATOM     28  C   UNL     1       4.213  -4.577  -3.781  0.00  0.00    +0.048 C 
ATOM     29  C   UNL     1       3.629  -3.163  -3.795  0.00  0.00    +0.229 C 
ENDBRANCH  27  29
ENDBRANCH  25  27
ENDBRANCH  17  25
ENDBRANCH  12  23
ENDBRANCH  11  15
ENDBRANCH   1  11
BRANCH   1  30
ATOM     30  C   UNL     1       6.019  -7.413  -8.401  0.00  0.00    -0.041 C 
BRANCH  30  31
ATOM     31  C   UNL     1       5.402  -8.393  -9.364  0.00  0.00    -0.064 A 
ATOM     32  C   UNL     1       4.199  -9.001  -9.057  0.00  0.00    +0.002 A 
ATOM     33  C   UNL     1       3.633  -9.900  -9.941  0.00  0.00    +0.004 A 
ATOM     34  C   UNL     1       4.270 -10.191 -11.133  0.00  0.00    -0.045 A 
ATOM     35  C   UNL     1       5.472  -9.583 -11.441  0.00  0.00    +0.004 A 
ATOM     36  C   UNL     1       6.036  -8.681 -10.559  0.00  0.00    +0.002 A 
BRANCH  34  37
ATOM     37  C   UNL     1       3.653 -11.173 -12.096  0.00  0.00    +0.013 C 
ATOM     38  C   UNL     1       3.383 -10.475 -13.431  0.00  0.00    +0.012 C 
ATOM     39  C   UNL     1       4.614 -12.343 -12.317  0.00  0.00    +0.012 C 
ENDBRANCH  34  37
ENDBRANCH  30  31
ENDBRANCH   1  30
TORSDOF 11
