REMARK  Name = ZINC16134000
REMARK  10 active torsions:
REMARK  status: ('A' for Active; 'I' for Inactive)
REMARK    1  A    between atoms: C_1  and  O_2
REMARK    2  A    between atoms: O_2  and  C_3
REMARK    3  A    between atoms: C_4  and  O_37
REMARK    4  A    between atoms: C_5  and  C_9
REMARK    5  A    between atoms: N_10  and  C_11
REMARK    6  A    between atoms: C_20  and  N_23
REMARK    7  A    between atoms: C_24  and  C_25
REMARK    8  A    between atoms: C_26  and  O_33
REMARK    9  A    between atoms: C_27  and  O_31
REMARK   10  A    between atoms: O_31  and  C_32
REMARK                            x       y       z     vdW  Elec       q    Type
REMARK                         _______ _______ _______ _____ _____    ______ ____
ROOT
ATOM      1  C   UNL     1       0.866  -6.172  -1.457  0.00  0.00    +0.066 A 
ATOM      2  C   UNL     1       1.212  -6.940  -0.337  0.00  0.00    +0.055 A 
ATOM      3  C   UNL     1       1.262  -8.300  -0.440  0.00  0.00    +0.103 A 
ATOM      4  C   UNL     1       0.979  -8.973  -1.631  0.00  0.00    +0.009 A 
ATOM      5  C   UNL     1       0.632  -8.188  -2.751  0.00  0.00    +0.012 A 
ATOM      6  C   UNL     1       0.572  -6.822  -2.659  0.00  0.00    +0.028 A 
ATOM      7  C   UNL     1       1.077 -10.456  -1.576  0.00  0.00    +0.009 A 
ATOM      8  C   UNL     1       1.441 -10.996  -0.340  0.00  0.00    +0.103 A 
ATOM      9  C   UNL     1       1.571 -12.341  -0.138  0.00  0.00    +0.055 A 
ATOM     10  C   UNL     1       1.335 -13.227  -1.197  0.00  0.00    +0.066 A 
ATOM     11  C   UNL     1       0.970 -12.711  -2.444  0.00  0.00    +0.028 A 
ATOM     12  C   UNL     1       0.843 -11.360  -2.634  0.00  0.00    +0.012 A 
ATOM     13  S   UNL     1       1.647  -9.588   0.719  0.00  0.00    +0.026 S 
ATOM     14  O   UNL     1       3.027  -9.484   1.042  0.00  0.00    -0.164 OA
ATOM     15  O   UNL     1       0.613  -9.621   1.693  0.00  0.00    -0.164 OA
ENDROOT
BRANCH   1  17
ATOM     16  C   UNL     1       1.339  -4.076  -2.314  0.00  0.00    +0.123 C 
ATOM     17  N   UNL     1       0.810  -4.809  -1.374  0.00  0.00    -0.255 NA
BRANCH  16  20
ATOM     18  C   UNL     1       0.606  -0.608  -1.056  0.00  0.00    +0.162 A 
ATOM     19  C   UNL     1       0.656  -1.995  -1.130  0.00  0.00    +0.167 A 
ATOM     20  C   UNL     1       1.280  -2.610  -2.225  0.00  0.00    +0.038 A 
ATOM     21  C   UNL     1       1.847  -1.820  -3.232  0.00  0.00    +0.013 A 
ATOM     22  C   UNL     1       1.789  -0.446  -3.143  0.00  0.00    +0.004 A 
ATOM     23  C   UNL     1       1.167   0.160  -2.064  0.00  0.00    +0.049 A 
BRANCH  18  25
ATOM     24  C   UNL     1      -0.017   1.425   0.010  0.00  0.00    +0.277 C 
ATOM     25  O   UNL     1       0.002  -0.004   0.002  0.00  0.00    -0.491 OA
ENDBRANCH  18  25
BRANCH  19  26
ATOM     26  O   UNL     1       0.103  -2.751  -0.147  0.00  0.00    -0.503 OA
ATOM     27  H   UNL     1      -0.826  -2.974  -0.297  0.00  0.00    +0.292 HD
ENDBRANCH  19  26
ENDBRANCH  16  20
ENDBRANCH   1  17
BRANCH  10  28
ATOM     28  N   UNL     1       1.461 -14.576  -1.014  0.00  0.00    -0.255 NA
ATOM     29  C   UNL     1       0.552 -15.385  -1.483  0.00  0.00    +0.123 C 
BRANCH  29  30
ATOM     30  C   UNL     1       0.687 -16.836  -1.286  0.00  0.00    +0.038 A 
ATOM     31  C   UNL     1       1.789 -17.353  -0.590  0.00  0.00    +0.167 A 
ATOM     32  C   UNL     1       1.905 -18.727  -0.410  0.00  0.00    +0.162 A 
ATOM     33  C   UNL     1       0.936 -19.577  -0.917  0.00  0.00    +0.049 A 
ATOM     34  C   UNL     1      -0.153 -19.067  -1.604  0.00  0.00    +0.004 A 
ATOM     35  C   UNL     1      -0.286 -17.708  -1.787  0.00  0.00    +0.013 A 
BRANCH  32  36
ATOM     36  O   UNL     1       2.971 -19.236   0.264  0.00  0.00    -0.491 OA
ATOM     37  C   UNL     1       3.027 -20.656   0.412  0.00  0.00    +0.277 C 
ENDBRANCH  32  36
BRANCH  31  38
ATOM     38  O   UNL     1       2.737 -16.517  -0.095  0.00  0.00    -0.503 OA
ATOM     39  H   UNL     1       2.563 -16.213   0.806  0.00  0.00    +0.292 HD
ENDBRANCH  31  38
ENDBRANCH  29  30
ENDBRANCH  10  28
TORSDOF 8
