REMARK  Name = ZINC23703558
REMARK  6 active torsions:
REMARK  status: ('A' for Active; 'I' for Inactive)
REMARK    1  A    between atoms: C_1  and  C_2
REMARK    2  A    between atoms: C_2  and  C_4
REMARK    3  A    between atoms: C_2  and  N_11
REMARK    4  A    between atoms: N_14  and  S_17
REMARK    5  A    between atoms: S_17  and  C_20
REMARK    6  A    between atoms: C_25  and  N_26
REMARK                            x       y       z     vdW  Elec       q    Type
REMARK                         _______ _______ _______ _____ _____    ______ ____
ROOT
ATOM      1  N   UNL     1      -0.016  -1.029  -1.454  0.00  0.00    -0.293 NA
ATOM      2  C   UNL     1      -0.054  -2.472  -1.729  0.00  0.00    +0.102 C 
ATOM      3  C   UNL     1       0.701  -2.761  -3.030  0.00  0.00    +0.125 C 
ATOM      4  N   UNL     1       2.050  -2.184  -2.926  0.00  0.00    -0.174 NA
ATOM      5  C   UNL     1       2.174  -0.776  -2.520  0.00  0.00    +0.125 C 
ATOM      6  C   UNL     1       1.361  -0.565  -1.238  0.00  0.00    +0.102 C 
ENDROOT
BRANCH   4   7
ATOM      7  S   UNL     1       3.392  -3.095  -3.257  0.00  0.00    +0.063 S 
ATOM      8  O   UNL     1       4.495  -2.425  -2.662  0.00  0.00    -0.153 OA
ATOM      9  O   UNL     1       3.058  -4.440  -2.943  0.00  0.00    -0.153 OA
BRANCH   7  10
ATOM     10  C   UNL     1       3.646  -3.034  -5.000  0.00  0.00    +0.136 A 
ATOM     11  C   UNL     1       2.959  -2.111  -5.767  0.00  0.00    +0.031 A 
ATOM     12  C   UNL     1       3.158  -2.063  -7.133  0.00  0.00    +0.002 A 
ATOM     13  C   UNL     1       4.045  -2.937  -7.734  0.00  0.00    +0.002 A 
ATOM     14  C   UNL     1       4.733  -3.859  -6.967  0.00  0.00    +0.035 A 
ATOM     15  C   UNL     1       4.537  -3.904  -5.599  0.00  0.00    +0.152 A 
BRANCH  15  16
ATOM     16  N   UNL     1       5.277  -4.888  -4.778  0.00  0.00    +0.058 N 
ATOM     17  O   UNL     1       5.957  -5.732  -5.312  0.00  0.00    -0.126 OA
ATOM     18  O   UNL     1       5.202  -4.847  -3.572  0.00  0.00    -0.126 OA
ENDBRANCH  15  16
ENDBRANCH   7  10
ENDBRANCH   4   7
BRANCH   1  20
ATOM     19  C   UNL     1      -0.890   0.830  -0.121  0.00  0.00    +0.029 C 
ATOM     20  C   UNL     1      -0.872  -0.688  -0.310  0.00  0.00    +0.084 C 
BRANCH  20  21
ATOM     21  C   UNL     1      -2.273  -1.179  -0.567  0.00  0.00    -0.030 A 
ATOM     22  C   UNL     1      -2.823  -1.069  -1.830  0.00  0.00    +0.008 A 
ATOM     23  C   UNL     1      -4.107  -1.520  -2.067  0.00  0.00    +0.038 A 
ATOM     24  C   UNL     1      -4.844  -2.082  -1.038  0.00  0.00    +0.123 A 
ATOM     25  C   UNL     1      -4.292  -2.192   0.227  0.00  0.00    +0.038 A 
ATOM     26  C   UNL     1      -3.005  -1.745   0.460  0.00  0.00    +0.008 A 
ATOM     27  F   UNL     1      -6.100  -2.522  -1.268  0.00  0.00    -0.205 F 
ENDBRANCH  20  21
ENDBRANCH   1  20
TORSDOF 5
