REMARK  Name = ZINC09530360
REMARK  10 active torsions:
REMARK  status: ('A' for Active; 'I' for Inactive)
REMARK    1  A    between atoms: C_1  and  C_2
REMARK    2  A    between atoms: C_2  and  C_3
REMARK    3  A    between atoms: C_3  and  N_4
REMARK    4  A    between atoms: C_15  and  S_16
REMARK    5  A    between atoms: S_16  and  C_17
REMARK    6  A    between atoms: C_17  and  C_18
REMARK    7  A    between atoms: N_20  and  C_21
REMARK    8  A    between atoms: C_21  and  C_23
REMARK    9  A    between atoms: C_21  and  C_24
REMARK   10  A    between atoms: C_24  and  C_25
REMARK                            x       y       z     vdW  Elec       q    Type
REMARK                         _______ _______ _______ _____ _____    ______ ____
ROOT
ATOM      1  N   UNL     1      -8.083   1.599   3.651  0.00  0.00    -0.277 N 
ATOM      2  C   UNL     1      -9.230   0.868   3.940  0.00  0.00    +0.063 A 
ATOM      3  C   UNL     1     -10.168   1.357   4.841  0.00  0.00    +0.025 A 
ATOM      4  C   UNL     1     -11.305   0.624   5.119  0.00  0.00    +0.002 A 
ATOM      5  C   UNL     1     -11.515  -0.597   4.505  0.00  0.00    +0.002 A 
ATOM      6  C   UNL     1     -10.584  -1.090   3.607  0.00  0.00    +0.031 A 
ATOM      7  C   UNL     1      -9.449  -0.361   3.329  0.00  0.00    +0.134 A 
ATOM      8  S   UNL     1      -8.243  -0.965   2.191  0.00  0.00    +0.103 S 
ATOM      9  O   UNL     1      -8.727  -0.673   0.888  0.00  0.00    -0.146 OA
ATOM     10  O   UNL     1      -7.907  -2.281   2.610  0.00  0.00    -0.146 OA
ATOM     11  N   UNL     1      -6.893  -0.030   2.421  0.00  0.00    -0.106 NA
ATOM     12  C   UNL     1      -6.958   1.079   3.086  0.00  0.00    +0.182 C 
ENDROOT
BRANCH   1  13
ATOM     13  C   UNL     1      -8.088   3.028   3.972  0.00  0.00    +0.113 C 
BRANCH  13  15
ATOM     14  C   UNL     1      -7.579   4.725   5.734  0.00  0.00    +0.005 C 
ATOM     15  C   UNL     1      -7.574   3.232   5.398  0.00  0.00    +0.016 C 
ENDBRANCH  13  15
ENDBRANCH   1  13
BRANCH  12  16
ATOM     16  S   UNL     1      -5.462   1.990   3.282  0.00  0.00    -0.079 S 
BRANCH  16  17
ATOM     17  C   UNL     1      -4.317   0.909   2.390  0.00  0.00    +0.172 C 
BRANCH  17  18
ATOM     18  C   UNL     1      -2.933   1.504   2.427  0.00  0.00    +0.224 C 
ATOM     19  O   UNL     1      -2.740   2.556   2.999  0.00  0.00    -0.275 OA
ATOM     20  N   UNL     1      -1.910   0.868   1.823  0.00  0.00    -0.312 N 
ATOM     21  H   UNL     1      -2.064   0.027   1.365  0.00  0.00    +0.149 HD
BRANCH  20  22
ATOM     22  C   UNL     1      -0.564   1.447   1.859  0.00  0.00    +0.070 C 
ATOM     23  C   UNL     1       0.135   1.032   3.155  0.00  0.00    +0.028 C 
BRANCH  22  24
ATOM     24  C   UNL     1       0.241   0.940   0.660  0.00  0.00    +0.018 C 
ATOM     25  C   UNL     1      -0.389   1.460  -0.634  0.00  0.00    +0.005 C 
ENDBRANCH  22  24
ENDBRANCH  20  22
ENDBRANCH  17  18
ENDBRANCH  16  17
ENDBRANCH  12  16
TORSDOF 7
