REMARK  Name = ZINC09376286
REMARK  9 active torsions:
REMARK  status: ('A' for Active; 'I' for Inactive)
REMARK    1  A    between atoms: C_1  and  C_2
REMARK    2  A    between atoms: C_2  and  C_4
REMARK    3  A    between atoms: C_2  and  N_61
REMARK    4  A    between atoms: C_13  and  N_61
REMARK    5  A    between atoms: C_14  and  C_15
REMARK    6  A    between atoms: C_14  and  N_61
REMARK    7  A    between atoms: N_17  and  N_18
REMARK    8  A    between atoms: C_21  and  C_25
REMARK    9  A    between atoms: C_21  and  C_31
REMARK                            x       y       z     vdW  Elec       q    Type
REMARK                         _______ _______ _______ _____ _____    ______ ____
ROOT
ATOM      1  N   UNL     1      -1.222  11.866   3.114  0.00  0.00    -0.137 N 
ATOM      2  C   UNL     1      -2.187  12.543   3.768  0.00  0.00    +0.272 C 
ATOM      3  O   UNL     1      -3.325  12.734   3.398  0.00  0.00    -0.270 OA
ATOM      4  C   UNL     1      -1.553  13.013   5.061  0.00  0.00    +0.165 C 
ATOM      5  N   UNL     1      -0.173  12.504   4.976  0.00  0.00    -0.276 N 
ATOM      6  C   UNL     1      -0.076  11.849   3.805  0.00  0.00    +0.327 C 
ATOM      7  O   UNL     1       0.938  11.303   3.417  0.00  0.00    -0.251 OA
ATOM      8  H   UNL     1       0.530  12.620   5.634  0.00  0.00    +0.152 HD
ENDROOT
BRANCH   4   9
ATOM      9  C   UNL     1      -2.263  12.419   6.251  0.00  0.00    -0.011 A 
ATOM     10  C   UNL     1      -1.536  11.815   7.259  0.00  0.00    +0.006 A 
ATOM     11  C   UNL     1      -2.187  11.275   8.352  0.00  0.00    +0.000 A 
ATOM     12  C   UNL     1      -3.566  11.331   8.433  0.00  0.00    +0.000 A 
ATOM     13  C   UNL     1      -4.293  11.931   7.422  0.00  0.00    +0.000 A 
ATOM     14  C   UNL     1      -3.642  12.475   6.331  0.00  0.00    +0.006 A 
ENDBRANCH   4   9
BRANCH   4  15
ATOM     15  C   UNL     1      -1.560  14.518   5.138  0.00  0.00    -0.011 A 
ATOM     16  C   UNL     1      -2.741  15.213   4.963  0.00  0.00    +0.006 A 
ATOM     17  C   UNL     1      -2.748  16.594   5.037  0.00  0.00    +0.000 A 
ATOM     18  C   UNL     1      -1.572  17.279   5.278  0.00  0.00    +0.000 A 
ATOM     19  C   UNL     1      -0.390  16.584   5.449  0.00  0.00    +0.000 A 
ATOM     20  C   UNL     1      -0.383  15.203   5.378  0.00  0.00    +0.006 A 
ENDBRANCH   4  15
BRANCH   1  23
ATOM     21  C   UNL     1      -1.512   9.919   1.774  0.00  0.00    +0.213 C 
ATOM     22  O   UNL     1      -1.466   9.239   2.777  0.00  0.00    -0.276 OA
ATOM     23  N   UNL     1      -1.396  11.259   1.863  0.00  0.00    -0.225 N 
ATOM     24  H   UNL     1      -1.432  11.803   1.061  0.00  0.00    +0.173 HD
BRANCH  21  25
ATOM     25  C   UNL     1      -1.699   9.267   0.428  0.00  0.00    +0.021 C 
BRANCH  25  27
ATOM     26  C   UNL     1      -3.017   7.450   1.336  0.00  0.00    -0.095 C 
ATOM     27  N   UNL     1      -1.776   7.803   0.615  0.00  0.00    +0.389 N 
ATOM     28  H   UNL     1      -0.969   7.494   1.171  0.00  0.00    -0.081 HD
BRANCH  27  30
ATOM     29  C   UNL     1      -2.972   7.500  -1.527  0.00  0.00    -0.006 C 
ATOM     30  C   UNL     1      -1.743   7.123  -0.697  0.00  0.00    -0.014 C 
BRANCH  30  31
ATOM     31  C   UNL     1      -1.724   5.633  -0.475  0.00  0.00    +0.066 A 
ATOM     32  N   UNL     1      -2.462   4.927   0.334  0.00  0.00    -0.246 NA
ATOM     33  C   UNL     1      -2.345   3.587   0.438  0.00  0.00    +0.078 A 
ATOM     34  C   UNL     1      -3.065   2.691   1.260  0.00  0.00    +0.029 A 
ATOM     35  C   UNL     1      -2.808   1.356   1.224  0.00  0.00    +0.002 A 
ATOM     36  C   UNL     1      -1.829   0.825   0.395  0.00  0.00    +0.001 A 
ATOM     37  C   UNL     1      -1.103   1.668  -0.424  0.00  0.00    +0.017 A 
ATOM     38  C   UNL     1      -1.359   3.017  -0.400  0.00  0.00    +0.039 A 
ATOM     39  S   UNL     1      -0.714   4.444  -1.236  0.00  0.00    -0.074 S 
ENDBRANCH  30  31
ENDBRANCH  27  30
ENDBRANCH  25  27
ENDBRANCH  21  25
ENDBRANCH   1  23
TORSDOF 7
