REMARK  Name = ZINC44942547
REMARK  5 active torsions:
REMARK  status: ('A' for Active; 'I' for Inactive)
REMARK    1  A    between atoms: C_13  and  C_15
REMARK    2  A    between atoms: C_21  and  C_23
REMARK    3  A    between atoms: N_25  and  C_26
REMARK    4  A    between atoms: C_26  and  C_27
REMARK    5  A    between atoms: C_31  and  C_33
REMARK                            x       y       z     vdW  Elec       q    Type
REMARK                         _______ _______ _______ _____ _____    ______ ____
ROOT
ATOM      1  C   UNL     1      -0.032  -6.653   1.157  0.00  0.00    +0.087 C 
ATOM      2  C   UNL     1      -0.792  -6.391  -0.145  0.00  0.00    +0.013 C 
ATOM      3  C   UNL     1      -2.098  -7.188  -0.143  0.00  0.00    +0.001 C 
ATOM      4  C   UNL     1      -1.784  -8.681  -0.028  0.00  0.00    +0.001 C 
ATOM      5  C   UNL     1      -1.025  -8.943   1.274  0.00  0.00    +0.013 C 
ATOM      6  C   UNL     1       0.281  -8.146   1.272  0.00  0.00    +0.087 C 
ENDROOT
BRANCH   1  19
ATOM      7  C   UNL     1       0.010   1.359   2.441  0.00  0.00    +0.005 A 
ATOM      8  C   UNL     1       1.222   2.038   2.428  0.00  0.00    +0.018 A 
ATOM      9  C   UNL     1       2.400   1.320   2.402  0.00  0.00    +0.084 A 
ATOM     10  N   UNL     1       2.387   0.000   2.389  0.00  0.00    -0.350 N 
ATOM     11  C   UNL     1       1.254  -0.684   2.400  0.00  0.00    +0.099 A 
ATOM     12  C   UNL     1       0.029  -0.024   2.426  0.00  0.00    +0.042 A 
ATOM     13  N   UNL     1       1.287  -2.073   2.384  0.00  0.00    -0.314 N 
ATOM     14  C   UNL     1       0.048  -2.853   2.508  0.00  0.00    +0.125 C 
ATOM     15  C   UNL     1      -0.054  -3.805   1.310  0.00  0.00    +0.126 C 
ATOM     16  N   UNL     1       1.222  -4.521   1.170  0.00  0.00    -0.298 N 
ATOM     17  C   UNL     1       2.461  -3.741   1.046  0.00  0.00    +0.126 C 
ATOM     18  C   UNL     1       2.562  -2.789   2.238  0.00  0.00    +0.125 C 
ATOM     19  C   UNL     1       1.254  -5.868   1.155  0.00  0.00    +0.219 C 
ATOM     20  O   UNL     1       2.319  -6.449   1.141  0.00  0.00    -0.275 OA
ATOM     21  H   UNL     1       3.230  -0.480   2.370  0.00  0.00    +0.166 HD
ENDBRANCH   1  19
BRANCH   6  22
ATOM     22  C   UNL     1       1.129  -8.573   0.102  0.00  0.00    +0.217 C 
ATOM     23  O   UNL     1       1.450  -7.763  -0.742  0.00  0.00    -0.275 OA
ATOM     24  N   UNL     1       1.530  -9.856  -0.007  0.00  0.00    -0.311 N 
ATOM     25  H   UNL     1       1.272 -10.503   0.667  0.00  0.00    +0.149 HD
BRANCH  24  26
ATOM     26  C   UNL     1       2.353 -10.271  -1.145  0.00  0.00    +0.139 C 
BRANCH  26  27
ATOM     27  C   UNL     1       2.662 -11.742  -1.032  0.00  0.00    -0.030 A 
ATOM     28  C   UNL     1       3.791 -12.160  -0.351  0.00  0.00    +0.008 A 
ATOM     29  C   UNL     1       4.075 -13.508  -0.246  0.00  0.00    +0.039 A 
ATOM     30  C   UNL     1       3.229 -14.440  -0.822  0.00  0.00    +0.135 A 
ATOM     31  C   UNL     1       2.099 -14.021  -1.503  0.00  0.00    +0.090 A 
ATOM     32  C   UNL     1       1.814 -12.672  -1.603  0.00  0.00    +0.020 A 
ATOM     33  F   UNL     1       3.506 -15.759  -0.720  0.00  0.00    -0.205 F 
BRANCH  31  34
ATOM     34  C   UNL     1       1.177 -15.034  -2.131  0.00  0.00    +0.420 C 
ATOM     35  F   UNL     1       0.115 -14.373  -2.757  0.00  0.00    -0.166 F 
ATOM     36  F   UNL     1       1.884 -15.783  -3.078  0.00  0.00    -0.166 F 
ATOM     37  F   UNL     1       0.677 -15.886  -1.141  0.00  0.00    -0.166 F 
ENDBRANCH  31  34
ENDBRANCH  26  27
ENDBRANCH  24  26
ENDBRANCH   6  22
TORSDOF 5
