REMARK  Name = ZINC20837401
REMARK  9 active torsions:
REMARK  status: ('A' for Active; 'I' for Inactive)
REMARK    1  A    between atoms: C_1  and  C_2
REMARK    2  A    between atoms: C_4  and  C_32
REMARK    3  A    between atoms: C_6  and  N_8
REMARK    4  A    between atoms: C_9  and  C_11
REMARK    5  A    between atoms: C_11  and  S_12
REMARK    6  A    between atoms: S_12  and  C_13
REMARK    7  A    between atoms: N_18  and  N_19
REMARK    8  A    between atoms: C_20  and  C_21
REMARK    9  A    between atoms: C_20  and  C_22
REMARK                            x       y       z     vdW  Elec       q    Type
REMARK                         _______ _______ _______ _____ _____    ______ ____
ROOT
ATOM      1  C   UNL     1      -5.290   0.812   0.259  0.00  0.00    +0.211 A 
ATOM      2  N   UNL     1      -6.602   1.189   0.291  0.00  0.00    -0.186 NA
ATOM      3  C   UNL     1      -7.363   0.059   0.407  0.00  0.00    +0.232 A 
ATOM      4  N   UNL     1      -6.554  -0.972   0.444  0.00  0.00    -0.245 N 
ATOM      5  N   UNL     1      -5.240  -0.495   0.344  0.00  0.00    -0.144 NA
ATOM      6  N   UNL     1      -8.749   0.011   0.473  0.00  0.00    -0.205 N 
ATOM      7  H   UNL     1      -9.334   0.942   0.432  0.00  0.00    +0.177 HD
ATOM      8  H   UNL     1      -6.963  -1.989   0.538  0.00  0.00    +0.192 HD
ENDROOT
BRANCH   6   9
ATOM      9  N   UNL     1      -9.403  -1.222   0.590  0.00  0.00    -0.189 NA
ATOM     10  C   UNL     1     -10.681  -1.266   0.651  0.00  0.00    +0.040 C 
ATOM     11  C   UNL     1     -11.482   0.009   0.596  0.00  0.00    +0.063 C 
BRANCH  10  12
ATOM     12  C   UNL     1     -11.384  -2.593   0.778  0.00  0.00    +0.011 C 
ATOM     13  C   UNL     1     -12.316  -2.792  -0.419  0.00  0.00    +0.016 C 
ATOM     14  C   UNL     1     -13.030  -4.140  -0.291  0.00  0.00    -0.010 C 
ATOM     15  C   UNL     1     -11.993  -5.265  -0.257  0.00  0.00    +0.007 C 
ATOM     16  C   UNL     1     -11.062  -5.065   0.940  0.00  0.00    -0.010 C 
ATOM     17  C   UNL     1     -10.348  -3.718   0.812  0.00  0.00    +0.016 C 
ATOM     18  C   UNL     1     -11.881  -5.087   2.232  0.00  0.00    +0.007 C 
ATOM     19  C   UNL     1     -12.917  -3.961   2.199  0.00  0.00    -0.010 C 
ATOM     20  C   UNL     1     -13.848  -4.161   1.001  0.00  0.00    +0.007 C 
ATOM     21  C   UNL     1     -12.203  -2.614   2.070  0.00  0.00    +0.016 C 
ENDBRANCH  10  12
ENDBRANCH   6   9
BRANCH   1  22
ATOM     22  S   UNL     1      -3.905   1.894   0.118  0.00  0.00    -0.075 S 
BRANCH  22  23
ATOM     23  C   UNL     1      -2.474   0.779   0.133  0.00  0.00    +0.173 C 
BRANCH  23  25
ATOM     24  N   UNL     1      -0.011   0.966   0.007  0.00  0.00    -0.285 N 
ATOM     25  C   UNL     1      -1.207   1.587   0.017  0.00  0.00    +0.227 C 
ATOM     26  O   UNL     1      -1.264   2.795  -0.067  0.00  0.00    -0.275 OA
ATOM     27  H   UNL     1       0.038  -0.133   0.011  0.00  0.00    +0.155 HD
BRANCH  24  33
ATOM     28  C   UNL     1       4.673   1.524   1.393  0.00  0.00    +0.044 C 
ATOM     29  C   UNL     1       3.454   2.013   0.655  0.00  0.00    -0.048 A 
ATOM     30  C   UNL     1       3.500   3.208  -0.039  0.00  0.00    +0.006 A 
ATOM     31  C   UNL     1       2.383   3.661  -0.718  0.00  0.00    -0.048 A 
ATOM     32  C   UNL     1       1.218   2.920  -0.704  0.00  0.00    +0.026 A 
ATOM     33  C   UNL     1       1.168   1.719  -0.008  0.00  0.00    +0.034 A 
ATOM     34  C   UNL     1       2.289   1.271   0.677  0.00  0.00    +0.026 A 
ATOM     35  C   UNL     1       2.438   4.964  -1.473  0.00  0.00    +0.044 C 
ENDBRANCH  24  33
ENDBRANCH  23  25
ENDBRANCH  22  23
ENDBRANCH   1  22
TORSDOF 6
