REMARK  Name = ZINC12844564
REMARK  8 active torsions:
REMARK  status: ('A' for Active; 'I' for Inactive)
REMARK    1  A    between atoms: C_1  and  C_2
REMARK    2  A    between atoms: C_6  and  O_37
REMARK    3  A    between atoms: C_7  and  O_35
REMARK    4  A    between atoms: C_13  and  C_15
REMARK    5  A    between atoms: C_19  and  C_30
REMARK    6  A    between atoms: C_22  and  C_26
REMARK    7  A    between atoms: O_35  and  C_36
REMARK    8  A    between atoms: O_37  and  C_38
REMARK                            x       y       z     vdW  Elec       q    Type
REMARK                         _______ _______ _______ _____ _____    ______ ____
ROOT
ATOM      1  C   UNL     1       4.406  -4.124   1.653  0.00  0.00    +0.110 C 
ATOM      2  C   UNL     1       4.685  -2.806   1.498  0.00  0.00    +0.072 C 
ATOM      3  C   UNL     1       5.910  -2.532   2.247  0.00  0.00    +0.114 C 
ATOM      4  N   UNL     1       6.562  -1.415   2.404  0.00  0.00    -0.362 N 
ATOM      5  C   UNL     1       7.763  -1.402   3.248  0.00  0.00    +0.149 C 
ATOM      6  C   UNL     1       8.487  -2.747   3.172  0.00  0.00    +0.065 C 
ATOM      7  C   UNL     1       7.536  -3.874   3.604  0.00  0.00    +0.202 C 
ATOM      8  N   UNL     1       6.313  -3.739   2.806  0.00  0.00    -0.226 N 
ATOM      9  N   UNL     1       5.373  -4.703   2.458  0.00  0.00    -0.258 N 
ATOM     10  H   UNL     1       5.483  -5.735   2.823  0.00  0.00    +0.170 HD
ATOM     11  H   UNL     1       6.210  -0.499   1.908  0.00  0.00    +0.162 HD
ENDROOT
BRANCH   1  23
ATOM     12  C   UNL     1       2.285  -1.903  -0.318  0.00  0.00    +0.033 C 
ATOM     13  C   UNL     1       2.030  -2.701   0.962  0.00  0.00    +0.104 C 
ATOM     14  C   UNL     1       0.640  -2.406   1.469  0.00  0.00    -0.020 A 
ATOM     15  C   UNL     1       0.404  -1.150   2.013  0.00  0.00    +0.055 A 
ATOM     16  C   UNL     1      -0.851  -0.815   2.488  0.00  0.00    +0.162 A 
ATOM     17  C   UNL     1      -1.886  -1.742   2.408  0.00  0.00    +0.162 A 
ATOM     18  C   UNL     1      -1.646  -2.990   1.864  0.00  0.00    +0.053 A 
ATOM     19  C   UNL     1      -0.380  -3.328   1.397  0.00  0.00    -0.037 A 
ATOM     20  C   UNL     1      -0.191  -4.715   0.843  0.00  0.00    +0.054 C 
ATOM     21  C   UNL     1       1.052  -4.782  -0.044  0.00  0.00    +0.113 C 
ATOM     22  N   UNL     1       2.159  -4.134   0.678  0.00  0.00    -0.289 N 
ATOM     23  C   UNL     1       3.248  -4.829   1.062  0.00  0.00    +0.262 C 
ATOM     24  O   UNL     1       3.277  -6.036   0.924  0.00  0.00    -0.269 OA
BRANCH  17  25
ATOM     25  O   UNL     1      -3.127  -1.422   2.862  0.00  0.00    -0.491 OA
ATOM     26  C   UNL     1      -4.139  -2.424   2.746  0.00  0.00    +0.277 C 
ENDBRANCH  17  25
BRANCH  16  27
ATOM     27  O   UNL     1      -1.073   0.415   3.025  0.00  0.00    -0.491 OA
ATOM     28  C   UNL     1       0.038   1.312   3.073  0.00  0.00    +0.277 C 
ENDBRANCH  16  27
ENDBRANCH   1  23
BRANCH   5  29
ATOM     29  C   UNL     1       8.690  -0.311   2.778  0.00  0.00    +0.127 A 
ATOM     30  C   UNL     1       9.391   0.520   3.569  0.00  0.00    +0.047 A 
ATOM     31  C   UNL     1      10.122   1.379   2.715  0.00  0.00    +0.041 A 
ATOM     32  C   UNL     1       9.823   1.020   1.454  0.00  0.00    +0.195 A 
ATOM     33  O   UNL     1       8.960  -0.007   1.498  0.00  0.00    -0.466 OA
ENDBRANCH   5  29
BRANCH   7  34
ATOM     34  C   UNL     1       8.184  -5.234   3.339  0.00  0.00    +0.410 C 
ATOM     35  F   UNL     1       8.506  -5.340   1.982  0.00  0.00    -0.169 F 
ATOM     36  F   UNL     1       9.349  -5.352   4.104  0.00  0.00    -0.169 F 
ATOM     37  F   UNL     1       7.291  -6.252   3.688  0.00  0.00    -0.169 F 
ENDBRANCH   7  34
TORSDOF 5
