REMARK  Name = ZINC40343030
REMARK  6 active torsions:
REMARK  status: ('A' for Active; 'I' for Inactive)
REMARK    1  A    between atoms: C_3  and  C_8
REMARK    2  A    between atoms: C_11  and  C_27
REMARK    3  A    between atoms: N_18  and  C_19
REMARK    4  A    between atoms: C_19  and  C_20
REMARK    5  A    between atoms: C_20  and  C_21
REMARK    6  A    between atoms: C_21  and  N_22
REMARK                            x       y       z     vdW  Elec       q    Type
REMARK                         _______ _______ _______ _____ _____    ______ ____
ROOT
ATOM      1  C   UNL     1       3.672   2.183  -0.022  0.00  0.00    +0.141 C 
ATOM      2  C   UNL     1       4.282   2.184   1.353  0.00  0.00    +0.035 A 
ATOM      3  C   UNL     1       4.160   2.522   2.662  0.00  0.00    +0.072 A 
ATOM      4  N   UNL     1       5.303   2.106   3.283  0.00  0.00    -0.276 N 
ATOM      5  N   UNL     1       6.086   1.547   2.429  0.00  0.00    -0.168 NA
ATOM      6  H   UNL     1       5.496   2.215   4.227  0.00  0.00    +0.189 HD
ATOM      7  C   UNL     1       5.541   1.553   1.230  0.00  0.00    +0.153 A 
ATOM      8  C   UNL     1       5.717   1.167  -0.182  0.00  0.00    +0.268 C 
ATOM      9  O   UNL     1       6.696   0.601  -0.629  0.00  0.00    -0.268 OA
ATOM     10  N   UNL     1       4.643   1.529  -0.906  0.00  0.00    -0.285 N 
ENDROOT
BRANCH   1  13
ATOM     11  C   UNL     1      -0.017   1.378   0.010  0.00  0.00    +0.001 A 
ATOM     12  C   UNL     1       1.171   2.086   0.002  0.00  0.00    +0.006 A 
ATOM     13  C   UNL     1       2.378   1.411  -0.013  0.00  0.00    -0.021 A 
ATOM     14  C   UNL     1       2.397   0.029  -0.022  0.00  0.00    +0.021 A 
ATOM     15  C   UNL     1       1.210  -0.679  -0.014  0.00  0.00    +0.018 A 
ATOM     16  C   UNL     1       0.002  -0.004   0.002  0.00  0.00    +0.015 A 
ATOM     17 BR   UNL     1       1.236  -2.570  -0.025  0.00  0.00    -0.050 Br
ENDBRANCH   1  13
BRANCH   3  18
ATOM     18  C   UNL     1       3.012   3.209   3.294  0.00  0.00    +0.000 A 
ATOM     19  C   UNL     1       2.431   4.316   2.674  0.00  0.00    +0.011 A 
ATOM     20  C   UNL     1       1.361   4.953   3.268  0.00  0.00    +0.020 A 
ATOM     21  C   UNL     1       0.863   4.496   4.477  0.00  0.00    +0.041 A 
ATOM     22  C   UNL     1       1.436   3.398   5.096  0.00  0.00    +0.020 A 
ATOM     23  C   UNL     1       2.503   2.749   4.509  0.00  0.00    +0.011 A 
ATOM     24 CL   UNL     1      -0.483   5.302   5.218  0.00  0.00    -0.084 Cl
ENDBRANCH   3  18
BRANCH  10  25
ATOM     25  C   UNL     1       4.470   1.305  -2.344  0.00  0.00    +0.111 C 
BRANCH  25  26
ATOM     26  C   UNL     1       5.022   2.505  -3.117  0.00  0.00    +0.040 C 
BRANCH  26  27
ATOM     27  C   UNL     1       4.841   2.271  -4.618  0.00  0.00    +0.124 C 
BRANCH  27  28
ATOM     28  N   UNL     1       5.370   3.420  -5.358  0.00  0.00    -0.338 N 
ATOM     29  C   UNL     1       4.676   4.543  -5.719  0.00  0.00    +0.104 A 
ATOM     30  C   UNL     1       5.539   5.339  -6.379  0.00  0.00    +0.101 A 
ATOM     31  N   UNL     1       6.728   4.718  -6.420  0.00  0.00    -0.352 N 
ATOM     32  C   UNL     1       6.635   3.570  -5.806  0.00  0.00    +0.173 A 
ATOM     33  H   UNL     1       7.530   5.069  -6.837  0.00  0.00    +0.166 HD
ENDBRANCH  27  28
ENDBRANCH  26  27
ENDBRANCH  25  26
ENDBRANCH  10  25
TORSDOF 6
