REMARK  Name = ZINC39335312
REMARK  9 active torsions:
REMARK  status: ('A' for Active; 'I' for Inactive)
REMARK    1  A    between atoms: C_1  and  C_2
REMARK    2  A    between atoms: C_2  and  C_4
REMARK    3  A    between atoms: C_7  and  N_10
REMARK    4  A    between atoms: C_11  and  C_13
REMARK    5  A    between atoms: C_13  and  S_14
REMARK    6  A    between atoms: S_14  and  C_15
REMARK    7  A    between atoms: C_16  and  C_29
REMARK    8  A    between atoms: C_23  and  C_27
REMARK    9  A    between atoms: C_24  and  N_26
REMARK                            x       y       z     vdW  Elec       q    Type
REMARK                         _______ _______ _______ _____ _____    ______ ____
ROOT
ATOM      1  C   UNL     1      -7.356  -7.509  -0.419  0.00  0.00    +0.081 C 
ATOM      2  C   UNL     1      -7.462  -8.860  -0.522  0.00  0.00    +0.068 C 
ATOM      3  C   UNL     1      -8.799  -9.541  -0.612  0.00  0.00    +0.045 C 
ATOM      4  C   UNL     1      -8.740 -10.631  -1.688  0.00  0.00    +0.018 C 
ATOM      5  C   UNL     1     -10.098 -11.328  -1.780  0.00  0.00    +0.001 C 
ATOM      6  C   UNL     1     -10.437 -11.967  -0.432  0.00  0.00    +0.000 C 
ATOM      7  C   UNL     1     -10.489 -10.884   0.647  0.00  0.00    +0.001 C 
ATOM      8  C   UNL     1      -9.130 -10.187   0.737  0.00  0.00    +0.018 C 
ATOM      9  C   UNL     1      -9.875  -8.553  -0.967  0.00  0.00    +0.076 C 
ATOM     10  C   UNL     1      -9.682  -7.215  -0.848  0.00  0.00    +0.100 C 
ATOM     11  N   UNL     1      -8.480  -6.715  -0.398  0.00  0.00    -0.296 N 
ATOM     12  H   UNL     1      -8.425  -5.804  -0.069  0.00  0.00    +0.154 HD
ENDROOT
BRANCH  10  13
ATOM     13  N   UNL     1     -10.698  -6.350  -1.175  0.00  0.00    -0.346 N 
ATOM     14  H   UNL     1     -11.548  -6.697  -1.489  0.00  0.00    +0.143 HD
ATOM     15  H   UNL     1     -10.566  -5.393  -1.092  0.00  0.00    +0.143 HD
ENDBRANCH  10  13
BRANCH   9  16
ATOM     16  C   UNL     1     -11.137  -9.036  -1.442  0.00  0.00    +0.099 C 
ATOM     17  N   UNL     1     -12.137  -9.419  -1.820  0.00  0.00    -0.191 NA
ENDBRANCH   9  16
BRANCH   2  18
ATOM     18  C   UNL     1      -6.270  -9.653  -0.546  0.00  0.00    +0.098 C 
ATOM     19  N   UNL     1      -5.325 -10.283  -0.565  0.00  0.00    -0.191 NA
ENDBRANCH   2  18
BRANCH   1  20
ATOM     20  S   UNL     1      -5.763  -6.766  -0.304  0.00  0.00    -0.100 S 
BRANCH  20  21
ATOM     21  C   UNL     1      -6.114  -4.991  -0.178  0.00  0.00    +0.171 C 
BRANCH  21  23
ATOM     22  N   UNL     1      -4.834  -2.885   0.031  0.00  0.00    -0.285 N 
ATOM     23  C   UNL     1      -4.819  -4.228  -0.073  0.00  0.00    +0.227 C 
ATOM     24  O   UNL     1      -3.762  -4.824  -0.081  0.00  0.00    -0.275 OA
ATOM     25  H   UNL     1      -5.678  -2.414   0.115  0.00  0.00    +0.155 HD
BRANCH  22  29
ATOM     26  C   UNL     1      -1.260  -0.754  -0.007  0.00  0.00    +0.017 A 
ATOM     27  C   UNL     1      -1.388  -1.926  -0.763  0.00  0.00    +0.013 A 
ATOM     28  C   UNL     1      -2.567  -2.625  -0.748  0.00  0.00    +0.024 A 
ATOM     29  C   UNL     1      -3.637  -2.171   0.018  0.00  0.00    +0.033 A 
ATOM     30  C   UNL     1      -3.515  -1.006   0.771  0.00  0.00    +0.024 A 
ATOM     31  C   UNL     1      -2.338  -0.304   0.766  0.00  0.00    +0.013 A 
BRANCH  26  33
ATOM     32  C   UNL     1       1.159  -0.489  -0.854  0.00  0.00    +0.091 C 
ATOM     33  C   UNL     1       0.001  -0.003  -0.021  0.00  0.00    +0.160 C 
ATOM     34  O   UNL     1       0.111   1.010   0.639  0.00  0.00    -0.292 OA
ENDBRANCH  26  33
ENDBRANCH  22  29
ENDBRANCH  21  23
ENDBRANCH  20  21
ENDBRANCH   1  20
TORSDOF 8
