REMARK  Name = ZINC58882308
REMARK  10 active torsions:
REMARK  status: ('A' for Active; 'I' for Inactive)
REMARK    1  A    between atoms: C_1  and  C_2
REMARK    2  A    between atoms: C_2  and  N_3
REMARK    3  A    between atoms: N_3  and  C_4
REMARK    4  A    between atoms: N_3  and  C_6
REMARK    5  A    between atoms: C_4  and  C_5
REMARK    6  A    between atoms: C_6  and  C_7
REMARK    7  A    between atoms: C_7  and  C_8
REMARK    8  A    between atoms: C_8  and  N_9
REMARK    9  A    between atoms: C_10  and  C_12
REMARK   10  A    between atoms: C_18  and  C_20
REMARK                            x       y       z     vdW  Elec       q    Type
REMARK                         _______ _______ _______ _____ _____    ______ ____
ROOT
ATOM      1  C   UNL     1      -4.529  -6.546  -1.403  0.00  0.00    +0.078 C 
ATOM      2  C   UNL     1      -5.466  -6.113  -0.273  0.00  0.00    +0.032 C 
ATOM      3  C   UNL     1      -6.915  -6.404  -0.677  0.00  0.00    +0.108 C 
ATOM      4  N   UNL     1      -7.028  -7.822  -1.045  0.00  0.00    -0.301 N 
ATOM      5  C   UNL     1      -6.112  -8.364  -2.058  0.00  0.00    +0.108 C 
ATOM      6  C   UNL     1      -4.672  -8.051  -1.638  0.00  0.00    +0.032 C 
ATOM      7  C   UNL     1      -7.954  -8.610  -0.464  0.00  0.00    +0.219 C 
ATOM      8  O   UNL     1      -8.770  -8.130   0.294  0.00  0.00    -0.275 OA
ENDROOT
BRANCH   7   9
ATOM      9  C   UNL     1      -7.976 -10.088  -0.756  0.00  0.00    +0.078 C 
ATOM     10  C   UNL     1      -8.372 -10.313  -2.217  0.00  0.00    +0.032 C 
ATOM     11  C   UNL     1      -8.359 -11.815  -2.521  0.00  0.00    +0.110 C 
ATOM     12  N   UNL     1      -9.222 -12.501  -1.549  0.00  0.00    -0.286 N 
ATOM     13  C   UNL     1      -8.985 -12.281  -0.115  0.00  0.00    +0.110 C 
ATOM     14  C   UNL     1      -8.990 -10.775   0.161  0.00  0.00    +0.032 C 
ATOM     15  C   UNL     1     -10.212 -13.315  -1.964  0.00  0.00    +0.300 C 
ATOM     16  O   UNL     1     -10.341 -13.560  -3.148  0.00  0.00    -0.253 OA
ATOM     17  N   UNL     1     -11.059 -13.858  -1.067  0.00  0.00    -0.313 N 
ATOM     18  H   UNL     1     -11.003 -13.605  -0.132  0.00  0.00    +0.146 HD
ATOM     19  H   UNL     1     -11.725 -14.501  -1.357  0.00  0.00    +0.146 HD
ENDBRANCH   7   9
BRANCH   1  21
ATOM     20  N   UNL     1      -2.743  -4.958  -0.767  0.00  0.00    -0.315 N 
ATOM     21  C   UNL     1      -3.105  -6.230  -1.023  0.00  0.00    +0.216 C 
ATOM     22  O   UNL     1      -2.286  -7.121  -0.948  0.00  0.00    -0.276 OA
ATOM     23  H   UNL     1      -3.398  -4.245  -0.827  0.00  0.00    +0.149 HD
BRANCH  20  24
ATOM     24  C   UNL     1      -1.358  -4.651  -0.398  0.00  0.00    +0.102 C 
BRANCH  24  25
ATOM     25  C   UNL     1      -1.215  -3.146  -0.162  0.00  0.00    +0.000 C 
BRANCH  25  26
ATOM     26  C   UNL     1       0.230  -2.825   0.223  0.00  0.00    -0.077 C 
BRANCH  26  27
ATOM     27  N   UNL     1       0.368  -1.380   0.449  0.00  0.00    +0.379 N 
ATOM     28  H   UNL     1       0.049  -0.880  -0.367  0.00  0.00    -0.082 HD
BRANCH  27  30
ATOM     29  C   UNL     1      -0.392   0.533   1.775  0.00  0.00    -0.017 C 
ATOM     30  C   UNL     1      -0.440  -0.987   1.611  0.00  0.00    -0.082 C 
ENDBRANCH  27  30
BRANCH  27  31
ATOM     31  C   UNL     1       1.778  -1.056   0.702  0.00  0.00    -0.082 C 
ATOM     32  C   UNL     1       2.603  -1.353  -0.553  0.00  0.00    -0.017 C 
ENDBRANCH  27  31
ENDBRANCH  26  27
ENDBRANCH  25  26
ENDBRANCH  24  25
ENDBRANCH  20  24
ENDBRANCH   1  21
TORSDOF 8
