REMARK  Name = ZINC23593207
REMARK  7 active torsions:
REMARK  status: ('A' for Active; 'I' for Inactive)
REMARK    1  A    between atoms: C_10  and  N_12
REMARK    2  A    between atoms: C_13  and  C_15
REMARK    3  A    between atoms: C_15  and  O_16
REMARK    4  A    between atoms: O_16  and  C_17
REMARK    5  A    between atoms: C_17  and  C_19
REMARK    6  A    between atoms: C_21  and  S_26
REMARK    7  A    between atoms: S_26  and  N_29
REMARK                            x       y       z     vdW  Elec       q    Type
REMARK                         _______ _______ _______ _____ _____    ______ ____
ROOT
ATOM      1  O   UNL     1      -1.071   8.481  -0.677  0.00  0.00    -0.452 OA
ENDROOT
BRANCH   1   2
ATOM      2  C   UNL     1      -0.888   9.614  -1.383  0.00  0.00    +0.341 C 
ATOM      3  O   UNL     1      -1.261   9.678  -2.537  0.00  0.00    -0.245 OA
BRANCH   2   4
ATOM      4  C   UNL     1      -0.236  10.779  -0.752  0.00  0.00    +0.075 A 
ATOM      5  C   UNL     1       0.188  10.711   0.577  0.00  0.00    +0.044 A 
ATOM      6  C   UNL     1       0.802  11.801   1.158  0.00  0.00    +0.106 A 
ATOM      7  C   UNL     1       0.989  12.964   0.431  0.00  0.00    +0.029 A 
ATOM      8  C   UNL     1       0.567  13.041  -0.883  0.00  0.00    +0.018 A 
ATOM      9  C   UNL     1      -0.044  11.956  -1.480  0.00  0.00    +0.032 A 
ATOM     10 BR   UNL     1      -0.621  12.063  -3.278  0.00  0.00    -0.049 Br
BRANCH   6  11
ATOM     11  S   UNL     1       1.344  11.714   2.832  0.00  0.00    +0.056 S 
ATOM     12  O   UNL     1       1.546  10.338   3.123  0.00  0.00    -0.153 OA
ATOM     13  O   UNL     1       2.374  12.683   2.976  0.00  0.00    -0.153 OA
BRANCH  11  14
ATOM     14  N   UNL     1       0.085  12.219   3.781  0.00  0.00    -0.204 NA
ATOM     15  H   UNL     1       0.384  12.180   4.839  0.00  0.00    +0.144 HD
ATOM     16  H   UNL     1      -0.782  11.561   3.621  0.00  0.00    +0.144 HD
ENDBRANCH  11  14
ENDBRANCH   6  11
ENDBRANCH   2   4
ENDBRANCH   1   2
BRANCH   1  17
ATOM     17  C   UNL     1      -1.720   7.377  -1.361  0.00  0.00    +0.328 C 
BRANCH  17  19
ATOM     18  N   UNL     1      -2.411   5.059  -0.843  0.00  0.00    -0.306 N 
ATOM     19  C   UNL     1      -1.838   6.204  -0.422  0.00  0.00    +0.251 C 
ATOM     20  O   UNL     1      -1.416   6.290   0.712  0.00  0.00    -0.272 OA
ATOM     21  H   UNL     1      -2.793   4.980  -1.871  0.00  0.00    +0.149 HD
BRANCH  18  31
ATOM     22  C   UNL     1       1.176   1.776   0.000  0.00  0.00    +0.000 A 
ATOM     23  C   UNL     1       1.158   3.159   0.007  0.00  0.00    +0.000 A 
ATOM     24  C   UNL     1      -0.048   3.828   0.024  0.00  0.00    +0.006 A 
ATOM     25  C   UNL     1      -1.246   3.125   0.036  0.00  0.00    -0.024 A 
ATOM     26  C   UNL     1      -1.228   1.748   0.017  0.00  0.00    -0.042 A 
ATOM     27  C   UNL     1      -0.013   1.076   0.008  0.00  0.00    +0.004 A 
ATOM     28  C   UNL     1      -2.487   0.921   0.006  0.00  0.00    +0.035 C 
ATOM     29  C   UNL     1      -3.683   1.759   0.454  0.00  0.00    +0.007 C 
ATOM     30  C   UNL     1      -3.706   3.050  -0.372  0.00  0.00    +0.027 C 
ATOM     31  C   UNL     1      -2.525   3.919   0.070  0.00  0.00    +0.104 C 
ENDBRANCH  18  31
ENDBRANCH  17  19
ENDBRANCH   1  17
TORSDOF 7
