REMARK  Name = ZINC45287234
REMARK  6 active torsions:
REMARK  status: ('A' for Active; 'I' for Inactive)
REMARK    1  A    between atoms: C_4  and  N_20
REMARK    2  A    between atoms: C_5  and  C_7
REMARK    3  A    between atoms: N_9  and  C_10
REMARK    4  A    between atoms: C_10  and  C_11
REMARK    5  A    between atoms: C_21  and  C_23
REMARK    6  A    between atoms: C_24  and  C_25
REMARK                            x       y       z     vdW  Elec       q    Type
REMARK                         _______ _______ _______ _____ _____    ______ ____
ROOT
ATOM      1  C   UNL     1      -0.236   1.327  -0.096  0.00  0.00    +0.001 A 
ATOM      2  C   UNL     1       0.921   2.088  -0.133  0.00  0.00    +0.002 A 
ATOM      3  C   UNL     1       2.159   1.478  -0.117  0.00  0.00    +0.024 A 
ATOM      4  C   UNL     1       2.252   0.093  -0.063  0.00  0.00    +0.046 A 
ATOM      5  C   UNL     1       1.083  -0.680  -0.025  0.00  0.00    +0.058 A 
ATOM      6  C   UNL     1      -0.163  -0.048  -0.042  0.00  0.00    +0.015 A 
ENDROOT
BRANCH   5   7
ATOM      7  C   UNL     1       1.168  -2.151   0.031  0.00  0.00    +0.246 C 
ATOM      8  O   UNL     1       2.250  -2.694   0.142  0.00  0.00    -0.270 OA
ATOM      9  N   UNL     1       0.045  -2.895  -0.040  0.00  0.00    -0.307 N 
ATOM     10  H   UNL     1      -0.818  -2.462  -0.128  0.00  0.00    +0.149 HD
BRANCH   9  11
ATOM     11  C   UNL     1       0.130  -4.356   0.016  0.00  0.00    +0.140 C 
BRANCH  11  12
ATOM     12  C   UNL     1      -1.254  -4.943  -0.083  0.00  0.00    -0.027 A 
ATOM     13  C   UNL     1      -1.993  -5.167   1.065  0.00  0.00    +0.009 A 
ATOM     14  C   UNL     1      -3.263  -5.705   0.979  0.00  0.00    +0.050 A 
ATOM     15  C   UNL     1      -3.800  -6.022  -0.258  0.00  0.00    +0.166 A 
ATOM     16  C   UNL     1      -3.056  -5.797  -1.414  0.00  0.00    +0.167 A 
ATOM     17  C   UNL     1      -1.786  -5.252  -1.321  0.00  0.00    +0.054 A 
ATOM     18  O   UNL     1      -3.797  -6.188  -2.492  0.00  0.00    -0.453 OA
ATOM     19  C   UNL     1      -4.835  -7.031  -1.960  0.00  0.00    +0.466 C 
ATOM     20  O   UNL     1      -5.006  -6.554  -0.612  0.00  0.00    -0.453 OA
ENDBRANCH  11  12
ENDBRANCH   9  11
ENDBRANCH   5   7
BRANCH   4  21
ATOM     21  N   UNL     1       3.499  -0.523  -0.048  0.00  0.00    -0.281 N 
ATOM     22  C   UNL     1       4.575   0.143   0.417  0.00  0.00    +0.241 C 
ATOM     23  O   UNL     1       4.440   1.245   0.916  0.00  0.00    -0.270 OA
ATOM     24  H   UNL     1       3.595  -1.433  -0.371  0.00  0.00    +0.155 HD
BRANCH  22  25
ATOM     25  C   UNL     1       5.861  -0.438   0.324  0.00  0.00    +0.071 C 
ATOM     26  C   UNL     1       6.944   0.233   0.791  0.00  0.00    +0.051 C 
BRANCH  26  27
ATOM     27  C   UNL     1       8.231  -0.348   0.698  0.00  0.00    +0.129 A 
ATOM     28  C   UNL     1       9.412   0.216   1.135  0.00  0.00    +0.050 A 
ATOM     29  C   UNL     1      10.428  -0.705   0.843  0.00  0.00    +0.057 A 
ATOM     30  C   UNL     1       9.842  -1.772   0.251  0.00  0.00    +0.171 A 
ATOM     31  O   UNL     1       8.521  -1.556   0.171  0.00  0.00    -0.449 OA
ATOM     32 BR   UNL     1      10.741  -3.320  -0.358  0.00  0.00    -0.008 Br
ENDBRANCH  26  27
ENDBRANCH  22  25
ENDBRANCH   4  21
TORSDOF 6
