REMARK  Name = ZINC21248355
REMARK  10 active torsions:
REMARK  status: ('A' for Active; 'I' for Inactive)
REMARK    1  A    between atoms: C_1  and  C_2
REMARK    2  A    between atoms: C_5  and  C_35
REMARK    3  A    between atoms: C_6  and  C_8
REMARK    4  A    between atoms: C_8  and  C_10
REMARK    5  A    between atoms: C_15  and  C_16
REMARK    6  A    between atoms: C_16  and  O_18
REMARK    7  A    between atoms: O_18  and  C_19
REMARK    8  A    between atoms: C_19  and  C_20
REMARK    9  A    between atoms: C_22  and  O_23
REMARK   10  A    between atoms: C_32  and  C_34
REMARK                            x       y       z     vdW  Elec       q    Type
REMARK                         _______ _______ _______ _____ _____    ______ ____
ROOT
ATOM      1  O   UNL     1       0.516  -7.447   0.294  0.00  0.00    -0.456 OA
ENDROOT
BRANCH   1   2
ATOM      2  C   UNL     1       1.468  -8.397   0.369  0.00  0.00    +0.340 C 
ATOM      3  O   UNL     1       2.639  -8.080   0.417  0.00  0.00    -0.245 OA
BRANCH   2   9
ATOM      4  C   UNL     1       2.066 -10.816   0.601  0.00  0.00    +0.036 A 
ATOM      5  C   UNL     1       1.692 -12.158   0.621  0.00  0.00    +0.012 A 
ATOM      6  C   UNL     1       0.369 -12.510   0.435  0.00  0.00    +0.001 A 
ATOM      7  C   UNL     1      -0.593 -11.536   0.229  0.00  0.00    +0.001 A 
ATOM      8  C   UNL     1      -0.242 -10.199   0.212  0.00  0.00    +0.016 A 
ATOM      9  C   UNL     1       1.087  -9.825   0.392  0.00  0.00    +0.070 A 
BRANCH   4  10
ATOM     10  C   UNL     1       3.480 -10.434   0.800  0.00  0.00    +0.194 C 
ATOM     11  O   UNL     1       4.277 -10.559  -0.109  0.00  0.00    -0.287 OA
BRANCH  10  17
ATOM     12  C   UNL     1       2.487  -9.243   5.543  0.00  0.00    +0.044 C 
ATOM     13  C   UNL     1       3.452  -9.327   4.388  0.00  0.00    -0.050 A 
ATOM     14  C   UNL     1       4.759  -8.901   4.548  0.00  0.00    +0.003 A 
ATOM     15  C   UNL     1       5.652  -8.974   3.493  0.00  0.00    +0.004 A 
ATOM     16  C   UNL     1       5.243  -9.471   2.273  0.00  0.00    -0.040 A 
ATOM     17  C   UNL     1       3.925  -9.902   2.104  0.00  0.00    +0.025 A 
ATOM     18  C   UNL     1       3.028  -9.821   3.172  0.00  0.00    +0.015 A 
ATOM     19  C   UNL     1       6.216  -9.549   1.125  0.00  0.00    +0.044 C 
ENDBRANCH  10  17
ENDBRANCH   4  10
ENDBRANCH   2   9
ENDBRANCH   1   2
BRANCH   1  20
ATOM     20  C   UNL     1       0.963  -6.066   0.276  0.00  0.00    +0.269 C 
BRANCH  20  21
ATOM     21  C   UNL     1      -0.233  -5.152   0.190  0.00  0.00    +0.007 A 
ATOM     22  C   UNL     1      -1.494  -5.655   0.143  0.00  0.00    +0.095 A 
ATOM     23  C   UNL     1      -2.596  -4.780   0.064  0.00  0.00    +0.285 A 
ATOM     24  O   UNL     1      -2.437  -3.447   0.034  0.00  0.00    -0.425 OA
ATOM     25  C   UNL     1      -1.212  -2.882   0.077  0.00  0.00    +0.141 A 
ATOM     26  C   UNL     1      -0.067  -3.698   0.156  0.00  0.00    +0.024 A 
ATOM     27  C   UNL     1       1.206  -3.117   0.202  0.00  0.00    +0.014 A 
ATOM     28  C   UNL     1       1.333  -1.759   0.164  0.00  0.00    +0.024 A 
ATOM     29  C   UNL     1       0.203  -0.945   0.092  0.00  0.00    +0.037 A 
ATOM     30  C   UNL     1      -1.065  -1.504   0.045  0.00  0.00    +0.070 A 
ATOM     31  N   UNL     1       0.349   0.442   0.059  0.00  0.00    -0.286 N 
ATOM     32  C   UNL     1      -0.554   1.230   0.677  0.00  0.00    +0.214 C 
ATOM     33  O   UNL     1      -1.534   0.738   1.194  0.00  0.00    -0.276 OA
ATOM     34  C   UNL     1      -0.345   2.721   0.724  0.00  0.00    +0.109 C 
ATOM     35  H   UNL     1       1.202   0.893  -0.469  0.00  0.00    +0.155 HD
BRANCH  23  36
ATOM     36  O   UNL     1      -3.721  -5.245   0.022  0.00  0.00    -0.480 OA
ATOM     37  H   UNL     1      -4.591  -4.574  -0.039  0.00  0.00    +0.295 HD
ENDBRANCH  23  36
ENDBRANCH  20  21
ENDBRANCH   1  20
TORSDOF 7
