REMARK  Name = ZINC65833168
REMARK  7 active torsions:
REMARK  status: ('A' for Active; 'I' for Inactive)
REMARK    1  A    between atoms: C_1  and  O_2
REMARK    2  A    between atoms: O_2  and  C_3
REMARK    3  A    between atoms: C_5  and  N_13
REMARK    4  A    between atoms: C_8  and  S_9
REMARK    5  A    between atoms: S_9  and  N_12
REMARK    6  A    between atoms: N_13  and  S_14
REMARK    7  A    between atoms: S_14  and  C_17
REMARK                            x       y       z     vdW  Elec       q    Type
REMARK                         _______ _______ _______ _____ _____    ______ ____
ROOT
ATOM      1  C   UNL     1       0.510  -0.664  -1.132  0.00  0.00    +0.148 A 
ATOM      2  C   UNL     1       1.091   0.123  -2.114  0.00  0.00    +0.072 A 
ATOM      3  C   UNL     1       1.774  -0.474  -3.164  0.00  0.00    +0.052 A 
ATOM      4  C   UNL     1       1.875  -1.859  -3.228  0.00  0.00    +0.026 A 
ATOM      5  C   UNL     1       1.295  -2.639  -2.247  0.00  0.00    +0.034 A 
ATOM      6  C   UNL     1       0.619  -2.046  -1.198  0.00  0.00    +0.147 A 
ENDROOT
BRANCH   6   7
ATOM      7  S   UNL     1      -0.113  -3.047   0.055  0.00  0.00    +0.059 S 
ATOM      8  O   UNL     1      -1.447  -2.583   0.217  0.00  0.00    -0.153 OA
ATOM      9  O   UNL     1       0.190  -4.396  -0.274  0.00  0.00    -0.153 OA
BRANCH   7  10
ATOM     10  N   UNL     1       0.679  -2.716   1.471  0.00  0.00    -0.203 NA
ATOM     11  H   UNL     1       0.211  -2.790   2.317  0.00  0.00    +0.144 HD
ATOM     12  H   UNL     1       1.611  -2.447   1.454  0.00  0.00    +0.144 HD
ENDBRANCH   7  10
ENDBRANCH   6   7
BRANCH   1  14
ATOM     13  C   UNL     1      -0.232   1.344  -0.099  0.00  0.00    +0.277 C 
ATOM     14  O   UNL     1      -0.160  -0.083  -0.103  0.00  0.00    -0.493 OA
ENDBRANCH   1  14
BRANCH   3  15
ATOM     15  N   UNL     1       2.360   0.316  -4.156  0.00  0.00    -0.216 N 
ATOM     16  H   UNL     1       1.860   1.046  -4.553  0.00  0.00    +0.174 HD
BRANCH  15  17
ATOM     17  S   UNL     1       3.908   0.005  -4.655  0.00  0.00    +0.072 S 
ATOM     18  O   UNL     1       3.957  -1.374  -4.993  0.00  0.00    -0.150 OA
ATOM     19  O   UNL     1       4.250   1.028  -5.580  0.00  0.00    -0.150 OA
BRANCH  17  20
ATOM     20  C   UNL     1       4.959   0.219  -3.257  0.00  0.00    +0.109 A 
ATOM     21  C   UNL     1       5.423   1.478  -2.924  0.00  0.00    +0.032 A 
ATOM     22  C   UNL     1       6.242   1.652  -1.829  0.00  0.00    +0.048 A 
ATOM     23  C   UNL     1       6.611   0.559  -1.048  0.00  0.00    +0.124 A 
ATOM     24  C   UNL     1       6.144  -0.702  -1.397  0.00  0.00    -0.001 A 
ATOM     25  C   UNL     1       5.318  -0.872  -2.486  0.00  0.00    +0.036 A 
ATOM     26  C   UNL     1       6.722  -1.682  -0.394  0.00  0.00    +0.080 C 
ATOM     27  C   UNL     1       7.845  -0.845   0.263  0.00  0.00    +0.234 C 
ATOM     28  O   UNL     1       7.390   0.505   0.067  0.00  0.00    -0.491 OA
ENDBRANCH  17  20
ENDBRANCH  15  17
ENDBRANCH   3  15
TORSDOF 6
