REMARK  Name = ZINC39688550
REMARK  9 active torsions:
REMARK  status: ('A' for Active; 'I' for Inactive)
REMARK    1  A    between atoms: C_1  and  C_2
REMARK    2  A    between atoms: C_2  and  C_4
REMARK    3  A    between atoms: C_2  and  N_12
REMARK    4  A    between atoms: C_4  and  C_5
REMARK    5  A    between atoms: C_13  and  C_15
REMARK    6  A    between atoms: C_26  and  C_28
REMARK    7  A    between atoms: C_28  and  C_30
REMARK    8  A    between atoms: C_28  and  O_31
REMARK    9  A    between atoms: O_31  and  C_32
REMARK                            x       y       z     vdW  Elec       q    Type
REMARK                         _______ _______ _______ _____ _____    ______ ____
ROOT
ATOM      1  C   UNL     1       2.697  -1.090  -2.449  0.00  0.00    +0.100 C 
ATOM      2  C   UNL     1       2.381  -2.578  -2.722  0.00  0.00    +0.121 C 
ATOM      3  N   UNL     1       3.653  -3.143  -3.230  0.00  0.00    -0.297 N 
ATOM      4  C   UNL     1       4.700  -2.498  -2.402  0.00  0.00    +0.115 C 
ATOM      5  C   UNL     1       4.219  -1.042  -2.238  0.00  0.00    -0.004 C 
ATOM      6  C   UNL     1       4.543  -0.534  -0.836  0.00  0.00    -0.010 C 
ATOM      7  C   UNL     1       6.062  -0.440  -0.671  0.00  0.00    -0.082 C 
ATOM      8  N   UNL     1       6.611   0.473  -1.682  0.00  0.00    +0.379 N 
ATOM      9  C   UNL     1       6.376  -0.070  -3.025  0.00  0.00    -0.082 C 
ATOM     10  C   UNL     1       4.870  -0.149  -3.290  0.00  0.00    -0.010 C 
ATOM     11  C   UNL     1       3.821  -4.042  -4.220  0.00  0.00    +0.256 C 
ATOM     12  O   UNL     1       2.868  -4.409  -4.874  0.00  0.00    -0.272 OA
ATOM     13  H   UNL     1       6.161   1.372  -1.601  0.00  0.00    -0.086 HD
ATOM     14  H   UNL     1       7.603   0.581  -1.532  0.00  0.00    -0.086 HD
ENDROOT
BRANCH   1  16
ATOM     15  N   UNL     1       1.757   0.694  -1.016  0.00  0.00    -0.312 N 
ATOM     16  C   UNL     1       1.980  -0.621  -1.209  0.00  0.00    +0.218 C 
ATOM     17  O   UNL     1       1.605  -1.427  -0.384  0.00  0.00    -0.275 OA
ATOM     18  H   UNL     1       2.057   1.339  -1.676  0.00  0.00    +0.149 HD
BRANCH  15  20
ATOM     19  C   UNL     1       2.066   1.303   1.332  0.00  0.00    +0.028 C 
ATOM     20  C   UNL     1       1.060   1.150   0.189  0.00  0.00    +0.074 C 
BRANCH  20  21
ATOM     21  C   UNL     1       0.393   2.498  -0.087  0.00  0.00    +0.057 C 
BRANCH  21  22
ATOM     22  C   UNL     1      -0.684   2.322  -1.127  0.00  0.00    -0.045 A 
ATOM     23  C   UNL     1      -0.377   2.455  -2.468  0.00  0.00    +0.006 A 
ATOM     24  C   UNL     1      -1.363   2.293  -3.423  0.00  0.00    +0.038 A 
ATOM     25  C   UNL     1      -2.659   1.999  -3.035  0.00  0.00    +0.123 A 
ATOM     26  C   UNL     1      -2.966   1.866  -1.691  0.00  0.00    +0.038 A 
ATOM     27  C   UNL     1      -1.976   2.023  -0.739  0.00  0.00    +0.006 A 
ATOM     28  F   UNL     1      -3.624   1.841  -3.967  0.00  0.00    -0.205 F 
ENDBRANCH  21  22
ENDBRANCH  20  21
ENDBRANCH  15  20
ENDBRANCH   1  16
BRANCH  11  29
ATOM     29  C   UNL     1       5.193  -4.590  -4.516  0.00  0.00    +0.256 C 
ATOM     30  C   UNL     1       5.647  -5.480  -3.357  0.00  0.00    +0.062 C 
BRANCH  29  31
ATOM     31  O   UNL     1       5.150  -5.360  -5.719  0.00  0.00    -0.480 OA
BRANCH  31  32
ATOM     32  C   UNL     1       6.312  -5.489  -6.411  0.00  0.00    +0.122 A 
ATOM     33  C   UNL     1       6.318  -6.115  -7.649  0.00  0.00    +0.045 A 
ATOM     34  C   UNL     1       7.501  -6.245  -8.351  0.00  0.00    +0.004 A 
ATOM     35  C   UNL     1       8.678  -5.752  -7.820  0.00  0.00    +0.000 A 
ATOM     36  C   UNL     1       8.675  -5.128  -6.586  0.00  0.00    +0.004 A 
ATOM     37  C   UNL     1       7.494  -4.990  -5.883  0.00  0.00    +0.045 A 
ENDBRANCH  31  32
ENDBRANCH  29  31
ENDBRANCH  11  29
TORSDOF 7
