REMARK  Name = ZINC04741536
REMARK  5 active torsions:
REMARK  status: ('A' for Active; 'I' for Inactive)
REMARK    1  A    between atoms: C_1  and  C_2
REMARK    2  A    between atoms: C_2  and  C_4
REMARK    3  A    between atoms: C_2  and  S_16
REMARK    4  A    between atoms: S_16  and  C_17
REMARK    5  A    between atoms: C_21  and  N_23
REMARK                            x       y       z     vdW  Elec       q    Type
REMARK                         _______ _______ _______ _____ _____    ______ ____
ROOT
ATOM      1  C   UNL     1       2.362   4.266  -1.305  0.00  0.00    +0.027 C 
ATOM      2  C   UNL     1       3.129   4.008  -0.006  0.00  0.00    +0.117 C 
ENDROOT
BRANCH   2   3
ATOM      3  C   UNL     1       4.262   4.995   0.112  0.00  0.00    +0.124 A 
ATOM      4  N   UNL     1       5.493   4.618  -0.321  0.00  0.00    -0.309 N 
ATOM      5  H   UNL     1       5.624   3.704  -0.705  0.00  0.00    +0.170 HD
ATOM      6  C   UNL     1       6.543   5.467  -0.237  0.00  0.00    +0.259 A 
ATOM      7  O   UNL     1       7.652   5.142  -0.620  0.00  0.00    -0.267 OA
ATOM      8  C   UNL     1       6.293   6.798   0.337  0.00  0.00    +0.065 A 
ATOM      9  C   UNL     1       7.306   7.746   0.467  0.00  0.00    +0.015 A 
ATOM     10  C   UNL     1       7.015   8.978   1.011  0.00  0.00    +0.001 A 
ATOM     11  C   UNL     1       5.725   9.280   1.428  0.00  0.00    +0.002 A 
ATOM     12  C   UNL     1       4.711   8.358   1.307  0.00  0.00    +0.028 A 
ATOM     13  C   UNL     1       4.980   7.102   0.759  0.00  0.00    +0.078 A 
ATOM     14  N   UNL     1       4.010   6.164   0.618  0.00  0.00    -0.233 NA
ENDBRANCH   2   3
BRANCH   2  15
ATOM     15  S   UNL     1       3.794   2.325  -0.022  0.00  0.00    -0.075 S 
BRANCH  15  16
ATOM     16  C   UNL     1       2.292   1.403  -0.012  0.00  0.00    +0.192 A 
ATOM     17  N   UNL     1       1.137   2.051   0.002  0.00  0.00    -0.207 NA
ATOM     18  C   UNL     1      -0.017   1.388   0.010  0.00  0.00    +0.122 A 
ATOM     19  C   UNL     1       0.002  -0.004   0.002  0.00  0.00    +0.086 A 
ATOM     20  C   UNL     1       1.235  -0.650  -0.013  0.00  0.00    +0.122 A 
ATOM     21  N   UNL     1       2.348   0.079  -0.020  0.00  0.00    -0.207 NA
ATOM     22  N   UNL     1      -1.221   2.074   0.019  0.00  0.00    -0.343 N 
ATOM     23  H   UNL     1      -2.058   1.584   0.020  0.00  0.00    +0.144 HD
ATOM     24  H   UNL     1      -1.227   3.043   0.024  0.00  0.00    +0.144 HD
BRANCH  20  25
ATOM     25  N   UNL     1       1.302  -2.035  -0.022  0.00  0.00    -0.343 N 
ATOM     26  H   UNL     1       0.487  -2.560  -0.017  0.00  0.00    +0.144 HD
ATOM     27  H   UNL     1       2.165  -2.478  -0.032  0.00  0.00    +0.144 HD
ENDBRANCH  20  25
ENDBRANCH  15  16
ENDBRANCH   2  15
TORSDOF 4
