REMARK  Name = ZINC48940138
REMARK  4 active torsions:
REMARK  status: ('A' for Active; 'I' for Inactive)
REMARK    1  A    between atoms: C_1  and  C_2
REMARK    2  A    between atoms: C_2  and  C_4
REMARK    3  A    between atoms: C_2  and  N_18
REMARK    4  A    between atoms: C_10  and  C_12
REMARK                            x       y       z     vdW  Elec       q    Type
REMARK                         _______ _______ _______ _____ _____    ______ ____
ROOT
ATOM      1  C   UNL     1      -1.391  -0.566   0.128  0.00  0.00    +0.236 C 
ATOM      2  O   UNL     1      -1.700  -1.205   1.111  0.00  0.00    -0.274 OA
ATOM      3  N   UNL     1      -2.294  -0.354  -0.850  0.00  0.00    -0.297 N 
ATOM      4  C   UNL     1      -2.025   0.309  -2.139  0.00  0.00    +0.108 C 
ATOM      5  C   UNL     1      -3.401   0.850  -2.600  0.00  0.00    +0.021 C 
ATOM      6  C   UNL     1      -4.354  -0.280  -2.130  0.00  0.00    +0.024 C 
ATOM      7  C   UNL     1      -3.708  -0.753  -0.811  0.00  0.00    +0.079 C 
ENDROOT
BRANCH   7   8
ATOM      8  C   UNL     1      -3.817  -2.274  -0.691  0.00  0.00    +0.010 C 
ATOM      9  C   UNL     1      -3.141  -2.930  -1.896  0.00  0.00    +0.005 C 
ATOM     10  C   UNL     1      -3.250  -4.452  -1.776  0.00  0.00    +0.000 C 
ATOM     11  C   UNL     1      -4.726  -4.856  -1.736  0.00  0.00    +0.000 C 
ATOM     12  C   UNL     1      -5.402  -4.199  -0.530  0.00  0.00    +0.000 C 
ATOM     13  C   UNL     1      -5.293  -2.678  -0.650  0.00  0.00    +0.005 C 
ENDBRANCH   7   8
BRANCH   1  15
ATOM     14  C   UNL     1       0.025   1.435   0.508  0.00  0.00    +0.038 C 
ATOM     15  C   UNL     1       0.004  -0.008  -0.000  0.00  0.00    +0.157 C 
BRANCH  15  16
ATOM     16  N   UNL     1       0.929  -0.820   0.794  0.00  0.00    -0.289 N 
ATOM     17  C   UNL     1       2.237  -0.862   0.471  0.00  0.00    +0.298 C 
ATOM     18  O   UNL     1       2.648  -0.226  -0.480  0.00  0.00    -0.253 OA
ATOM     19  N   UNL     1       3.088  -1.608   1.202  0.00  0.00    -0.313 N 
ATOM     20  H   UNL     1       0.601  -1.327   1.553  0.00  0.00    +0.151 HD
ATOM     21  H   UNL     1       2.760  -2.115   1.961  0.00  0.00    +0.146 HD
ATOM     22  H   UNL     1       4.029  -1.638   0.969  0.00  0.00    +0.146 HD
ENDBRANCH  15  16
ENDBRANCH   1  15
TORSDOF 3
