REMARK  Name = ZINC65265694
REMARK  5 active torsions:
REMARK  status: ('A' for Active; 'I' for Inactive)
REMARK    1  A    between atoms: C_4  and  C_7
REMARK    2  A    between atoms: C_7  and  N_8
REMARK    3  A    between atoms: C_24  and  C_26
REMARK    4  A    between atoms: C_26  and  O_27
REMARK    5  A    between atoms: O_27  and  C_28
REMARK                            x       y       z     vdW  Elec       q    Type
REMARK                         _______ _______ _______ _____ _____    ______ ____
ROOT
ATOM      1  N   UNL     1       4.152  -0.952   1.338  0.00  0.00    -0.370 N 
ATOM      2  C   UNL     1       5.264  -1.574   1.560  0.00  0.00    +0.099 C 
ATOM      3  N   UNL     1       6.068  -2.018   0.525  0.00  0.00    -0.286 N 
ATOM      4  C   UNL     1       6.711  -3.252   0.682  0.00  0.00    +0.145 A 
ATOM      5  C   UNL     1       6.740  -3.869   1.934  0.00  0.00    +0.069 A 
ATOM      6  C   UNL     1       7.391  -5.086   2.075  0.00  0.00    +0.028 A 
ATOM      7  C   UNL     1       7.987  -5.649   0.954  0.00  0.00    +0.022 A 
ATOM      8  C   UNL     1       7.914  -4.986  -0.255  0.00  0.00    +0.113 A 
ATOM      9  N   UNL     1       7.290  -3.827  -0.360  0.00  0.00    -0.238 NA
ATOM     10  N   UNL     1       6.112  -3.277   3.038  0.00  0.00    -0.328 N 
ATOM     11  C   UNL     1       5.756  -1.849   2.965  0.00  0.00    +0.102 C 
ATOM     12  C   UNL     1       4.650  -1.534   3.968  0.00  0.00    +0.036 C 
ATOM     13  C   UNL     1       5.139  -1.839   5.387  0.00  0.00    +0.021 C 
ATOM     14  C   UNL     1       6.354  -0.961   5.702  0.00  0.00    +0.108 C 
ATOM     15  N   UNL     1       7.371  -1.168   4.662  0.00  0.00    -0.296 N 
ATOM     16  C   UNL     1       6.986  -0.989   3.255  0.00  0.00    +0.141 C 
ATOM     17  C   UNL     1       8.631  -1.515   4.991  0.00  0.00    +0.253 C 
ATOM     18  O   UNL     1       9.460  -1.683   4.122  0.00  0.00    -0.272 OA
ATOM     19  H   UNL     1       3.610  -0.648   2.082  0.00  0.00    +0.161 HD
ATOM     20  H   UNL     1       5.917  -3.796   3.833  0.00  0.00    +0.147 HD
ATOM     21  H   UNL     1       6.183  -1.492  -0.282  0.00  0.00    +0.155 HD
ENDROOT
BRANCH   1  22
ATOM     22  C   UNL     1       3.711  -0.707  -0.038  0.00  0.00    +0.149 C 
BRANCH  22  26
ATOM     23  C   UNL     1      -0.017   1.378   0.010  0.00  0.00    +0.000 A 
ATOM     24  C   UNL     1       1.171   2.086   0.002  0.00  0.00    +0.000 A 
ATOM     25  C   UNL     1       2.377   1.411  -0.013  0.00  0.00    +0.005 A 
ATOM     26  C   UNL     1       2.396   0.029  -0.020  0.00  0.00    -0.028 A 
ATOM     27  C   UNL     1       1.208  -0.679  -0.012  0.00  0.00    +0.005 A 
ATOM     28  C   UNL     1       0.002  -0.004   0.002  0.00  0.00    +0.000 A 
ENDBRANCH  22  26
ENDBRANCH   1  22
BRANCH  17  29
ATOM     29  C   UNL     1       9.009  -1.695   6.438  0.00  0.00    +0.324 C 
BRANCH  29  30
ATOM     30  O   UNL     1      10.388  -2.059   6.528  0.00  0.00    -0.483 OA
BRANCH  30  31
ATOM     31  C   UNL     1      10.893  -2.260   7.774  0.00  0.00    +0.121 A 
ATOM     32  C   UNL     1      10.077  -2.116   8.886  0.00  0.00    +0.045 A 
ATOM     33  C   UNL     1      10.592  -2.321  10.151  0.00  0.00    +0.004 A 
ATOM     34  C   UNL     1      11.921  -2.671  10.310  0.00  0.00    +0.000 A 
ATOM     35  C   UNL     1      12.736  -2.815   9.203  0.00  0.00    +0.004 A 
ATOM     36  C   UNL     1      12.224  -2.616   7.935  0.00  0.00    +0.045 A 
ENDBRANCH  30  31
ENDBRANCH  29  30
ENDBRANCH  17  29
TORSDOF 5
