REMARK  Name = ZINC39780283
REMARK  15 active torsions:
REMARK  status: ('A' for Active; 'I' for Inactive)
REMARK    1  A    between atoms: C_1  and  C_2
REMARK    2  A    between atoms: C_5  and  C_38
REMARK    3  A    between atoms: C_11  and  N_13
REMARK    4  A    between atoms: C_14  and  C_16
REMARK    5  A    between atoms: C_16  and  S_17
REMARK    6  A    between atoms: S_17  and  C_18
REMARK    7  A    between atoms: N_28  and  C_29
REMARK    8  A    between atoms: C_29  and  C_30
REMARK    9  A    between atoms: C_30  and  N_31
REMARK   10  A    between atoms: N_31  and  C_32
REMARK   11  A    between atoms: N_31  and  C_35
REMARK   12  A    between atoms: C_32  and  C_33
REMARK   13  A    between atoms: C_32  and  C_34
REMARK   14  A    between atoms: C_35  and  C_36
REMARK   15  A    between atoms: C_35  and  C_37
REMARK                            x       y       z     vdW  Elec       q    Type
REMARK                         _______ _______ _______ _____ _____    ______ ____
ROOT
ATOM      1  C   UNL     1       5.153  -2.621   7.099  0.00  0.00    +0.173 A 
ATOM      2  N   UNL     1       6.219  -3.129   6.531  0.00  0.00    -0.223 NA
ATOM      3  C   UNL     1       7.118  -3.849   7.231  0.00  0.00    +0.079 A 
ATOM      4  C   UNL     1       8.256  -4.390   6.625  0.00  0.00    +0.028 A 
ATOM      5  C   UNL     1       9.141  -5.113   7.373  0.00  0.00    +0.002 A 
ATOM      6  C   UNL     1       8.928  -5.321   8.730  0.00  0.00    +0.001 A 
ATOM      7  C   UNL     1       7.825  -4.804   9.351  0.00  0.00    +0.015 A 
ATOM      8  C   UNL     1       6.905  -4.062   8.613  0.00  0.00    +0.065 A 
ATOM      9  C   UNL     1       5.703  -3.483   9.227  0.00  0.00    +0.262 A 
ATOM     10  O   UNL     1       5.465  -3.631  10.412  0.00  0.00    -0.267 OA
ATOM     11  N   UNL     1       4.873  -2.773   8.428  0.00  0.00    -0.289 N 
ENDROOT
BRANCH   1  12
ATOM     12  S   UNL     1       4.032  -1.693   6.106  0.00  0.00    -0.078 S 
BRANCH  12  13
ATOM     13  C   UNL     1       4.771  -1.742   4.449  0.00  0.00    +0.173 C 
BRANCH  13  15
ATOM     14  N   UNL     1       4.253  -0.875   2.191  0.00  0.00    -0.255 N 
ATOM     15  C   UNL     1       3.900  -0.975   3.488  0.00  0.00    +0.230 C 
ATOM     16  O   UNL     1       2.882  -0.448   3.881  0.00  0.00    -0.274 OA
ATOM     17  H   UNL     1       5.068  -1.297   1.877  0.00  0.00    +0.158 HD
BRANCH  14  27
ATOM     18  C   UNL     1       1.668   2.570   0.712  0.00  0.00    +0.057 C 
ATOM     19  C   UNL     1       1.766   1.058   0.502  0.00  0.00    +0.205 C 
ATOM     20  C   UNL     1       2.720   0.748  -0.620  0.00  0.00    +0.032 C 
ATOM     21  C   UNL     1       2.781   1.036  -1.960  0.00  0.00    +0.066 C 
ATOM     22  N   UNL     1       3.796   0.591  -2.686  0.00  0.00    -0.161 NA
ATOM     23  N   UNL     1       4.750  -0.112  -2.194  0.00  0.00    -0.076 NA
ATOM     24  C   UNL     1       4.795  -0.454  -0.899  0.00  0.00    +0.290 C 
ATOM     25  O   UNL     1       5.719  -1.126  -0.464  0.00  0.00    -0.266 OA
ATOM     26  C   UNL     1       3.748  -0.021  -0.043  0.00  0.00    +0.106 C 
ATOM     27  C   UNL     1       3.467  -0.183   1.323  0.00  0.00    +0.200 C 
ATOM     28  O   UNL     1       2.326   0.431   1.665  0.00  0.00    -0.471 OA
ATOM     29  C   UNL     1       1.695   1.857  -2.605  0.00  0.00    +0.068 C 
ENDBRANCH  14  27
ENDBRANCH  13  15
ENDBRANCH  12  13
ENDBRANCH   1  12
BRANCH  11  30
ATOM     30  C   UNL     1       3.662  -2.169   8.989  0.00  0.00    +0.109 C 
BRANCH  30  31
ATOM     31  C   UNL     1       2.503  -3.163   8.892  0.00  0.00    -0.056 C 
BRANCH  31  32
ATOM     32  N   UNL     1       1.328  -2.614   9.581  0.00  0.00    +0.384 N 
ATOM     33  H   UNL     1       1.578  -2.368  10.528  0.00  0.00    -0.081 HD
BRANCH  32  34
ATOM     34  C   UNL     1       0.859  -1.416   8.872  0.00  0.00    -0.074 C 
ATOM     35  C   UNL     1      -0.053  -1.831   7.717  0.00  0.00    -0.014 C 
ATOM     36  C   UNL     1       0.081  -0.522   9.840  0.00  0.00    -0.014 C 
ENDBRANCH  32  34
BRANCH  32  37
ATOM     37  C   UNL     1       0.258  -3.620   9.602  0.00  0.00    -0.074 C 
ATOM     38  C   UNL     1       0.792  -4.919  10.212  0.00  0.00    -0.014 C 
ATOM     39  C   UNL     1      -0.911  -3.105  10.444  0.00  0.00    -0.014 C 
ENDBRANCH  32  37
ENDBRANCH  31  32
ENDBRANCH  30  31
ENDBRANCH  11  30
TORSDOF 9
