REMARK  Name = ZINC66835403
REMARK  7 active torsions:
REMARK  status: ('A' for Active; 'I' for Inactive)
REMARK    1  A    between atoms: C_1  and  O_2
REMARK    2  A    between atoms: O_2  and  C_3
REMARK    3  A    between atoms: C_3  and  C_5
REMARK    4  A    between atoms: N_10  and  C_12
REMARK    5  A    between atoms: C_12  and  C_13
REMARK    6  A    between atoms: N_15  and  C_16
REMARK    7  A    between atoms: C_17  and  C_25
REMARK                            x       y       z     vdW  Elec       q    Type
REMARK                         _______ _______ _______ _____ _____    ______ ____
ROOT
ATOM      1  C   UNL     1      -4.223  -5.990   0.210  0.00  0.00    +0.201 C 
ATOM      2  O   UNL     1      -3.196  -6.636   0.225  0.00  0.00    -0.278 OA
ATOM      3  N   UNL     1      -5.413  -6.614   0.305  0.00  0.00    -0.281 N 
ATOM      4  H   UNL     1      -6.234  -6.097   0.293  0.00  0.00    +0.155 HD
ENDROOT
BRANCH   3   5
ATOM      5  C   UNL     1      -5.465  -7.995   0.418  0.00  0.00    +0.084 A 
ATOM      6  C   UNL     1      -6.589  -8.800   0.518  0.00  0.00    +0.068 A 
ATOM      7  C   UNL     1      -6.372 -10.232   0.627  0.00  0.00    -0.023 A 
ATOM      8  C   UNL     1      -5.072 -10.597   0.616  0.00  0.00    -0.004 A 
ATOM      9  S   UNL     1      -4.181  -9.076   0.457  0.00  0.00    -0.077 S 
ATOM     10  C   UNL     1      -4.526 -11.988   0.713  0.00  0.00    +0.043 C 
ATOM     11  C   UNL     1      -5.649 -12.912   1.207  0.00  0.00    +0.005 C 
ATOM     12  C   UNL     1      -6.912 -12.640   0.385  0.00  0.00    +0.005 C 
ATOM     13  C   UNL     1      -7.482 -11.266   0.745  0.00  0.00    +0.037 C 
BRANCH   6  14
ATOM     14  C   UNL     1      -7.940  -8.230   0.516  0.00  0.00    +0.244 C 
ATOM     15  O   UNL     1      -8.534  -8.079  -0.536  0.00  0.00    -0.270 OA
ATOM     16  N   UNL     1      -8.523  -7.874   1.677  0.00  0.00    -0.325 N 
ATOM     17  H   UNL     1      -8.050  -7.995   2.515  0.00  0.00    +0.145 HD
ATOM     18  H   UNL     1      -9.417  -7.497   1.675  0.00  0.00    +0.145 HD
ENDBRANCH   6  14
ENDBRANCH   3   5
BRANCH   1  19
ATOM     19  C   UNL     1      -4.166  -4.489   0.087  0.00  0.00    +0.019 C 
BRANCH  19  24
ATOM     20  C   UNL     1      -1.244  -2.135   0.003  0.00  0.00    +0.081 C 
ATOM     21  C   UNL     1      -0.556  -2.668  -1.258  0.00  0.00    +0.011 C 
ATOM     22  C   UNL     1      -0.690  -4.193  -1.295  0.00  0.00    -0.018 C 
ATOM     23  C   UNL     1      -2.171  -4.571  -1.239  0.00  0.00    -0.078 C 
ATOM     24  N   UNL     1      -2.765  -4.057   0.001  0.00  0.00    +0.386 N 
ATOM     25  C   UNL     1      -2.705  -2.590   0.012  0.00  0.00    -0.064 C 
ATOM     26  H   UNL     1      -2.254  -4.418   0.792  0.00  0.00    -0.081 HD
BRANCH  20  27
ATOM     27  C   UNL     1      -1.185  -0.630   0.010  0.00  0.00    +0.308 C 
ATOM     28  O   UNL     1      -2.208   0.015   0.023  0.00  0.00    -0.251 OA
BRANCH  27  30
ATOM     29  C   UNL     1      -0.017   1.425   0.010  0.00  0.00    +0.280 C 
ATOM     30  O   UNL     1       0.002  -0.004   0.002  0.00  0.00    -0.468 OA
ENDBRANCH  27  30
ENDBRANCH  20  27
ENDBRANCH  19  24
ENDBRANCH   1  19
TORSDOF 6
