REMARK  Name = ZINC54347772
REMARK  5 active torsions:
REMARK  status: ('A' for Active; 'I' for Inactive)
REMARK    1  A    between atoms: C_1  and  C_2
REMARK    2  A    between atoms: C_2  and  C_4
REMARK    3  A    between atoms: C_2  and  N_14
REMARK    4  A    between atoms: N_14  and  S_15
REMARK    5  A    between atoms: S_15  and  C_18
REMARK                            x       y       z     vdW  Elec       q    Type
REMARK                         _______ _______ _______ _____ _____    ______ ____
ROOT
ATOM      1  C   UNL     1      -0.019   1.526   0.010  0.00  0.00    +0.034 C 
ATOM      2  C   UNL     1       0.002  -0.004   0.002  0.00  0.00    +0.139 C 
ENDROOT
BRANCH   2   3
ATOM      3  C   UNL     1       0.731  -0.503   1.223  0.00  0.00    +0.127 A 
ATOM      4  N   UNL     1       2.080  -0.649   1.320  0.00  0.00    -0.341 N 
ATOM      5  H   UNL     1       2.731  -0.452   0.628  0.00  0.00    +0.167 HD
ATOM      6  C   UNL     1       2.351  -1.127   2.586  0.00  0.00    +0.066 A 
ATOM      7  C   UNL     1       3.515  -1.466   3.263  0.00  0.00    +0.028 A 
ATOM      8  C   UNL     1       3.442  -1.927   4.560  0.00  0.00    +0.002 A 
ATOM      9  C   UNL     1       2.213  -2.054   5.192  0.00  0.00    +0.002 A 
ATOM     10  C   UNL     1       1.057  -1.726   4.542  0.00  0.00    +0.030 A 
ATOM     11  C   UNL     1       1.108  -1.256   3.227  0.00  0.00    +0.089 A 
ATOM     12  N   UNL     1       0.162  -0.853   2.340  0.00  0.00    -0.231 NA
ENDBRANCH   2   3
BRANCH   2  13
ATOM     13  N   UNL     1      -1.372  -0.511   0.012  0.00  0.00    -0.179 NA
ATOM     14  H   UNL     1      -1.845  -0.615   0.853  0.00  0.00    +0.149 HD
BRANCH  13  15
ATOM     15  S   UNL     1      -2.119  -0.907  -1.411  0.00  0.00    +0.066 S 
ATOM     16  O   UNL     1      -3.414  -1.386  -1.071  0.00  0.00    -0.152 OA
ATOM     17  O   UNL     1      -1.920   0.189  -2.293  0.00  0.00    -0.152 OA
BRANCH  15  18
ATOM     18  C   UNL     1      -1.242  -2.272  -2.098  0.00  0.00    +0.156 A 
ATOM     19  C   UNL     1      -1.473  -2.942  -3.254  0.00  0.00    +0.051 A 
ATOM     20  C   UNL     1      -0.645  -3.994  -3.596  0.00  0.00    +0.025 A 
ATOM     21  C   UNL     1       0.374  -4.326  -2.766  0.00  0.00    +0.048 A 
ATOM     22  S   UNL     1       0.187  -3.128  -1.455  0.00  0.00    -0.076 S 
ATOM     23 BR   UNL     1      -2.908  -2.443  -4.381  0.00  0.00    -0.048 Br
ENDBRANCH  15  18
ENDBRANCH  13  15
ENDBRANCH   2  13
TORSDOF 4
