REMARK  Name = ZINC36024710
REMARK  12 active torsions:
REMARK  status: ('A' for Active; 'I' for Inactive)
REMARK    1  A    between atoms: C_1  and  C_2
REMARK    2  A    between atoms: C_2  and  C_3
REMARK    3  A    between atoms: C_3  and  N_4
REMARK    4  A    between atoms: N_11  and  C_14
REMARK    5  A    between atoms: C_14  and  C_15
REMARK    6  A    between atoms: C_16  and  C_33
REMARK    7  A    between atoms: C_17  and  C_26
REMARK    8  A    between atoms: N_22  and  C_23
REMARK    9  A    between atoms: C_23  and  C_24
REMARK   10  A    between atoms: C_33  and  O_35
REMARK   11  A    between atoms: O_35  and  C_36
REMARK   12  A    between atoms: C_36  and  C_37
REMARK                            x       y       z     vdW  Elec       q    Type
REMARK                         _______ _______ _______ _____ _____    ______ ____
ROOT
ATOM      1  C   UNL     1       5.740  -6.728   3.547  0.00  0.00    +0.011 C 
ATOM      2  C   UNL     1       6.170  -8.008   3.601  0.00  0.00    +0.077 C 
ATOM      3  C   UNL     1       6.564  -8.563   4.955  0.00  0.00    +0.145 C 
ATOM      4  N   UNL     1       6.447  -7.655   6.108  0.00  0.00    -0.288 N 
ATOM      5  C   UNL     1       6.001  -6.401   5.895  0.00  0.00    +0.307 C 
ATOM      6  O   UNL     1       5.900  -5.644   6.841  0.00  0.00    -0.252 OA
ATOM      7  N   UNL     1       5.670  -5.960   4.675  0.00  0.00    -0.257 N 
ATOM      8  H   UNL     1       6.684  -7.953   7.000  0.00  0.00    +0.151 HD
ENDROOT
BRANCH   3   9
ATOM      9  C   UNL     1       7.998  -9.021   4.869  0.00  0.00    -0.004 A 
ATOM     10  C   UNL     1       9.022  -8.151   5.195  0.00  0.00    +0.007 A 
ATOM     11  C   UNL     1      10.336  -8.571   5.116  0.00  0.00    +0.000 A 
ATOM     12  C   UNL     1      10.628  -9.860   4.711  0.00  0.00    +0.001 A 
ATOM     13  C   UNL     1       9.605 -10.730   4.385  0.00  0.00    +0.020 A 
ATOM     14  C   UNL     1       8.289 -10.312   4.469  0.00  0.00    +0.046 A 
ATOM     15 CL   UNL     1       7.003 -11.407   4.065  0.00  0.00    -0.083 Cl
ENDBRANCH   3   9
BRANCH   2  16
ATOM     16  C   UNL     1       6.247  -8.802   2.433  0.00  0.00    +0.339 C 
ATOM     17  O   UNL     1       7.330  -9.048   1.936  0.00  0.00    -0.245 OA
BRANCH  16  18
ATOM     18  O   UNL     1       5.121  -9.288   1.872  0.00  0.00    -0.462 OA
BRANCH  18  19
ATOM     19  C   UNL     1       5.279 -10.171   0.759  0.00  0.00    +0.229 C 
ATOM     20  C   UNL     1       3.904 -10.518   0.184  0.00  0.00    +0.048 C 
ENDBRANCH  18  19
ENDBRANCH  16  18
ENDBRANCH   2  16
BRANCH   1  21
ATOM     21  C   UNL     1       5.337  -6.136   2.221  0.00  0.00    -0.026 C 
BRANCH  21  29
ATOM     22  N   UNL     1       9.679  -6.443  -0.952  0.00  0.00    -0.299 N 
ATOM     23  C   UNL     1       9.100  -5.245  -1.172  0.00  0.00    +0.302 C 
ATOM     24  O   UNL     1       9.051  -4.792  -2.299  0.00  0.00    -0.253 OA
ATOM     25  N   UNL     1       8.576  -4.551  -0.142  0.00  0.00    -0.287 N 
ATOM     26  C   UNL     1       7.840  -3.303  -0.427  0.00  0.00    +0.107 C 
ATOM     27  C   UNL     1       6.573  -3.198   0.442  0.00  0.00    +0.000 C 
ATOM     28  C   UNL     1       5.917  -4.557   0.543  0.00  0.00    -0.077 C 
ATOM     29  N   UNL     1       6.395  -5.235   1.746  0.00  0.00    +0.384 N 
ATOM     30  C   UNL     1       7.579  -5.987   1.575  0.00  0.00    -0.059 C 
ATOM     31  C   UNL     1       8.751  -5.058   1.203  0.00  0.00    +0.091 C 
ATOM     32  H   UNL     1       9.783  -6.772  -0.046  0.00  0.00    +0.150 HD
ATOM     33  H   UNL     1       6.560  -4.540   2.459  0.00  0.00    -0.081 HD
BRANCH  22  34
ATOM     34  C   UNL     1      10.151  -7.247  -2.082  0.00  0.00    +0.105 C 
BRANCH  34  36
ATOM     35  C   UNL     1      11.254  -9.389  -2.742  0.00  0.00    +0.005 C 
ATOM     36  C   UNL     1      10.762  -8.549  -1.562  0.00  0.00    +0.015 C 
ENDBRANCH  34  36
ENDBRANCH  22  34
ENDBRANCH  21  29
ENDBRANCH   1  21
BRANCH   7  37
ATOM     37  C   UNL     1       5.201  -4.579   4.542  0.00  0.00    +0.141 C 
BRANCH  37  38
ATOM     38  C   UNL     1       3.723  -4.521   4.829  0.00  0.00    -0.015 C 
ATOM     39  C   UNL     1       3.265  -3.704   5.746  0.00  0.00    +0.005 C 
ENDBRANCH  37  38
ENDBRANCH   7  37
TORSDOF 10
