REMARK  Name = ZINC23184266
REMARK  7 active torsions:
REMARK  status: ('A' for Active; 'I' for Inactive)
REMARK    1  A    between atoms: C_1  and  C_2
REMARK    2  A    between atoms: C_4  and  C_29
REMARK    3  A    between atoms: C_7  and  C_13
REMARK    4  A    between atoms: C_11  and  C_12
REMARK    5  A    between atoms: N_15  and  C_16
REMARK    6  A    between atoms: N_15  and  C_17
REMARK    7  A    between atoms: C_17  and  C_18
REMARK                            x       y       z     vdW  Elec       q    Type
REMARK                         _______ _______ _______ _____ _____    ______ ____
ROOT
ATOM      1  C   UNL     1      -0.302   8.794   1.890  0.00  0.00    +0.263 C 
ATOM      2  O   UNL     1      -1.367   8.717   2.473  0.00  0.00    -0.268 OA
ATOM      3  N   UNL     1      -0.051   7.992   0.836  0.00  0.00    -0.296 N 
ATOM      4  C   UNL     1       1.278   7.986   0.220  0.00  0.00    +0.132 C 
ENDROOT
BRANCH   1  11
ATOM      5  C   UNL     1       5.548  13.281   2.877  0.00  0.00    +0.044 C 
ATOM      6  C   UNL     1       4.232  12.582   3.099  0.00  0.00    -0.045 A 
ATOM      7  C   UNL     1       3.475  12.880   4.225  0.00  0.00    +0.007 A 
ATOM      8  C   UNL     1       2.281  12.258   4.444  0.00  0.00    -0.041 A 
ATOM      9  C   UNL     1       1.810  11.310   3.526  0.00  0.00    +0.004 A 
ATOM     10  C   UNL     1       0.640  10.514   3.464  0.00  0.00    +0.041 A 
ATOM     11  C   UNL     1       0.711   9.762   2.335  0.00  0.00    +0.103 A 
ATOM     12  N   UNL     1       1.885  10.057   1.668  0.00  0.00    -0.350 N 
ATOM     13  H   UNL     1       2.122   9.548   0.722  0.00  0.00    +0.166 HD
ATOM     14  C   UNL     1       2.575  11.006   2.384  0.00  0.00    +0.050 A 
ATOM     15  C   UNL     1       3.791  11.653   2.182  0.00  0.00    -0.024 A 
ATOM     16  C   UNL     1       4.622  11.339   0.965  0.00  0.00    +0.046 C 
ATOM     17  C   UNL     1       1.470  12.591   5.670  0.00  0.00    +0.044 C 
ENDBRANCH   1  11
BRANCH   3  18
ATOM     18  C   UNL     1      -1.108   7.126   0.307  0.00  0.00    +0.155 C 
BRANCH  18  19
ATOM     19  C   UNL     1      -1.064   5.774   1.021  0.00  0.00    +0.228 C 
ATOM     20  C   UNL     1      -2.169   4.862   0.470  0.00  0.00    +0.275 C 
ATOM     21  O   UNL     1      -2.091   3.604   1.149  0.00  0.00    -0.485 OA
ATOM     22  C   UNL     1      -0.853   3.051   1.271  0.00  0.00    +0.162 A 
ATOM     23  C   UNL     1      -0.737   1.702   1.574  0.00  0.00    +0.049 A 
ATOM     24  C   UNL     1       0.513   1.129   1.710  0.00  0.00    +0.004 A 
ATOM     25  C   UNL     1       1.651   1.895   1.535  0.00  0.00    +0.004 A 
ATOM     26  C   UNL     1       1.542   3.238   1.227  0.00  0.00    +0.049 A 
ATOM     27  C   UNL     1       0.290   3.821   1.093  0.00  0.00    +0.163 A 
ATOM     28  O   UNL     1       0.198   5.143   0.782  0.00  0.00    -0.480 OA
ENDBRANCH  18  19
ENDBRANCH   3  18
TORSDOF 3
