REMARK  Name = ZINC39845441
REMARK  10 active torsions:
REMARK  status: ('A' for Active; 'I' for Inactive)
REMARK    1  A    between atoms: C_1  and  N_2
REMARK    2  A    between atoms: N_2  and  C_3
REMARK    3  A    between atoms: N_2  and  C_4
REMARK    4  A    between atoms: C_4  and  C_5
REMARK    5  A    between atoms: C_5  and  C_6
REMARK    6  A    between atoms: C_6  and  N_7
REMARK    7  A    between atoms: N_7  and  C_8
REMARK    8  A    between atoms: C_9  and  S_18
REMARK    9  A    between atoms: C_11  and  C_13
REMARK   10  A    between atoms: S_18  and  C_21
REMARK                            x       y       z     vdW  Elec       q    Type
REMARK                         _______ _______ _______ _____ _____    ______ ____
ROOT
ATOM      1  C   UNL     1      -3.973  -4.736  -0.254  0.00  0.00    +0.233 A 
ATOM      2  C   UNL     1      -4.108  -6.080  -0.360  0.00  0.00    +0.243 A 
ATOM      3  N   UNL     1      -5.419  -6.363  -0.335  0.00  0.00    -0.186 NA
ATOM      4  C   UNL     1      -6.091  -5.240  -0.216  0.00  0.00    +0.267 A 
ATOM      5  O   UNL     1      -5.214  -4.217  -0.158  0.00  0.00    -0.417 OA
ENDROOT
BRANCH   4   6
ATOM      6  C   UNL     1      -7.554  -5.118  -0.151  0.00  0.00    +0.189 A 
ATOM      7  C   UNL     1      -8.257  -3.956  -0.034  0.00  0.00    +0.055 A 
ATOM      8  C   UNL     1      -9.620  -4.307  -0.010  0.00  0.00    +0.042 A 
ATOM      9  C   UNL     1      -9.684  -5.650  -0.113  0.00  0.00    +0.196 A 
ATOM     10  O   UNL     1      -8.436  -6.136  -0.204  0.00  0.00    -0.458 OA
ENDBRANCH   4   6
BRANCH   2  11
ATOM     11  S   UNL     1      -2.797  -7.248  -0.507  0.00  0.00    +0.047 S 
ATOM     12  O   UNL     1      -3.346  -8.398  -1.135  0.00  0.00    -0.163 OA
ATOM     13  O   UNL     1      -1.685  -6.544  -1.044  0.00  0.00    -0.163 OA
BRANCH  11  14
ATOM     14  C   UNL     1      -2.345  -7.732   1.125  0.00  0.00    +0.095 A 
ATOM     15  C   UNL     1      -1.374  -7.028   1.812  0.00  0.00    +0.028 A 
ATOM     16  C   UNL     1      -1.020  -7.407   3.092  0.00  0.00    +0.017 A 
ATOM     17  C   UNL     1      -1.637  -8.492   3.688  0.00  0.00    +0.018 A 
ATOM     18  C   UNL     1      -2.609  -9.197   3.001  0.00  0.00    +0.017 A 
ATOM     19  C   UNL     1      -2.966  -8.814   1.722  0.00  0.00    +0.028 A 
ATOM     20 BR   UNL     1      -1.153  -9.013   5.440  0.00  0.00    -0.050 Br
ENDBRANCH  11  14
ENDBRANCH   2  11
BRANCH   1  21
ATOM     21  N   UNL     1      -2.777  -4.025  -0.239  0.00  0.00    -0.312 N 
ATOM     22  H   UNL     1      -1.932  -4.496  -0.314  0.00  0.00    +0.149 HD
BRANCH  21  23
ATOM     23  C   UNL     1      -2.794  -2.566  -0.111  0.00  0.00    +0.102 C 
BRANCH  23  24
ATOM     24  C   UNL     1      -1.358  -2.037  -0.122  0.00  0.00    +0.000 C 
BRANCH  24  25
ATOM     25  C   UNL     1      -1.376  -0.512   0.012  0.00  0.00    -0.078 C 
BRANCH  25  27
ATOM     26  C   UNL     1      -0.018   1.465   0.010  0.00  0.00    -0.097 C 
ATOM     27  N   UNL     1       0.002  -0.004   0.002  0.00  0.00    +0.376 N 
ATOM     28  C   UNL     1       0.713  -0.491   1.192  0.00  0.00    -0.097 C 
ATOM     29  H   UNL     1       0.474  -0.330  -0.828  0.00  0.00    -0.083 HD
ENDBRANCH  25  27
ENDBRANCH  24  25
ENDBRANCH  23  24
ENDBRANCH  21  23
ENDBRANCH   1  21
TORSDOF 8
