REMARK  Name = ZINC21726198
REMARK  6 active torsions:
REMARK  status: ('A' for Active; 'I' for Inactive)
REMARK    1  A    between atoms: C_1  and  C_2
REMARK    2  A    between atoms: C_20  and  C_22
REMARK    3  A    between atoms: C_26  and  O_34
REMARK    4  A    between atoms: C_27  and  O_28
REMARK    5  A    between atoms: O_28  and  C_29
REMARK    6  A    between atoms: O_34  and  C_35
REMARK                            x       y       z     vdW  Elec       q    Type
REMARK                         _______ _______ _______ _____ _____    ______ ____
ROOT
ATOM      1  C   UNL     1       6.781   5.017  -0.341  0.00  0.00    +0.068 C 
ATOM      2  C   UNL     1       6.313   3.632  -0.707  0.00  0.00    +0.066 A 
ATOM      3  C   UNL     1       7.127   2.526  -0.905  0.00  0.00    +0.023 A 
ATOM      4  C   UNL     1       6.324   1.460  -1.216  0.00  0.00    +0.135 A 
ATOM      5  N   UNL     1       5.047   1.900  -1.220  0.00  0.00    -0.193 N 
ATOM      6  N   UNL     1       5.067   3.268  -0.898  0.00  0.00    -0.168 NA
ATOM      7  C   UNL     1       3.918   1.139  -1.499  0.00  0.00    +0.196 A 
ATOM      8  N   UNL     1       2.660   1.510  -1.518  0.00  0.00    -0.221 NA
ATOM      9  C   UNL     1       1.655   0.656  -1.808  0.00  0.00    +0.081 A 
ATOM     10  C   UNL     1       0.268   0.926  -1.863  0.00  0.00    +0.029 A 
ATOM     11  C   UNL     1      -0.626  -0.064  -2.177  0.00  0.00    +0.002 A 
ATOM     12  C   UNL     1      -0.207  -1.357  -2.455  0.00  0.00    +0.001 A 
ATOM     13  C   UNL     1       1.141  -1.658  -2.405  0.00  0.00    +0.017 A 
ATOM     14  C   UNL     1       2.044  -0.673  -2.092  0.00  0.00    +0.041 A 
ATOM     15  S   UNL     1       3.811  -0.594  -1.922  0.00  0.00    -0.048 S 
ATOM     16  N   UNL     1       6.849   0.196  -1.476  0.00  0.00    -0.270 N 
ATOM     17  C   UNL     1       8.151  -0.023  -1.192  0.00  0.00    +0.219 C 
ATOM     18  O   UNL     1       8.669  -1.053  -1.567  0.00  0.00    -0.275 OA
ATOM     19  C   UNL     1       8.976   0.970  -0.423  0.00  0.00    +0.109 C 
ATOM     20  C   UNL     1       8.628   2.408  -0.823  0.00  0.00    +0.067 C 
ATOM     21  H   UNL     1       6.207  -0.589  -1.903  0.00  0.00    +0.156 HD
ENDROOT
BRANCH  20  22
ATOM     22  C   UNL     1       9.238   2.724  -2.164  0.00  0.00    +0.006 A 
ATOM     23  C   UNL     1       8.826   2.034  -3.291  0.00  0.00    +0.008 A 
ATOM     24  C   UNL     1       9.383   2.322  -4.522  0.00  0.00    +0.004 A 
ATOM     25  C   UNL     1      10.355   3.299  -4.634  0.00  0.00    +0.049 A 
ATOM     26  C   UNL     1      10.772   3.993  -3.510  0.00  0.00    +0.162 A 
ATOM     27  C   UNL     1      10.206   3.708  -2.271  0.00  0.00    +0.166 A 
BRANCH  26  28
ATOM     28  O   UNL     1      11.727   4.955  -3.618  0.00  0.00    -0.491 OA
ATOM     29  C   UNL     1      12.258   5.197  -4.923  0.00  0.00    +0.277 C 
ENDBRANCH  26  28
BRANCH  27  30
ATOM     30  O   UNL     1      10.608   4.391  -1.165  0.00  0.00    -0.485 OA
BRANCH  30  31
ATOM     31  C   UNL     1      11.783   3.919  -0.503  0.00  0.00    +0.174 C 
ATOM     32  C   UNL     1      11.401   3.217   0.817  0.00  0.00    +0.044 C 
ATOM     33  C   UNL     1      12.533   3.613   1.798  0.00  0.00    +0.004 C 
ATOM     34  C   UNL     1      12.823   5.084   1.411  0.00  0.00    +0.004 C 
ATOM     35  C   UNL     1      12.688   5.105  -0.125  0.00  0.00    +0.044 C 
ENDBRANCH  30  31
ENDBRANCH  27  30
ENDBRANCH  20  22
TORSDOF 4
