REMARK  Name = ZINC38547870
REMARK  10 active torsions:
REMARK  status: ('A' for Active; 'I' for Inactive)
REMARK    1  A    between atoms: C_1  and  C_2
REMARK    2  A    between atoms: C_2  and  C_3
REMARK    3  A    between atoms: C_5  and  C_16
REMARK    4  A    between atoms: C_6  and  N_8
REMARK    5  A    between atoms: C_9  and  C_11
REMARK    6  A    between atoms: C_16  and  C_18
REMARK    7  A    between atoms: C_16  and  N_26
REMARK    8  A    between atoms: C_21  and  S_24
REMARK    9  A    between atoms: S_24  and  C_25
REMARK   10  A    between atoms: C_29  and  C_33
REMARK                            x       y       z     vdW  Elec       q    Type
REMARK                         _______ _______ _______ _____ _____    ______ ____
ROOT
ATOM      1  C   UNL     1       3.909  -1.511  -2.896  0.00  0.00    +0.135 C 
ENDROOT
BRANCH   1   2
ATOM      2  N   UNL     1       4.811  -0.919  -1.905  0.00  0.00    -0.320 N 
ATOM      3  C   UNL     1       5.197   0.411  -2.023  0.00  0.00    +0.097 A 
ATOM      4  C   UNL     1       4.804   1.147  -3.137  0.00  0.00    +0.045 A 
ATOM      5  C   UNL     1       5.195   2.469  -3.242  0.00  0.00    -0.046 A 
ATOM      6  C   UNL     1       5.968   3.014  -2.225  0.00  0.00    +0.021 A 
ATOM      7  C   UNL     1       6.322   2.226  -1.148  0.00  0.00    +0.084 A 
ATOM      8  N   UNL     1       5.930   0.969  -1.072  0.00  0.00    -0.350 N 
ATOM      9  C   UNL     1       4.791   3.300  -4.432  0.00  0.00    +0.044 C 
ATOM     10  H   UNL     1       5.138  -1.455  -1.166  0.00  0.00    +0.148 HD
ATOM     11  H   UNL     1       6.189   0.438  -0.302  0.00  0.00    +0.166 HD
ENDBRANCH   1   2
BRANCH   1  12
ATOM     12  C   UNL     1       4.051  -3.011  -2.872  0.00  0.00    -0.023 A 
ATOM     13  C   UNL     1       4.057  -3.684  -1.664  0.00  0.00    +0.007 A 
ATOM     14  C   UNL     1       4.188  -5.059  -1.639  0.00  0.00    +0.015 A 
ATOM     15  C   UNL     1       4.314  -5.765  -2.829  0.00  0.00    +0.008 A 
ATOM     16  C   UNL     1       4.308  -5.085  -4.041  0.00  0.00    +0.015 A 
ATOM     17  C   UNL     1       4.171  -3.711  -4.059  0.00  0.00    +0.007 A 
BRANCH  15  18
ATOM     18  S   UNL     1       4.482  -7.519  -2.801  0.00  0.00    -0.129 S 
ATOM     19  C   UNL     1       4.611  -7.976  -4.552  0.00  0.00    +0.090 C 
ENDBRANCH  15  18
ENDBRANCH   1  12
BRANCH   1  22
ATOM     20  C   UNL     1       0.830  -0.510  -1.009  0.00  0.00    -0.008 A 
ATOM     21  C   UNL     1       2.117  -0.844  -1.269  0.00  0.00    +0.019 A 
ATOM     22  C   UNL     1       2.486  -1.136  -2.569  0.00  0.00    +0.006 A 
ATOM     23  C   UNL     1       1.541  -1.079  -3.548  0.00  0.00    +0.078 A 
ATOM     24  S   UNL     1       0.085  -0.610  -2.628  0.00  0.00    -0.078 S 
BRANCH  23  25
ATOM     25  N   UNL     1       1.675  -1.329  -4.915  0.00  0.00    -0.273 N 
ATOM     26  C   UNL     1       0.606  -1.218  -5.729  0.00  0.00    +0.284 C 
ATOM     27  O   UNL     1      -0.476  -0.899  -5.271  0.00  0.00    -0.266 OA
ATOM     28  H   UNL     1       2.537  -1.583  -5.280  0.00  0.00    +0.156 HD
BRANCH  26  29
ATOM     29  C   UNL     1       0.746  -1.480  -7.164  0.00  0.00    +0.189 A 
ATOM     30  C   UNL     1      -0.249  -1.399  -8.096  0.00  0.00    +0.054 A 
ATOM     31  C   UNL     1       0.328  -1.730  -9.332  0.00  0.00    +0.042 A 
ATOM     32  C   UNL     1       1.633  -1.996  -9.104  0.00  0.00    +0.196 A 
ATOM     33  O   UNL     1       1.882  -1.839  -7.797  0.00  0.00    -0.458 OA
ENDBRANCH  26  29
ENDBRANCH  23  25
BRANCH  20  35
ATOM     34  C   UNL     1       0.283   1.358   0.527  0.00  0.00    +0.009 C 
ATOM     35  C   UNL     1       0.191  -0.153   0.308  0.00  0.00    +0.039 C 
ENDBRANCH  20  35
ENDBRANCH   1  22
TORSDOF 7
