REMARK  Name = ZINC34762159
REMARK  15 active torsions:
REMARK  status: ('A' for Active; 'I' for Inactive)
REMARK    1  A    between atoms: C_1  and  C_2
REMARK    2  A    between atoms: C_2  and  C_3
REMARK    3  A    between atoms: C_3  and  C_5
REMARK    4  A    between atoms: C_3  and  C_11
REMARK    5  A    between atoms: N_13  and  C_14
REMARK    6  A    between atoms: N_13  and  C_34
REMARK    7  A    between atoms: C_14  and  C_15
REMARK    8  A    between atoms: N_18  and  C_20
REMARK    9  A    between atoms: C_25  and  O_26
REMARK   10  A    between atoms: O_26  and  C_27
REMARK   11  A    between atoms: N_30  and  C_32
REMARK   12  A    between atoms: C_32  and  C_33
REMARK   13  A    between atoms: C_34  and  C_35
REMARK   14  A    between atoms: C_35  and  C_36
REMARK   15  A    between atoms: C_35  and  C_37
REMARK                            x       y       z     vdW  Elec       q    Type
REMARK                         _______ _______ _______ _____ _____    ______ ____
ROOT
ATOM      1  C   UNL     1      -0.122  -5.530   0.147  0.00  0.00    +0.082 A 
ATOM      2  C   UNL     1       0.851  -5.886   1.075  0.00  0.00    -0.018 A 
ATOM      3  C   UNL     1       0.219  -6.285   2.212  0.00  0.00    +0.045 A 
ATOM      4  N   UNL     1      -1.103  -6.181   2.008  0.00  0.00    -0.233 N 
ATOM      5  N   UNL     1      -1.298  -5.700   0.704  0.00  0.00    -0.169 NA
ATOM      6  C   UNL     1       0.960  -6.754   3.440  0.00  0.00    +0.037 C 
ATOM      7  C   UNL     1       2.408  -7.052   3.024  0.00  0.00    -0.072 C 
ATOM      8  N   UNL     1       2.951  -5.915   2.271  0.00  0.00    +0.383 N 
ATOM      9  C   UNL     1       2.351  -5.859   0.928  0.00  0.00    -0.039 C 
ATOM     10  H   UNL     1       2.746  -5.059   2.764  0.00  0.00    -0.081 HD
ENDROOT
BRANCH   4  11
ATOM     11  C   UNL     1      -2.110  -6.492   2.935  0.00  0.00    +0.107 A 
ATOM     12  C   UNL     1      -2.028  -6.018   4.236  0.00  0.00    +0.031 A 
ATOM     13  C   UNL     1      -3.021  -6.325   5.147  0.00  0.00    +0.002 A 
ATOM     14  C   UNL     1      -4.097  -7.104   4.765  0.00  0.00    +0.004 A 
ATOM     15  C   UNL     1      -4.186  -7.580   3.470  0.00  0.00    +0.048 A 
ATOM     16  C   UNL     1      -3.197  -7.272   2.549  0.00  0.00    +0.145 A 
BRANCH  16  17
ATOM     17  O   UNL     1      -3.286  -7.734   1.274  0.00  0.00    -0.493 OA
ATOM     18  C   UNL     1      -4.429  -8.527   0.949  0.00  0.00    +0.277 C 
ENDBRANCH  16  17
ENDBRANCH   4  11
BRANCH   8  19
ATOM     19  C   UNL     1       4.407  -6.064   2.147  0.00  0.00    -0.082 C 
ATOM     20  C   UNL     1       5.049  -5.976   3.534  0.00  0.00    -0.017 C 
ENDBRANCH   8  19
BRANCH   1  21
ATOM     21  C   UNL     1       0.131  -5.029  -1.251  0.00  0.00    +0.165 C 
BRANCH  21  24
ATOM     22  C   UNL     1       1.457  -2.992  -1.083  0.00  0.00    +0.223 C 
ATOM     23  O   UNL     1       2.455  -3.680  -1.036  0.00  0.00    -0.275 OA
ATOM     24  N   UNL     1       0.248  -3.569  -1.234  0.00  0.00    -0.295 N 
BRANCH  22  25
ATOM     25  C   UNL     1       1.569  -1.493  -0.975  0.00  0.00    +0.105 C 
BRANCH  25  26
ATOM     26  C   UNL     1       3.008  -1.083  -1.147  0.00  0.00    -0.036 A 
ATOM     27  C   UNL     1       3.971  -1.558  -0.276  0.00  0.00    +0.004 A 
ATOM     28  C   UNL     1       5.292  -1.182  -0.434  0.00  0.00    +0.000 A 
ATOM     29  C   UNL     1       5.650  -0.330  -1.462  0.00  0.00    +0.000 A 
ATOM     30  C   UNL     1       4.687   0.145  -2.333  0.00  0.00    +0.000 A 
ATOM     31  C   UNL     1       3.367  -0.235  -2.178  0.00  0.00    +0.004 A 
ENDBRANCH  25  26
BRANCH  25  33
ATOM     32  C   UNL     1       1.066   0.485   0.467  0.00  0.00    +0.005 C 
ATOM     33  C   UNL     1       1.071  -1.044   0.401  0.00  0.00    +0.014 C 
ENDBRANCH  25  33
ENDBRANCH  22  25
BRANCH  24  34
ATOM     34  C   UNL     1      -0.948  -2.736  -1.380  0.00  0.00    +0.111 C 
BRANCH  34  35
ATOM     35  C   UNL     1      -1.281  -2.578  -2.865  0.00  0.00    +0.000 C 
ATOM     36  C   UNL     1      -2.609  -1.832  -3.013  0.00  0.00    +0.009 C 
ATOM     37  C   UNL     1      -0.171  -1.784  -3.555  0.00  0.00    +0.009 C 
ENDBRANCH  34  35
ENDBRANCH  24  34
ENDBRANCH  21  24
ENDBRANCH   1  21
TORSDOF 10
