REMARK  Name = ZINC38161706
REMARK  8 active torsions:
REMARK  status: ('A' for Active; 'I' for Inactive)
REMARK    1  A    between atoms: C_1  and  C_2
REMARK    2  A    between atoms: C_2  and  O_3
REMARK    3  A    between atoms: O_3  and  C_4
REMARK    4  A    between atoms: C_9  and  O_10
REMARK    5  A    between atoms: O_10  and  C_11
REMARK    6  A    between atoms: C_20  and  O_29
REMARK    7  A    between atoms: C_21  and  C_22
REMARK    8  A    between atoms: C_22  and  N_23
REMARK                            x       y       z     vdW  Elec       q    Type
REMARK                         _______ _______ _______ _____ _____    ______ ____
ROOT
ATOM      1  C   UNL     1      -5.134  -2.087   0.085  0.00  0.00    +0.210 A 
ATOM      2  C   UNL     1      -5.337  -3.417   0.164  0.00  0.00    +0.245 A 
ATOM      3  O   UNL     1      -6.560  -3.961   0.221  0.00  0.00    -0.459 OA
ATOM      4  C   UNL     1      -7.684  -3.216   0.204  0.00  0.00    +0.143 A 
ATOM      5  C   UNL     1      -7.592  -1.815   0.124  0.00  0.00    +0.068 A 
ATOM      6  C   UNL     1      -6.252  -1.205   0.066  0.00  0.00    +0.235 A 
ATOM      7  O   UNL     1      -6.106   0.004   0.000  0.00  0.00    -0.283 OA
ATOM      8  C   UNL     1      -8.748  -1.033   0.107  0.00  0.00    +0.019 A 
ATOM      9  C   UNL     1      -9.972  -1.634   0.168  0.00  0.00    +0.046 A 
ATOM     10  C   UNL     1     -10.073  -3.021   0.248  0.00  0.00    +0.122 A 
ATOM     11  C   UNL     1      -8.936  -3.811   0.266  0.00  0.00    +0.020 A 
ENDROOT
BRANCH  10  12
ATOM     12  O   UNL     1     -11.298  -3.604   0.309  0.00  0.00    -0.506 OA
ATOM     13  H   UNL     1     -11.673  -3.822  -0.556  0.00  0.00    +0.292 HD
ENDBRANCH  10  12
BRANCH   1  14
ATOM     14  O   UNL     1      -3.868  -1.590   0.030  0.00  0.00    -0.445 OA
BRANCH  14  20
ATOM     15  C   UNL     1      -2.232  -0.349  -1.181  0.00  0.00    +0.163 A 
ATOM     16  C   UNL     1      -1.831   0.267  -2.355  0.00  0.00    +0.049 A 
ATOM     17  C   UNL     1      -2.662   0.259  -3.460  0.00  0.00    +0.004 A 
ATOM     18  C   UNL     1      -3.896  -0.362  -3.396  0.00  0.00    +0.004 A 
ATOM     19  C   UNL     1      -4.303  -0.979  -2.228  0.00  0.00    +0.050 A 
ATOM     20  C   UNL     1      -3.471  -0.979  -1.118  0.00  0.00    +0.170 A 
BRANCH  15  21
ATOM     21  O   UNL     1      -1.415  -0.342  -0.094  0.00  0.00    -0.489 OA
BRANCH  21  23
ATOM     22  C   UNL     1       0.616   0.228   1.085  0.00  0.00    +0.048 C 
ATOM     23  C   UNL     1      -0.159   0.324  -0.231  0.00  0.00    +0.226 C 
ENDBRANCH  21  23
ENDBRANCH  15  21
ENDBRANCH  14  20
ENDBRANCH   1  14
BRANCH  11  24
ATOM     24  C   UNL     1      -9.057  -5.311   0.352  0.00  0.00    -0.036 C 
BRANCH  24  25
ATOM     25  N   UNL     1      -9.065  -5.721   1.762  0.00  0.00    +0.383 N 
ATOM     26  C   UNL     1      -7.772  -5.392   2.374  0.00  0.00    -0.078 C 
ATOM     27  C   UNL     1      -7.803  -5.743   3.863  0.00  0.00    -0.019 C 
ATOM     28  C   UNL     1      -8.079  -7.241   4.023  0.00  0.00    -0.004 C 
ATOM     29  C   UNL     1      -9.393  -7.586   3.317  0.00  0.00    -0.019 C 
ATOM     30  C   UNL     1      -9.303  -7.167   1.849  0.00  0.00    -0.078 C 
ATOM     31  H   UNL     1      -9.800  -5.231   2.250  0.00  0.00    -0.081 HD
ENDBRANCH  24  25
ENDBRANCH  11  24
TORSDOF 7
