REMARK  Name = ZINC09301079
REMARK  12 active torsions:
REMARK  status: ('A' for Active; 'I' for Inactive)
REMARK    1  A    between atoms: C_1  and  C_2
REMARK    2  A    between atoms: C_2  and  O_3
REMARK    3  A    between atoms: O_3  and  C_4
REMARK    4  A    between atoms: C_4  and  C_6
REMARK    5  A    between atoms: C_7  and  C_31
REMARK    6  A    between atoms: C_10  and  C_30
REMARK    7  A    between atoms: C_11  and  S_12
REMARK    8  A    between atoms: S_12  and  N_15
REMARK    9  A    between atoms: N_15  and  C_16
REMARK   10  A    between atoms: N_15  and  C_24
REMARK   11  A    between atoms: C_16  and  C_17
REMARK   12  A    between atoms: C_29  and  N_61
REMARK                            x       y       z     vdW  Elec       q    Type
REMARK                         _______ _______ _______ _____ _____    ______ ____
ROOT
ATOM      1  N   UNL     1       1.214   4.269   1.438  0.00  0.00    -0.169 NA
ENDROOT
BRANCH   1   2
ATOM      2  C   UNL     1       0.381   3.796   2.547  0.00  0.00    +0.077 C 
ATOM      3  C   UNL     1      -0.238   2.444   2.181  0.00  0.00    +0.002 C 
ATOM      4  C   UNL     1      -1.154   1.984   3.317  0.00  0.00    -0.078 C 
ATOM      5  C   UNL     1      -1.639   4.277   3.932  0.00  0.00    -0.078 C 
ATOM      6  C   UNL     1      -0.738   4.806   2.814  0.00  0.00    +0.002 C 
ATOM      7  C   UNL     1      -3.187   2.512   4.522  0.00  0.00    -0.096 C 
ATOM      8  N   UNL     1      -2.224   2.987   3.508  0.00  0.00    +0.378 N 
ATOM      9  H   UNL     1      -2.716   3.122   2.617  0.00  0.00    -0.082 HD
ENDBRANCH   1   2
BRANCH   1  10
ATOM     10  S   UNL     1       2.853   4.401   1.631  0.00  0.00    +0.064 S 
ATOM     11  O   UNL     1       3.234   3.402   2.567  0.00  0.00    -0.153 OA
ATOM     12  O   UNL     1       3.411   4.475   0.326  0.00  0.00    -0.153 OA
BRANCH  10  18
ATOM     13  C   UNL     1       3.294   7.256   1.733  0.00  0.00    +0.106 A 
ATOM     14  C   UNL     1       3.531   8.173   2.734  0.00  0.00    +0.029 A 
ATOM     15  N   UNL     1       3.549   7.518   3.910  0.00  0.00    -0.360 N 
ATOM     16  H   UNL     1       3.697   7.933   4.773  0.00  0.00    +0.165 HD
ATOM     17  C   UNL     1       3.323   6.186   3.715  0.00  0.00    +0.041 A 
ATOM     18  C   UNL     1       3.164   5.956   2.400  0.00  0.00    +0.140 A 
ATOM     19  C   UNL     1       3.264   5.141   4.799  0.00  0.00    +0.065 C 
ATOM     20  C   UNL     1       3.736   9.654   2.545  0.00  0.00    +0.064 C 
BRANCH  13  21
ATOM     21  C   UNL     1       3.192   7.526   0.290  0.00  0.00    +0.343 C 
ATOM     22  O   UNL     1       2.124   7.842  -0.195  0.00  0.00    -0.245 OA
BRANCH  21  23
ATOM     23  O   UNL     1       4.284   7.423  -0.493  0.00  0.00    -0.461 OA
BRANCH  23  25
ATOM     24  C   UNL     1       5.450   7.562  -2.627  0.00  0.00    +0.048 C 
ATOM     25  C   UNL     1       4.139   7.822  -1.882  0.00  0.00    +0.229 C 
ENDBRANCH  23  25
ENDBRANCH  21  23
ENDBRANCH  13  21
ENDBRANCH  10  18
ENDBRANCH   1  10
BRANCH   1  26
ATOM     26  C   UNL     1       0.596   4.626   0.158  0.00  0.00    +0.146 C 
BRANCH  26  27
ATOM     27  C   UNL     1      -0.068   3.410  -0.435  0.00  0.00    -0.013 A 
ATOM     28  C   UNL     1      -1.444   3.363  -0.555  0.00  0.00    +0.006 A 
ATOM     29  C   UNL     1      -2.053   2.248  -1.099  0.00  0.00    +0.000 A 
ATOM     30  C   UNL     1      -1.286   1.179  -1.525  0.00  0.00    +0.001 A 
ATOM     31  C   UNL     1       0.090   1.225  -1.406  0.00  0.00    +0.020 A 
ATOM     32  C   UNL     1       0.700   2.341  -0.861  0.00  0.00    +0.045 A 
ATOM     33 CL   UNL     1       2.428   2.399  -0.711  0.00  0.00    -0.083 Cl
ENDBRANCH  26  27
ENDBRANCH   1  26
TORSDOF 8
