REMARK  Name = ZINC36549649
REMARK  7 active torsions:
REMARK  status: ('A' for Active; 'I' for Inactive)
REMARK    1  A    between atoms: C_1  and  C_2
REMARK    2  A    between atoms: C_3  and  C_4
REMARK    3  A    between atoms: C_4  and  C_6
REMARK    4  A    between atoms: C_4  and  N_15
REMARK    5  A    between atoms: N_8  and  C_9
REMARK    6  A    between atoms: N_15  and  C_16
REMARK    7  A    between atoms: C_23  and  C_25
REMARK                            x       y       z     vdW  Elec       q    Type
REMARK                         _______ _______ _______ _____ _____    ______ ____
ROOT
ATOM      1  N   UNL     1       0.847   1.558   2.353  0.00  0.00    -0.251 N 
ATOM      2  C   UNL     1       1.807   2.429   1.982  0.00  0.00    +0.253 C 
ATOM      3  O   UNL     1       2.912   2.023   1.679  0.00  0.00    -0.270 OA
ENDROOT
BRANCH   1   4
ATOM      4  C   UNL     1      -0.454   2.011   2.592  0.00  0.00    +0.056 A 
ATOM      5  C   UNL     1      -0.825   2.423   3.866  0.00  0.00    +0.025 A 
ATOM      6  C   UNL     1      -2.111   2.870   4.099  0.00  0.00    +0.002 A 
ATOM      7  C   UNL     1      -3.030   2.908   3.066  0.00  0.00    +0.002 A 
ATOM      8  C   UNL     1      -2.665   2.498   1.796  0.00  0.00    +0.022 A 
ATOM      9  C   UNL     1      -1.378   2.056   1.555  0.00  0.00    +0.062 A 
ATOM     10 CL   UNL     1      -0.918   1.550  -0.041  0.00  0.00    -0.082 Cl
ENDBRANCH   1   4
BRANCH   2  11
ATOM     11  C   UNL     1       1.515   3.877   1.945  0.00  0.00    +0.056 A 
ATOM     12  C   UNL     1       1.011   4.521   3.077  0.00  0.00    +0.014 A 
ATOM     13  C   UNL     1       0.742   5.872   3.035  0.00  0.00    +0.001 A 
ATOM     14  C   UNL     1       0.969   6.592   1.875  0.00  0.00    +0.001 A 
ATOM     15  C   UNL     1       1.468   5.962   0.750  0.00  0.00    +0.021 A 
ATOM     16  C   UNL     1       1.748   4.610   0.778  0.00  0.00    +0.053 A 
ATOM     17 CL   UNL     1       2.381   3.822  -0.633  0.00  0.00    -0.083 Cl
ENDBRANCH   2  11
BRANCH   1  18
ATOM     18  C   UNL     1       1.168   0.137   2.505  0.00  0.00    +0.190 C 
BRANCH  18  19
ATOM     19  C   UNL     1       1.037  -0.255   3.955  0.00  0.00    +0.238 C 
ATOM     20  O   UNL     1       0.709   0.571   4.779  0.00  0.00    -0.273 OA
ATOM     21  N   UNL     1       1.285  -1.524   4.335  0.00  0.00    -0.311 N 
ATOM     22  H   UNL     1       1.548  -2.185   3.675  0.00  0.00    +0.149 HD
BRANCH  21  23
ATOM     23  C   UNL     1       1.158  -1.905   5.743  0.00  0.00    +0.073 C 
ATOM     24  C   UNL     1       2.462  -1.586   6.478  0.00  0.00    +0.022 C 
ATOM     25  C   UNL     1       2.329  -1.984   7.949  0.00  0.00    +0.002 C 
ATOM     26  C   UNL     1       2.042  -3.483   8.048  0.00  0.00    +0.000 C 
ATOM     27  C   UNL     1       0.739  -3.803   7.314  0.00  0.00    +0.002 C 
ATOM     28  C   UNL     1       0.871  -3.405   5.842  0.00  0.00    +0.022 C 
ENDBRANCH  21  23
ENDBRANCH  18  19
BRANCH  18  31
ATOM     29  C   UNL     1       2.164  -1.642   0.557  0.00  0.00    +0.035 C 
ATOM     30  C   UNL     1       0.677  -1.468   0.732  0.00  0.00    -0.032 C 
ATOM     31  C   UNL     1       0.216  -0.685   1.675  0.00  0.00    +0.000 C 
ENDBRANCH  18  31
ENDBRANCH   1  18
TORSDOF 6
