REMARK  Name = ZINC48840651
REMARK  5 active torsions:
REMARK  status: ('A' for Active; 'I' for Inactive)
REMARK    1  A    between atoms: C_1  and  C_2
REMARK    2  A    between atoms: C_5  and  S_7
REMARK    3  A    between atoms: S_7  and  N_10
REMARK    4  A    between atoms: N_10  and  C_11
REMARK    5  A    between atoms: C_11  and  C_12
REMARK                            x       y       z     vdW  Elec       q    Type
REMARK                         _______ _______ _______ _____ _____    ______ ____
ROOT
ATOM      1  N   UNL     1       1.300  -4.748  -1.614  0.00  0.00    -0.185 NA
ATOM      2  H   UNL     1       0.759  -5.468  -1.974  0.00  0.00    +0.148 HD
ENDROOT
BRANCH   1   3
ATOM      3  S   UNL     1       1.134  -4.300  -0.029  0.00  0.00    +0.065 S 
ATOM      4  O   UNL     1       2.445  -4.240   0.516  0.00  0.00    -0.153 OA
ATOM      5  O   UNL     1       0.117  -5.126   0.522  0.00  0.00    -0.153 OA
BRANCH   3  10
ATOM      6  C   UNL     1      -0.018   1.503   0.010  0.00  0.00    +0.051 C 
ATOM      7  C   UNL     1       0.002  -0.004   0.002  0.00  0.00    -0.011 A 
ATOM      8  C   UNL     1      -1.039  -0.872   0.002  0.00  0.00    +0.013 A 
ATOM      9  C   UNL     1      -0.780  -2.230  -0.007  0.00  0.00    +0.036 A 
ATOM     10  C   UNL     1       0.507  -2.653  -0.016  0.00  0.00    +0.143 A 
ATOM     11  S   UNL     1       1.404  -1.109  -0.018  0.00  0.00    -0.074 S 
ENDBRANCH   3  10
ENDBRANCH   1   3
BRANCH   1  12
ATOM     12  C   UNL     1       2.266  -4.058  -2.473  0.00  0.00    +0.144 C 
BRANCH  12  13
ATOM     13  C   UNL     1       2.493  -4.867  -3.724  0.00  0.00    +0.013 A 
ATOM     14  C   UNL     1       3.612  -5.673  -3.833  0.00  0.00    +0.009 A 
ATOM     15  C   UNL     1       3.823  -6.416  -4.979  0.00  0.00    +0.004 A 
ATOM     16  C   UNL     1       2.917  -6.357  -6.022  0.00  0.00    +0.049 A 
ATOM     17  C   UNL     1       1.795  -5.551  -5.920  0.00  0.00    +0.167 A 
ATOM     18  C   UNL     1       1.579  -4.807  -4.763  0.00  0.00    +0.171 A 
ATOM     19  O   UNL     1       0.414  -4.109  -4.904  0.00  0.00    -0.452 OA
ATOM     20  C   UNL     1       0.128  -4.121  -6.315  0.00  0.00    +0.466 C 
ATOM     21  O   UNL     1       0.767  -5.318  -6.787  0.00  0.00    -0.453 OA
ENDBRANCH  12  13
ENDBRANCH   1  12
TORSDOF 4
