REMARK  Name = ZINC63280737
REMARK  3 active torsions:
REMARK  status: ('A' for Active; 'I' for Inactive)
REMARK    1  A    between atoms: C_6  and  C_11
REMARK    2  A    between atoms: C_19  and  C_21
REMARK    3  A    between atoms: C_21  and  C_22
REMARK                            x       y       z     vdW  Elec       q    Type
REMARK                         _______ _______ _______ _____ _____    ______ ____
ROOT
ATOM      1  C   UNL     1       3.664  -2.775   1.204  0.00  0.00    +0.202 C 
ATOM      2  N   UNL     1       3.011  -2.235   2.421  0.00  0.00    -0.231 NA
ATOM      3  N   UNL     1       2.380  -3.380   3.101  0.00  0.00    -0.224 NA
ATOM      4  C   UNL     1       3.173  -4.527   2.618  0.00  0.00    +0.240 C 
ATOM      5  N   UNL     1       3.294  -4.208   1.157  0.00  0.00    -0.206 N 
ATOM      6  N   UNL     1       2.954  -5.256   0.330  0.00  0.00    -0.178 NA
ATOM      7  C   UNL     1       2.329  -6.310   0.742  0.00  0.00    +0.099 C 
ATOM      8  S   UNL     1       2.169  -6.056   2.537  0.00  0.00    -0.067 S 
ATOM      9  H   UNL     1       2.326  -1.534   2.182  0.00  0.00    +0.143 HD
ATOM     10  H   UNL     1       2.450  -3.288   4.103  0.00  0.00    +0.144 HD
ENDROOT
BRANCH   1  16
ATOM     11  C   UNL     1      -0.016   1.348   0.009  0.00  0.00    +0.001 A 
ATOM     12  C   UNL     1       1.166   2.101   0.002  0.00  0.00    +0.002 A 
ATOM     13  C   UNL     1       2.391   1.535  -0.013  0.00  0.00    +0.026 A 
ATOM     14  C   UNL     1       2.529   0.120  -0.022  0.00  0.00    +0.043 A 
ATOM     15  N   UNL     1       3.587  -0.654  -0.037  0.00  0.00    -0.375 N 
ATOM     16  C   UNL     1       3.143  -2.053  -0.041  0.00  0.00    +0.141 C 
ATOM     17  C   UNL     1       1.631  -2.008  -0.025  0.00  0.00    +0.010 C 
ATOM     18  C   UNL     1       1.295  -0.698  -0.014  0.00  0.00    -0.004 A 
ATOM     19  C   UNL     1       0.002  -0.004   0.002  0.00  0.00    +0.010 A 
ATOM     20  H   UNL     1       4.509  -0.353  -0.045  0.00  0.00    +0.160 HD
ENDBRANCH   1  16
BRANCH   7  21
ATOM     21  C   UNL     1       1.850  -7.483  -0.073  0.00  0.00    +0.099 C 
BRANCH  21  22
ATOM     22  C   UNL     1       2.210  -7.269  -1.521  0.00  0.00    -0.041 A 
ATOM     23  C   UNL     1       1.329  -6.614  -2.362  0.00  0.00    +0.005 A 
ATOM     24  C   UNL     1       1.659  -6.418  -3.690  0.00  0.00    +0.020 A 
ATOM     25  C   UNL     1       2.870  -6.876  -4.178  0.00  0.00    +0.041 A 
ATOM     26  C   UNL     1       3.750  -7.532  -3.335  0.00  0.00    +0.020 A 
ATOM     27  C   UNL     1       3.422  -7.723  -2.006  0.00  0.00    +0.005 A 
ATOM     28 CL   UNL     1       3.284  -6.630  -5.845  0.00  0.00    -0.084 Cl
ENDBRANCH  21  22
ENDBRANCH   7  21
TORSDOF 3
