REMARK  Name = ZINC08916610
REMARK  8 active torsions:
REMARK  status: ('A' for Active; 'I' for Inactive)
REMARK    1  A    between atoms: C_1  and  C_2
REMARK    2  A    between atoms: C_8  and  C_31
REMARK    3  A    between atoms: C_14  and  C_16
REMARK    4  A    between atoms: C_19  and  O_24
REMARK    5  A    between atoms: C_20  and  O_22
REMARK    6  A    between atoms: O_22  and  C_23
REMARK    7  A    between atoms: O_24  and  C_25
REMARK    8  A    between atoms: C_31  and  C_33
REMARK                            x       y       z     vdW  Elec       q    Type
REMARK                         _______ _______ _______ _____ _____    ______ ____
ROOT
ATOM      1  C   UNL     1      -8.990   1.404  -1.147  0.00  0.00    +0.110 C 
ATOM      2  C   UNL     1      -8.669   0.799   0.195  0.00  0.00    +0.218 C 
ATOM      3  O   UNL     1      -9.265   1.168   1.185  0.00  0.00    -0.276 OA
ATOM      4  N   UNL     1      -7.721  -0.153   0.296  0.00  0.00    -0.258 N 
ATOM      5  C   UNL     1      -7.045  -0.568  -0.847  0.00  0.00    +0.058 A 
ATOM      6  C   UNL     1      -6.171   0.280  -1.516  0.00  0.00    +0.026 A 
ATOM      7  C   UNL     1      -5.439  -0.199  -2.581  0.00  0.00    +0.013 A 
ATOM      8  C   UNL     1      -5.575  -1.530  -2.989  0.00  0.00    +0.024 A 
ATOM      9  C   UNL     1      -6.473  -2.376  -2.327  0.00  0.00    +0.036 A 
ATOM     10  C   UNL     1      -7.213  -1.881  -1.272  0.00  0.00    +0.054 A 
ATOM     11  N   UNL     1      -8.152  -2.653  -0.600  0.00  0.00    -0.316 N 
ATOM     12  C   UNL     1      -8.061  -3.021   0.703  0.00  0.00    +0.017 C 
ATOM     13  C   UNL     1      -7.750  -2.195   1.715  0.00  0.00    +0.037 C 
ATOM     14  C   UNL     1      -7.424  -0.726   1.592  0.00  0.00    +0.147 C 
ATOM     15  C   UNL     1      -7.708  -2.680   3.044  0.00  0.00    +0.163 C 
ATOM     16  O   UNL     1      -7.411  -1.913   3.938  0.00  0.00    -0.292 OA
ATOM     17  C   UNL     1      -8.018  -4.106   3.389  0.00  0.00    +0.080 C 
ATOM     18  C   UNL     1      -8.982  -4.666   2.337  0.00  0.00    +0.014 C 
ATOM     19  C   UNL     1      -8.328  -4.494   0.967  0.00  0.00    +0.051 C 
ATOM     20  H   UNL     1      -8.929  -2.951  -1.099  0.00  0.00    +0.152 HD
ENDROOT
BRANCH  14  21
ATOM     21  C   UNL     1      -5.955  -0.537   1.872  0.00  0.00    -0.018 A 
ATOM     22  C   UNL     1      -5.014  -1.115   1.041  0.00  0.00    +0.009 A 
ATOM     23  C   UNL     1      -3.666  -0.940   1.291  0.00  0.00    +0.050 A 
ATOM     24  C   UNL     1      -3.255  -0.193   2.383  0.00  0.00    +0.162 A 
ATOM     25  C   UNL     1      -4.202   0.389   3.220  0.00  0.00    +0.162 A 
ATOM     26  C   UNL     1      -5.552   0.215   2.960  0.00  0.00    +0.055 A 
BRANCH  25  27
ATOM     27  O   UNL     1      -3.804   1.128   4.290  0.00  0.00    -0.491 OA
ATOM     28  C   UNL     1      -4.831   1.696   5.105  0.00  0.00    +0.277 C 
ENDBRANCH  25  27
BRANCH  24  29
ATOM     29  O   UNL     1      -1.929  -0.024   2.633  0.00  0.00    -0.491 OA
ATOM     30  C   UNL     1      -1.014  -0.651   1.732  0.00  0.00    +0.277 C 
ENDBRANCH  24  29
ENDBRANCH  14  21
BRANCH   8  31
ATOM     31  C   UNL     1      -4.773  -2.042  -4.116  0.00  0.00    +0.193 C 
ATOM     32  O   UNL     1      -4.534  -1.324  -5.068  0.00  0.00    -0.287 OA
BRANCH  31  33
ATOM     33  C   UNL     1      -4.261  -3.428  -4.089  0.00  0.00    +0.022 A 
ATOM     34  C   UNL     1      -4.395  -4.203  -2.935  0.00  0.00    +0.012 A 
ATOM     35  C   UNL     1      -3.919  -5.498  -2.919  0.00  0.00    +0.001 A 
ATOM     36  C   UNL     1      -3.301  -6.025  -4.039  0.00  0.00    +0.000 A 
ATOM     37  C   UNL     1      -3.160  -5.261  -5.184  0.00  0.00    +0.001 A 
ATOM     38  C   UNL     1      -3.636  -3.967  -5.216  0.00  0.00    +0.012 A 
ENDBRANCH  31  33
ENDBRANCH   8  31
TORSDOF 5
