REMARK  Name = ZINC21463478
REMARK  9 active torsions:
REMARK  status: ('A' for Active; 'I' for Inactive)
REMARK    1  A    between atoms: C_1  and  C_2
REMARK    2  A    between atoms: C_2  and  C_4
REMARK    3  A    between atoms: C_2  and  S_17
REMARK    4  A    between atoms: N_6  and  C_7
REMARK    5  A    between atoms: C_10  and  N_14
REMARK    6  A    between atoms: S_17  and  C_18
REMARK    7  A    between atoms: N_28  and  C_29
REMARK    8  A    between atoms: C_29  and  C_30
REMARK    9  A    between atoms: C_29  and  C_31
REMARK                            x       y       z     vdW  Elec       q    Type
REMARK                         _______ _______ _______ _____ _____    ______ ____
ROOT
ATOM      1  C   UNL     1      -0.026   1.508  -0.005  0.00  0.00    +0.029 C 
ATOM      2  C   UNL     1       0.002  -0.021  -0.004  0.00  0.00    +0.137 C 
ENDROOT
BRANCH   2   3
ATOM      3  C   UNL     1       0.731  -0.509   1.221  0.00  0.00    +0.230 C 
ATOM      4  O   UNL     1       0.105  -0.894   2.186  0.00  0.00    -0.274 OA
ATOM      5  N   UNL     1       2.079  -0.519   1.244  0.00  0.00    -0.283 N 
ATOM      6  H   UNL     1       2.579  -0.273   0.450  0.00  0.00    +0.155 HD
BRANCH   5   7
ATOM      7  C   UNL     1       2.756  -0.883   2.413  0.00  0.00    +0.052 A 
ATOM      8  C   UNL     1       2.227  -1.857   3.249  0.00  0.00    +0.027 A 
ATOM      9  C   UNL     1       2.898  -2.215   4.402  0.00  0.00    +0.034 A 
ATOM     10  C   UNL     1       4.096  -1.603   4.725  0.00  0.00    +0.128 A 
ATOM     11  C   UNL     1       4.626  -0.632   3.896  0.00  0.00    +0.054 A 
ATOM     12  C   UNL     1       3.962  -0.274   2.738  0.00  0.00    +0.064 A 
ATOM     13 CL   UNL     1       4.632   0.940   1.693  0.00  0.00    -0.082 Cl
BRANCH  10  14
ATOM     14  N   UNL     1       4.812  -1.989   5.962  0.00  0.00    +0.056 N 
ATOM     15  O   UNL     1       4.349  -2.837   6.689  0.00  0.00    -0.126 OA
ATOM     16  O   UNL     1       5.859  -1.455   6.246  0.00  0.00    -0.126 OA
ENDBRANCH  10  14
ENDBRANCH   5   7
ENDBRANCH   2   3
BRANCH   2  17
ATOM     17  S   UNL     1      -1.698  -0.657   0.011  0.00  0.00    -0.075 S 
BRANCH  17  18
ATOM     18  C   UNL     1      -2.363  -0.131  -1.534  0.00  0.00    +0.173 A 
ATOM     19  N   UNL     1      -1.593   0.553  -2.345  0.00  0.00    -0.223 NA
ATOM     20  C   UNL     1      -2.041   0.987  -3.547  0.00  0.00    +0.080 A 
ATOM     21  C   UNL     1      -1.221   1.715  -4.414  0.00  0.00    +0.048 A 
ATOM     22  C   UNL     1      -1.720   2.136  -5.627  0.00  0.00    +0.043 A 
ATOM     23  C   UNL     1      -3.028   1.844  -5.998  0.00  0.00    +0.021 A 
ATOM     24  C   UNL     1      -3.848   1.133  -5.168  0.00  0.00    +0.017 A 
ATOM     25  C   UNL     1      -3.369   0.695  -3.934  0.00  0.00    +0.065 A 
ATOM     26  C   UNL     1      -4.209  -0.073  -3.005  0.00  0.00    +0.263 A 
ATOM     27  O   UNL     1      -5.360  -0.355  -3.281  0.00  0.00    -0.267 OA
ATOM     28  N   UNL     1      -3.654  -0.459  -1.833  0.00  0.00    -0.285 N 
ATOM     29 CL   UNL     1      -0.704   3.041  -6.705  0.00  0.00    -0.083 Cl
BRANCH  28  30
ATOM     30  C   UNL     1      -4.447  -1.232  -0.873  0.00  0.00    +0.087 C 
ATOM     31  C   UNL     1      -5.678  -0.422  -0.461  0.00  0.00    +0.031 C 
ATOM     32  C   UNL     1      -4.894  -2.544  -1.521  0.00  0.00    +0.031 C 
ENDBRANCH  28  30
ENDBRANCH  17  18
ENDBRANCH   2  17
TORSDOF 6
