REMARK  Name = ZINC38775889
REMARK  9 active torsions:
REMARK  status: ('A' for Active; 'I' for Inactive)
REMARK    1  A    between atoms: C_1  and  O_2
REMARK    2  A    between atoms: O_2  and  C_3
REMARK    3  A    between atoms: C_6  and  O_9
REMARK    4  A    between atoms: O_9  and  C_10
REMARK    5  A    between atoms: C_14  and  C_16
REMARK    6  A    between atoms: C_19  and  O_23
REMARK    7  A    between atoms: C_21  and  O_22
REMARK    8  A    between atoms: O_23  and  C_24
REMARK    9  A    between atoms: C_24  and  C_25
REMARK                            x       y       z     vdW  Elec       q    Type
REMARK                         _______ _______ _______ _____ _____    ______ ____
ROOT
ATOM      1  C   UNL     1      -6.685  -4.820  -1.220  0.00  0.00    +0.025 A 
ATOM      2  C   UNL     1      -6.460  -5.715  -2.249  0.00  0.00    +0.013 A 
ATOM      3  C   UNL     1      -7.186  -5.621  -3.420  0.00  0.00    +0.046 A 
ATOM      4  C   UNL     1      -8.144  -4.627  -3.567  0.00  0.00    +0.124 A 
ATOM      5  C   UNL     1      -8.371  -3.728  -2.537  0.00  0.00    +0.091 A 
ATOM      6  C   UNL     1      -7.645  -3.828  -1.360  0.00  0.00    +0.126 A 
ENDROOT
BRANCH   1  11
ATOM      7  C   UNL     1      -4.763  -3.908   0.074  0.00  0.00    +0.153 C 
ATOM      8  C   UNL     1      -3.651  -4.667   0.144  0.00  0.00    +0.176 C 
ATOM      9  N   UNL     1      -3.965  -5.968   0.165  0.00  0.00    -0.182 NA
ATOM     10  N   UNL     1      -5.173  -6.210   0.117  0.00  0.00    -0.294 N 
ATOM     11  C   UNL     1      -5.891  -4.925   0.056  0.00  0.00    +0.199 C 
ATOM     12  H   UNL     1      -5.579  -7.091   0.122  0.00  0.00    +0.184 HD
BRANCH   7  13
ATOM     13  O   UNL     1      -4.853  -2.562   0.034  0.00  0.00    -0.456 OA
BRANCH  13  17
ATOM     14  C   UNL     1      -6.537  -0.635   3.272  0.00  0.00    +0.120 A 
ATOM     15  C   UNL     1      -6.320  -2.005   3.316  0.00  0.00    +0.049 A 
ATOM     16  C   UNL     1      -5.757  -2.649   2.232  0.00  0.00    +0.050 A 
ATOM     17  C   UNL     1      -5.408  -1.927   1.100  0.00  0.00    +0.128 A 
ATOM     18  C   UNL     1      -5.625  -0.557   1.057  0.00  0.00    +0.050 A 
ATOM     19  C   UNL     1      -6.193   0.086   2.139  0.00  0.00    +0.049 A 
BRANCH  14  21
ATOM     20  C   UNL     1      -7.422  -0.805   5.473  0.00  0.00    +0.277 C 
ATOM     21  O   UNL     1      -7.092  -0.001   4.339  0.00  0.00    -0.495 OA
ENDBRANCH  14  21
ENDBRANCH  13  17
ENDBRANCH   7  13
ENDBRANCH   1  11
BRANCH   6  22
ATOM     22  O   UNL     1      -7.870  -2.952  -0.346  0.00  0.00    -0.506 OA
ATOM     23  H   UNL     1      -7.324  -2.154  -0.387  0.00  0.00    +0.292 HD
ENDBRANCH   6  22
BRANCH   4  24
ATOM     24  O   UNL     1      -8.858  -4.535  -4.720  0.00  0.00    -0.487 OA
BRANCH  24  25
ATOM     25  C   UNL     1      -8.570  -5.495  -5.739  0.00  0.00    +0.266 C 
BRANCH  25  26
ATOM     26  C   UNL     1      -9.452  -5.238  -6.934  0.00  0.00    +0.008 A 
ATOM     27  C   UNL     1     -10.356  -4.192  -6.913  0.00  0.00    +0.011 A 
ATOM     28  C   UNL     1     -11.165  -3.955  -8.008  0.00  0.00    +0.039 A 
ATOM     29  C   UNL     1     -11.072  -4.766  -9.126  0.00  0.00    +0.125 A 
ATOM     30  C   UNL     1     -10.167  -5.813  -9.147  0.00  0.00    +0.058 A 
ATOM     31  C   UNL     1      -9.354  -6.046  -8.052  0.00  0.00    +0.050 A 
ATOM     32 CL   UNL     1      -8.214  -7.355  -8.080  0.00  0.00    -0.083 Cl
ATOM     33  F   UNL     1     -11.863  -4.536 -10.197  0.00  0.00    -0.205 F 
ENDBRANCH  25  26
ENDBRANCH  24  25
ENDBRANCH   4  24
TORSDOF 8
