REMARK  Name = ZINC09358255
REMARK  4 active torsions:
REMARK  status: ('A' for Active; 'I' for Inactive)
REMARK    1  A    between atoms: C_4  and  N_7
REMARK    2  A    between atoms: C_22  and  C_28
REMARK    3  A    between atoms: N_30  and  C_31
REMARK    4  A    between atoms: C_33  and  N_38
REMARK                            x       y       z     vdW  Elec       q    Type
REMARK                         _______ _______ _______ _____ _____    ______ ____
ROOT
ATOM      1  N   UNL     1       2.254   5.848  -3.380  0.00  0.00    -0.210 N 
ATOM      2  C   UNL     1       3.492   6.345  -3.059  0.00  0.00    +0.232 C 
ATOM      3  O   UNL     1       4.295   6.864  -3.805  0.00  0.00    -0.274 OA
ATOM      4  C   UNL     1       3.636   6.136  -1.629  0.00  0.00    +0.113 C 
ATOM      5  C   UNL     1       4.396   6.663  -0.482  0.00  0.00    +0.100 C 
ATOM      6  C   UNL     1       5.781   6.077  -0.346  0.00  0.00    -0.021 A 
ATOM      7  C   UNL     1       6.558   5.859  -1.463  0.00  0.00    +0.006 A 
ATOM      8  C   UNL     1       7.832   5.334  -1.329  0.00  0.00    +0.000 A 
ATOM      9  C   UNL     1       8.332   5.028  -0.076  0.00  0.00    +0.001 A 
ATOM     10  C   UNL     1       7.561   5.236   1.049  0.00  0.00    +0.008 A 
ATOM     11  C   UNL     1       6.271   5.757   0.922  0.00  0.00    -0.019 A 
ATOM     12  C   UNL     1       5.439   5.953   2.126  0.00  0.00    +0.022 C 
ATOM     13  C   UNL     1       4.117   6.164   1.985  0.00  0.00    +0.054 C 
ATOM     14  C   UNL     1       2.297   5.675   0.225  0.00  0.00    +0.156 C 
ATOM     15  C   UNL     1       2.143   6.322  -1.148  0.00  0.00    +0.118 C 
ATOM     16  C   UNL     1       1.485   5.596  -2.279  0.00  0.00    +0.232 C 
ATOM     17  O   UNL     1       0.478   4.924  -2.228  0.00  0.00    -0.274 OA
ATOM     18  N   UNL     1       3.489   6.515   0.643  0.00  0.00    -0.383 NA
ATOM     19  H   UNL     1       3.111   7.458   0.791  0.00  0.00    +0.127 HD
ENDROOT
BRANCH   1  23
ATOM     20  C   UNL     1       0.978   5.174  -7.291  0.00  0.00    +0.000 A 
ATOM     21  C   UNL     1       0.135   4.893  -6.232  0.00  0.00    +0.002 A 
ATOM     22  C   UNL     1       0.555   5.115  -4.935  0.00  0.00    +0.024 A 
ATOM     23  C   UNL     1       1.825   5.621  -4.696  0.00  0.00    +0.044 A 
ATOM     24  C   UNL     1       2.667   5.908  -5.761  0.00  0.00    +0.024 A 
ATOM     25  C   UNL     1       2.244   5.678  -7.056  0.00  0.00    +0.002 A 
ENDBRANCH   1  23
BRANCH  14  26
ATOM     26  C   UNL     1       2.320   4.173   0.104  0.00  0.00    +0.237 C 
ATOM     27  O   UNL     1       3.378   3.581   0.091  0.00  0.00    -0.273 OA
ATOM     28  N   UNL     1       1.163   3.487   0.009  0.00  0.00    -0.283 N 
ATOM     29  H   UNL     1       0.320   3.963  -0.046  0.00  0.00    +0.155 HD
BRANCH  28  30
ATOM     30  C   UNL     1       1.179   2.087  -0.010  0.00  0.00    +0.054 A 
ATOM     31  C   UNL     1       2.222   1.411  -0.629  0.00  0.00    +0.057 A 
ATOM     32  C   UNL     1       2.235   0.030  -0.645  0.00  0.00    +0.128 A 
ATOM     33  C   UNL     1       1.210  -0.680  -0.047  0.00  0.00    +0.034 A 
ATOM     34  C   UNL     1       0.170  -0.011   0.570  0.00  0.00    +0.024 A 
ATOM     35  C   UNL     1       0.151   1.371   0.591  0.00  0.00    +0.062 A 
ATOM     36 CL   UNL     1      -1.159   2.211   1.361  0.00  0.00    -0.082 Cl
BRANCH  32  37
ATOM     37  N   UNL     1       3.347  -0.690  -1.305  0.00  0.00    +0.056 N 
ATOM     38  O   UNL     1       3.359  -1.908  -1.320  0.00  0.00    -0.126 OA
ATOM     39  O   UNL     1       4.250  -0.065  -1.832  0.00  0.00    -0.126 OA
ENDBRANCH  32  37
ENDBRANCH  28  30
ENDBRANCH  14  26
TORSDOF 4
