REMARK  Name = ZINC35585738
REMARK  6 active torsions:
REMARK  status: ('A' for Active; 'I' for Inactive)
REMARK    1  A    between atoms: C_1  and  C_2
REMARK    2  A    between atoms: C_3  and  O_27
REMARK    3  A    between atoms: C_5  and  C_21
REMARK    4  A    between atoms: C_9  and  C_13
REMARK    5  A    between atoms: C_15  and  O_20
REMARK    6  A    between atoms: C_16  and  O_19
REMARK                            x       y       z     vdW  Elec       q    Type
REMARK                         _______ _______ _______ _____ _____    ______ ____
ROOT
ATOM      1  C   UNL     1      -0.019   1.526   0.010  0.00  0.00    +0.013 C 
ATOM      2  C   UNL     1       0.002  -0.004   0.002  0.00  0.00    -0.007 C 
ATOM      3  C   UNL     1       0.722  -0.513  -1.253  0.00  0.00    +0.130 C 
ATOM      4  C   UNL     1       0.720  -2.047  -1.224  0.00  0.00    +0.020 C 
ATOM      5  C   UNL     1       1.425  -2.515   0.054  0.00  0.00    -0.061 C 
ATOM      6  N   UNL     1       0.707  -2.006   1.227  0.00  0.00    +0.394 N 
ATOM      7  C   UNL     1       0.741  -0.526   1.239  0.00  0.00    -0.066 C 
ATOM      8  C   UNL     1      -0.676  -2.492   1.226  0.00  0.00    +0.033 C 
ATOM      9  N   UNL     1      -1.379  -2.019   0.026  0.00  0.00    -0.310 NA
ATOM     10  C   UNL     1      -1.431  -0.549   0.018  0.00  0.00    +0.090 C 
ATOM     11  C   UNL     1      -0.733  -2.536  -1.190  0.00  0.00    +0.095 C 
ATOM     12  H   UNL     1       1.161  -2.347   2.061  0.00  0.00    -0.079 HD
ENDROOT
BRANCH   8  13
ATOM     13  C   UNL     1      -0.677  -3.999   1.244  0.00  0.00    -0.044 A 
ATOM     14  C   UNL     1      -1.709  -4.696   0.644  0.00  0.00    +0.052 A 
ATOM     15  C   UNL     1      -1.711  -6.081   0.659  0.00  0.00    +0.158 A 
ATOM     16  C   UNL     1      -0.672  -6.768   1.280  0.00  0.00    +0.158 A 
ATOM     17  C   UNL     1       0.359  -6.064   1.880  0.00  0.00    +0.049 A 
ATOM     18  C   UNL     1       0.358  -4.681   1.856  0.00  0.00    +0.007 A 
BRANCH  16  19
ATOM     19  O   UNL     1      -0.670  -8.128   1.298  0.00  0.00    -0.503 OA
ATOM     20  H   UNL     1      -0.221  -8.531   0.542  0.00  0.00    +0.292 HD
ENDBRANCH  16  19
BRANCH  15  21
ATOM     21  O   UNL     1      -2.726  -6.767   0.070  0.00  0.00    -0.503 OA
ATOM     22  H   UNL     1      -2.571  -6.975  -0.862  0.00  0.00    +0.292 HD
ENDBRANCH  15  21
ENDBRANCH   8  13
BRANCH   4  23
ATOM     23  C   UNL     1       1.419  -2.588  -2.444  0.00  0.00    -0.039 A 
ATOM     24  C   UNL     1       1.950  -1.719  -3.379  0.00  0.00    +0.004 A 
ATOM     25  C   UNL     1       2.591  -2.215  -4.499  0.00  0.00    +0.000 A 
ATOM     26  C   UNL     1       2.703  -3.580  -4.683  0.00  0.00    +0.000 A 
ATOM     27  C   UNL     1       2.173  -4.450  -3.748  0.00  0.00    +0.000 A 
ATOM     28  C   UNL     1       1.536  -3.953  -2.626  0.00  0.00    +0.004 A 
ENDBRANCH   4  23
BRANCH   3  29
ATOM     29  O   UNL     1       0.039  -0.052  -2.421  0.00  0.00    -0.390 OA
ATOM     30  H   UNL     1      -0.011   0.911  -2.493  0.00  0.00    +0.210 HD
ENDBRANCH   3  29
TORSDOF 5
