REMARK  Name = ZINC20616988
REMARK  13 active torsions:
REMARK  status: ('A' for Active; 'I' for Inactive)
REMARK    1  A    between atoms: C_1  and  C_2
REMARK    2  A    between atoms: C_2  and  O_3
REMARK    3  A    between atoms: O_3  and  C_4
REMARK    4  A    between atoms: C_4  and  C_6
REMARK    5  A    between atoms: C_9  and  N_12
REMARK    6  A    between atoms: C_14  and  C_29
REMARK    7  A    between atoms: C_17  and  C_24
REMARK    8  A    between atoms: C_20  and  C_23
REMARK    9  A    between atoms: C_24  and  O_25
REMARK   10  A    between atoms: O_25  and  C_26
REMARK   11  A    between atoms: C_26  and  C_28
REMARK   12  A    between atoms: N_31  and  C_32
REMARK   13  A    between atoms: C_37  and  C_38
REMARK                            x       y       z     vdW  Elec       q    Type
REMARK                         _______ _______ _______ _____ _____    ______ ____
ROOT
ATOM      1  N   UNL     1       1.202   3.418   0.035  0.00  0.00    -0.325 N 
ATOM      2  C   UNL     1       2.329   4.093   0.134  0.00  0.00    +0.212 A 
ATOM      3  C   UNL     1       2.323   5.565   0.241  0.00  0.00    +0.098 A 
ATOM      4  C   UNL     1       3.402   6.154   0.892  0.00  0.00    +0.030 A 
ATOM      5  C   UNL     1       4.447   5.262   1.398  0.00  0.00    +0.028 A 
ATOM      6  C   UNL     1       5.435   5.710   2.283  0.00  0.00    +0.018 A 
ATOM      7  C   UNL     1       6.384   4.810   2.720  0.00  0.00    +0.118 A 
ATOM      8  N   UNL     1       6.369   3.552   2.320  0.00  0.00    -0.256 NA
ATOM      9  C   UNL     1       5.462   3.082   1.489  0.00  0.00    +0.081 A 
ATOM     10  C   UNL     1       4.466   3.913   0.993  0.00  0.00    +0.159 A 
ATOM     11  O   UNL     1       3.526   3.455   0.135  0.00  0.00    -0.437 OA
ATOM     12  C   UNL     1       5.504   1.634   1.073  0.00  0.00    +0.069 C 
ATOM     13  H   UNL     1       0.245   3.954  -0.048  0.00  0.00    +0.169 HD
ENDROOT
BRANCH   1  17
ATOM     14  C   UNL     1       1.262  -0.708   0.032  0.00  0.00    +0.059 A 
ATOM     15  C   UNL     1       1.252  -0.009   1.245  0.00  0.00    +0.017 A 
ATOM     16  C   UNL     1       1.232   1.355   1.246  0.00  0.00    +0.026 A 
ATOM     17  C   UNL     1       1.222   2.056   0.034  0.00  0.00    +0.042 A 
ATOM     18  C   UNL     1       1.232   1.356  -1.179  0.00  0.00    +0.026 A 
ATOM     19  C   UNL     1       1.252  -0.008  -1.180  0.00  0.00    +0.017 A 
BRANCH  14  20
ATOM     20  C   UNL     1       1.284  -2.180   0.032  0.00  0.00    +0.339 C 
ATOM     21  O   UNL     1       1.293  -2.789   1.084  0.00  0.00    -0.245 OA
BRANCH  20  22
ATOM     22  O   UNL     1       1.293  -2.854  -1.136  0.00  0.00    -0.461 OA
BRANCH  22  24
ATOM     23  C   UNL     1       1.323  -4.888  -2.475  0.00  0.00    +0.048 C 
ATOM     24  C   UNL     1       1.315  -4.304  -1.061  0.00  0.00    +0.229 C 
ENDBRANCH  22  24
ENDBRANCH  20  22
ENDBRANCH  14  20
ENDBRANCH   1  17
BRANCH   3  25
ATOM     25  C   UNL     1       1.222   6.373  -0.313  0.00  0.00    +0.253 C 
ATOM     26  O   UNL     1       1.244   7.584  -0.209  0.00  0.00    -0.270 OA
ATOM     27  N   UNL     1       0.189   5.768  -0.934  0.00  0.00    -0.281 N 
ATOM     28  H   UNL     1       0.132   4.670  -0.964  0.00  0.00    +0.155 HD
BRANCH  27  29
ATOM     29  C   UNL     1      -0.808   6.537  -1.541  0.00  0.00    +0.037 A 
ATOM     30  C   UNL     1      -1.193   7.748  -0.979  0.00  0.00    +0.023 A 
ATOM     31  C   UNL     1      -2.179   8.505  -1.581  0.00  0.00    +0.002 A 
ATOM     32  C   UNL     1      -2.782   8.059  -2.743  0.00  0.00    +0.000 A 
ATOM     33  C   UNL     1      -2.402   6.854  -3.305  0.00  0.00    +0.005 A 
ATOM     34  C   UNL     1      -1.413   6.095  -2.710  0.00  0.00    -0.029 A 
ATOM     35  C   UNL     1      -0.995   4.785  -3.327  0.00  0.00    +0.045 C 
ENDBRANCH  27  29
ENDBRANCH   3  25
BRANCH   6  36
ATOM     36  C   UNL     1       5.462   7.144   2.746  0.00  0.00    +0.269 C 
BRANCH  36  37
ATOM     37  O   UNL     1       6.580   7.340   3.651  0.00  0.00    -0.460 OA
BRANCH  37  38
ATOM     38  C   UNL     1       6.746   8.572   4.156  0.00  0.00    +0.304 C 
ATOM     39  O   UNL     1       5.982   9.458   3.853  0.00  0.00    -0.251 OA
ATOM     40  C   UNL     1       7.886   8.851   5.103  0.00  0.00    +0.136 C 
ENDBRANCH  37  38
ENDBRANCH  36  37
ENDBRANCH   6  36
TORSDOF 9
