REMARK  Name = ZINC60384731
REMARK  10 active torsions:
REMARK  status: ('A' for Active; 'I' for Inactive)
REMARK    1  A    between atoms: C_1  and  C_2
REMARK    2  A    between atoms: C_2  and  C_3
REMARK    3  A    between atoms: C_2  and  C_4
REMARK    4  A    between atoms: C_2  and  C_5
REMARK    5  A    between atoms: C_8  and  C_11
REMARK    6  A    between atoms: C_11  and  C_13
REMARK    7  A    between atoms: C_13  and  S_14
REMARK    8  A    between atoms: S_14  and  C_15
REMARK    9  A    between atoms: N_21  and  C_22
REMARK   10  A    between atoms: C_22  and  C_23
REMARK                            x       y       z     vdW  Elec       q    Type
REMARK                         _______ _______ _______ _____ _____    ______ ____
ROOT
ATOM      1  S   UNL     1       4.690  -2.214  -6.535  0.00  0.00    -0.078 S 
ENDROOT
BRANCH   1   2
ATOM      2  C   UNL     1       6.365  -1.685  -6.679  0.00  0.00    +0.193 A 
ATOM      3  N   UNL     1       7.002  -0.941  -5.822  0.00  0.00    -0.145 NA
ATOM      4  N   UNL     1       8.305  -0.747  -6.301  0.00  0.00    -0.226 N 
ATOM      5  H   UNL     1       9.005  -0.233  -5.868  0.00  0.00    +0.194 HD
ATOM      6  C   UNL     1       8.407  -1.406  -7.473  0.00  0.00    +0.345 A 
ATOM      7  O   UNL     1       9.396  -1.465  -8.182  0.00  0.00    -0.245 OA
ATOM      8  N   UNL     1       7.218  -1.994  -7.714  0.00  0.00    -0.268 N 
BRANCH   8   9
ATOM      9  C   UNL     1       6.889  -2.817  -8.880  0.00  0.00    +0.160 C 
BRANCH   9  10
ATOM     10  C   UNL     1       6.341  -1.925  -9.996  0.00  0.00    +0.138 C 
ATOM     11  C   UNL     1       5.954  -2.781 -11.228  0.00  0.00    +0.035 C 
ATOM     12  C   UNL     1       4.892  -1.869 -11.899  0.00  0.00    +0.031 C 
ATOM     13  C   UNL     1       4.212  -1.207 -10.682  0.00  0.00    +0.160 C 
ATOM     14  O   UNL     1       5.121  -1.295  -9.576  0.00  0.00    -0.375 OA
ENDBRANCH   9  10
ENDBRANCH   8   9
ENDBRANCH   1   2
BRANCH   1  15
ATOM     15  C   UNL     1       4.130  -1.479  -4.974  0.00  0.00    +0.157 C 
BRANCH  15  16
ATOM     16  C   UNL     1       2.693  -1.859  -4.727  0.00  0.00    +0.173 C 
ATOM     17  O   UNL     1       2.105  -2.557  -5.526  0.00  0.00    -0.291 OA
BRANCH  16  21
ATOM     18  C   UNL     1       0.707  -0.490  -1.238  0.00  0.00    -0.042 A 
ATOM     19  C   UNL     1       0.032  -1.285  -2.147  0.00  0.00    +0.005 A 
ATOM     20  C   UNL     1       0.670  -1.734  -3.284  0.00  0.00    +0.011 A 
ATOM     21  C   UNL     1       2.004  -1.384  -3.517  0.00  0.00    +0.018 A 
ATOM     22  C   UNL     1       2.680  -0.580  -2.593  0.00  0.00    +0.011 A 
ATOM     23  C   UNL     1       2.026  -0.134  -1.464  0.00  0.00    +0.005 A 
BRANCH  18  25
ATOM     24  C   UNL     1      -0.019   1.526   0.010  0.00  0.00    +0.015 C 
ATOM     25  C   UNL     1       0.002  -0.004   0.002  0.00  0.00    -0.013 C 
ATOM     26  C   UNL     1       0.742  -0.511   1.242  0.00  0.00    +0.015 C 
ATOM     27  C   UNL     1      -1.433  -0.534   0.013  0.00  0.00    +0.015 C 
ENDBRANCH  18  25
ENDBRANCH  16  21
ENDBRANCH  15  16
ENDBRANCH   1  15
TORSDOF 7
