REMARK  Name = ZINC36570931
REMARK  14 active torsions:
REMARK  status: ('A' for Active; 'I' for Inactive)
REMARK    1  A    between atoms: C_1  and  C_2
REMARK    2  A    between atoms: C_2  and  C_3
REMARK    3  A    between atoms: C_3  and  N_4
REMARK    4  A    between atoms: N_4  and  C_5
REMARK    5  A    between atoms: C_5  and  C_7
REMARK    6  A    between atoms: C_5  and  C_14
REMARK    7  A    between atoms: C_10  and  O_13
REMARK    8  A    between atoms: N_16  and  C_17
REMARK    9  A    between atoms: C_17  and  C_18
REMARK   10  A    between atoms: C_17  and  C_19
REMARK   11  A    between atoms: C_17  and  C_20
REMARK   12  A    between atoms: C_21  and  C_23
REMARK   13  A    between atoms: C_24  and  O_30
REMARK   14  A    between atoms: C_28  and  O_29
REMARK                            x       y       z     vdW  Elec       q    Type
REMARK                         _______ _______ _______ _____ _____    ______ ____
ROOT
ATOM      1  C   UNL     1      -1.582  -2.717   1.153  0.00  0.00    +0.192 C 
ENDROOT
BRANCH   1   2
ATOM      2  C   UNL     1      -2.924  -2.498   1.802  0.00  0.00    -0.018 A 
ATOM      3  C   UNL     1      -3.441  -1.219   1.905  0.00  0.00    +0.009 A 
ATOM      4  C   UNL     1      -4.671  -1.016   2.500  0.00  0.00    +0.046 A 
ATOM      5  C   UNL     1      -5.389  -2.096   2.992  0.00  0.00    +0.117 A 
ATOM      6  C   UNL     1      -4.869  -3.378   2.886  0.00  0.00    +0.046 A 
ATOM      7  C   UNL     1      -3.641  -3.576   2.287  0.00  0.00    +0.009 A 
BRANCH   5   8
ATOM      8  O   UNL     1      -6.599  -1.898   3.578  0.00  0.00    -0.507 OA
ATOM      9  H   UNL     1      -7.345  -1.936   2.962  0.00  0.00    +0.292 HD
ENDBRANCH   5   8
ENDBRANCH   1   2
BRANCH   1  10
ATOM     10  C   UNL     1      -0.492  -2.250   2.084  0.00  0.00    +0.238 C 
ATOM     11  O   UNL     1       0.239  -1.341   1.755  0.00  0.00    -0.273 OA
ATOM     12  N   UNL     1      -0.331  -2.844   3.284  0.00  0.00    -0.309 N 
ATOM     13  H   UNL     1      -0.916  -3.572   3.547  0.00  0.00    +0.149 HD
BRANCH  12  14
ATOM     14  C   UNL     1       0.728  -2.391   4.189  0.00  0.00    +0.026 C 
ATOM     15  C   UNL     1       0.508  -0.916   4.533  0.00  0.00    +0.031 C 
ATOM     16  C   UNL     1       0.695  -3.225   5.471  0.00  0.00    +0.031 C 
ATOM     17  C   UNL     1       2.088  -2.558   3.507  0.00  0.00    +0.031 C 
ENDBRANCH  12  14
ENDBRANCH   1  10
BRANCH   1  18
ATOM     18  N   UNL     1      -1.514  -1.957  -0.097  0.00  0.00    -0.282 N 
ATOM     19  C   UNL     1      -2.058  -2.461  -1.222  0.00  0.00    +0.255 C 
ATOM     20  O   UNL     1      -2.605  -3.547  -1.200  0.00  0.00    -0.270 OA
BRANCH  19  21
ATOM     21  C   UNL     1      -1.989  -1.697  -2.479  0.00  0.00    +0.119 A 
ATOM     22  C   UNL     1      -0.907  -1.872  -3.354  0.00  0.00    +0.133 A 
ATOM     23  C   UNL     1      -0.852  -1.148  -4.534  0.00  0.00    +0.046 A 
ATOM     24  C   UNL     1      -1.861  -0.257  -4.851  0.00  0.00    +0.007 A 
ATOM     25  C   UNL     1      -2.932  -0.077  -3.997  0.00  0.00    +0.046 A 
ATOM     26  C   UNL     1      -3.009  -0.794  -2.814  0.00  0.00    +0.133 A 
BRANCH  26  27
ATOM     27  O   UNL     1      -4.065  -0.620  -1.980  0.00  0.00    -0.506 OA
ATOM     28  H   UNL     1      -3.935   0.076  -1.321  0.00  0.00    +0.292 HD
ENDBRANCH  26  27
BRANCH  22  29
ATOM     29  O   UNL     1       0.084  -2.745  -3.045  0.00  0.00    -0.506 OA
ATOM     30  H   UNL     1      -0.068  -3.643  -3.370  0.00  0.00    +0.292 HD
ENDBRANCH  22  29
ENDBRANCH  19  21
BRANCH  18  31
ATOM     31  C   UNL     1      -0.854  -0.649  -0.125  0.00  0.00    +0.109 C 
BRANCH  31  33
ATOM     32  C   UNL     1       1.338   0.508  -0.439  0.00  0.00    +0.005 C 
ATOM     33  C   UNL     1       0.588  -0.815  -0.608  0.00  0.00    +0.016 C 
ENDBRANCH  31  33
ENDBRANCH  18  31
ENDBRANCH   1  18
TORSDOF 10
