REMARK  Name = ZINC02395462
REMARK  8 active torsions:
REMARK  status: ('A' for Active; 'I' for Inactive)
REMARK    1  A    between atoms: C_1  and  C_2
REMARK    2  A    between atoms: C_8  and  C_31
REMARK    3  A    between atoms: C_8  and  C_32
REMARK    4  A    between atoms: C_9  and  C_15
REMARK    5  A    between atoms: C_16  and  C_17
REMARK    6  A    between atoms: C_20  and  O_23
REMARK    7  A    between atoms: O_23  and  C_24
REMARK    8  A    between atoms: C_24  and  C_25
REMARK                            x       y       z     vdW  Elec       q    Type
REMARK                         _______ _______ _______ _____ _____    ______ ____
ROOT
ATOM      1  C   UNL     1       2.463   3.926   0.004  0.00  0.00    +0.044 C 
ATOM      2  C   UNL     1       1.164   3.162   0.007  0.00  0.00    -0.050 A 
ATOM      3  C   UNL     1       1.173   1.779   0.000  0.00  0.00    +0.005 A 
ATOM      4  C   UNL     1      -0.013   1.076   0.008  0.00  0.00    +0.024 A 
ATOM      5  C   UNL     1      -1.231   1.754   0.017  0.00  0.00    +0.036 A 
ATOM      6  C   UNL     1      -1.229   3.144   0.021  0.00  0.00    -0.016 A 
ATOM      7  C   UNL     1      -0.040   3.843   0.017  0.00  0.00    +0.009 A 
ATOM      8  C   UNL     1      -2.671   3.612   0.020  0.00  0.00    +0.034 C 
ATOM      9  C   UNL     1      -3.446   2.343  -0.397  0.00  0.00    +0.131 C 
ATOM     10  N   UNL     1      -2.538   1.252   0.050  0.00  0.00    -0.296 N 
ATOM     11  C   UNL     1      -2.960   1.017   1.451  0.00  0.00    +0.203 C 
ATOM     12  C   UNL     1      -4.405   1.460   1.502  0.00  0.00    +0.232 C 
ATOM     13  O   UNL     1      -5.202   1.178   2.372  0.00  0.00    -0.274 OA
ATOM     14  N   UNL     1      -4.658   2.223   0.420  0.00  0.00    -0.289 N 
ATOM     15  C   UNL     1      -3.092   4.070   1.418  0.00  0.00    +0.020 C 
ATOM     16  C   UNL     1      -2.875   4.732  -1.002  0.00  0.00    +0.020 C 
ATOM     17  H   UNL     1      -5.513   2.631   0.213  0.00  0.00    +0.151 HD
ENDROOT
BRANCH   9  18
ATOM     18  C   UNL     1      -3.728   2.297  -1.876  0.00  0.00    +0.020 C 
ATOM     19  C   UNL     1      -3.259   1.296  -2.609  0.00  0.00    +0.007 C 
BRANCH  19  20
ATOM     20  C   UNL     1      -3.535   1.250  -4.060  0.00  0.00    -0.025 A 
ATOM     21  C   UNL     1      -4.293   2.257  -4.660  0.00  0.00    +0.011 A 
ATOM     22  C   UNL     1      -4.544   2.213  -6.015  0.00  0.00    +0.046 A 
ATOM     23  C   UNL     1      -4.053   1.165  -6.781  0.00  0.00    +0.121 A 
ATOM     24  C   UNL     1      -3.302   0.159  -6.187  0.00  0.00    +0.046 A 
ATOM     25  C   UNL     1      -3.042   0.198  -4.833  0.00  0.00    +0.011 A 
BRANCH  23  26
ATOM     26  O   UNL     1      -4.307   1.122  -8.115  0.00  0.00    -0.487 OA
BRANCH  26  27
ATOM     27  C   UNL     1      -5.085   2.189  -8.661  0.00  0.00    +0.264 C 
BRANCH  27  28
ATOM     28  C   UNL     1      -5.263   1.974 -10.142  0.00  0.00    -0.010 A 
ATOM     29  C   UNL     1      -4.347   2.502 -11.032  0.00  0.00    +0.007 A 
ATOM     30  C   UNL     1      -4.508   2.301 -12.390  0.00  0.00    +0.000 A 
ATOM     31  C   UNL     1      -5.590   1.579 -12.859  0.00  0.00    +0.000 A 
ATOM     32  C   UNL     1      -6.509   1.056 -11.969  0.00  0.00    +0.000 A 
ATOM     33  C   UNL     1      -6.346   1.252 -10.611  0.00  0.00    +0.007 A 
ENDBRANCH  27  28
ENDBRANCH  26  27
ENDBRANCH  23  26
ENDBRANCH  19  20
ENDBRANCH   9  18
TORSDOF 5
