REMARK  Name = ZINC01882035
REMARK  13 active torsions:
REMARK  status: ('A' for Active; 'I' for Inactive)
REMARK    1  A    between atoms: C_1  and  C_2
REMARK    2  A    between atoms: C_17  and  C_47
REMARK    3  A    between atoms: C_22  and  C_23
REMARK    4  A    between atoms: C_22  and  O_46
REMARK    5  A    between atoms: C_23  and  C_25
REMARK    6  A    between atoms: C_25  and  O_26
REMARK    7  A    between atoms: O_26  and  C_27
REMARK    8  A    between atoms: C_27  and  C_29
REMARK    9  A    between atoms: C_29  and  C_30
REMARK   10  A    between atoms: C_30  and  C_31
REMARK   11  A    between atoms: N_33  and  C_34
REMARK   12  A    between atoms: C_34  and  C_35
REMARK   13  A    between atoms: C_35  and  C_36
REMARK                            x       y       z     vdW  Elec       q    Type
REMARK                         _______ _______ _______ _____ _____    ______ ____
ROOT
ATOM      1  C   UNL     1      -3.416   2.226   0.014  0.00  0.00    +0.202 C 
ATOM      2  O   UNL     1      -2.320   2.390   0.492  0.00  0.00    -0.291 OA
ENDROOT
BRANCH   1  21
ATOM      3  C   UNL     1      -0.101   1.273  -0.351  0.00  0.00    +0.016 C 
ATOM      4  C   UNL     1      -0.212  -0.243  -0.526  0.00  0.00    -0.007 C 
ATOM      5  C   UNL     1       0.161  -0.578  -1.959  0.00  0.00    +0.019 C 
ATOM      6  C   UNL     1       1.676  -0.594  -2.158  0.00  0.00    +0.080 C 
ATOM      7  C   UNL     1       2.250  -1.613  -1.193  0.00  0.00    +0.156 C 
ATOM      8  O   UNL     1       3.033  -2.465  -1.556  0.00  0.00    -0.293 OA
ATOM      9  C   UNL     1       1.807  -1.515   0.202  0.00  0.00    +0.046 C 
ATOM     10  C   UNL     1       0.665  -0.892   0.500  0.00  0.00    -0.060 C 
ATOM     11  C   UNL     1       0.260  -0.800   1.960  0.00  0.00    +0.032 C 
ATOM     12  C   UNL     1      -1.203  -1.226   2.088  0.00  0.00    +0.008 C 
ATOM     13  C   UNL     1      -2.067  -0.369   1.155  0.00  0.00    -0.003 C 
ATOM     14  C   UNL     1      -1.676  -0.639  -0.295  0.00  0.00    +0.002 C 
ATOM     15  C   UNL     1      -2.552   0.206  -1.230  0.00  0.00    +0.005 C 
ATOM     16  C   UNL     1      -4.008  -0.218  -1.052  0.00  0.00    +0.010 C 
ATOM     17  C   UNL     1      -4.460  -0.010   0.376  0.00  0.00    +0.007 C 
ATOM     18  C   UNL     1      -3.538  -0.716   1.406  0.00  0.00    +0.002 C 
ATOM     19  C   UNL     1      -3.937  -0.009   2.736  0.00  0.00    +0.008 C 
ATOM     20  C   UNL     1      -4.133   1.467   2.325  0.00  0.00    +0.043 C 
ATOM     21  C   UNL     1      -4.469   1.470   0.783  0.00  0.00    +0.133 C 
ATOM     22  C   UNL     1      -5.871  -0.578   0.541  0.00  0.00    +0.015 C 
BRANCH  21  23
ATOM     23  O   UNL     1      -5.758   2.039   0.545  0.00  0.00    -0.380 OA
ATOM     24  H   UNL     1      -5.825   2.974   0.783  0.00  0.00    +0.211 HD
ENDBRANCH  21  23
ENDBRANCH   1  21
BRANCH   1  25
ATOM     25  C   UNL     1      -3.732   2.778  -1.353  0.00  0.00    +0.309 C 
BRANCH  25  26
ATOM     26  O   UNL     1      -2.583   3.448  -1.873  0.00  0.00    -0.457 OA
BRANCH  26  27
ATOM     27  C   UNL     1      -2.698   4.000  -3.091  0.00  0.00    +0.308 C 
ATOM     28  O   UNL     1      -3.741   3.917  -3.696  0.00  0.00    -0.251 OA
BRANCH  27  29
ATOM     29  C   UNL     1      -1.528   4.724  -3.705  0.00  0.00    +0.130 C 
BRANCH  29  30
ATOM     30  C   UNL     1      -1.922   5.253  -5.085  0.00  0.00    +0.107 C 
BRANCH  30  31
ATOM     31  C   UNL     1      -0.751   5.977  -5.699  0.00  0.00    +0.214 C 
ATOM     32  O   UNL     1       0.296   6.061  -5.092  0.00  0.00    -0.276 OA
ATOM     33  N   UNL     1      -0.867   6.531  -6.922  0.00  0.00    -0.315 N 
ATOM     34  H   UNL     1      -1.705   6.464  -7.407  0.00  0.00    +0.149 HD
BRANCH  33  35
ATOM     35  C   UNL     1       0.271   7.234  -7.519  0.00  0.00    +0.109 C 
BRANCH  35  36
ATOM     36  C   UNL     1      -0.124   7.764  -8.899  0.00  0.00    +0.056 C 
BRANCH  36  37
ATOM     37  C   UNL     1       1.047   8.488  -9.513  0.00  0.00    -0.021 A 
ATOM     38  C   UNL     1       1.286   9.808  -9.462  0.00  0.00    +0.087 A 
ATOM     39  N   UNL     1       2.443  10.099 -10.132  0.00  0.00    -0.360 N 
ATOM     40  H   UNL     1       2.821  10.987 -10.232  0.00  0.00    +0.165 HD
ATOM     41  C   UNL     1       2.991   8.944 -10.644  0.00  0.00    +0.047 A 
ATOM     42  C   UNL     1       2.144   7.883 -10.273  0.00  0.00    +0.003 A 
ATOM     43  C   UNL     1       2.456   6.577 -10.654  0.00  0.00    +0.010 A 
ATOM     44  C   UNL     1       3.586   6.335 -11.383  0.00  0.00    +0.001 A 
ATOM     45  C   UNL     1       4.427   7.377 -11.747  0.00  0.00    +0.002 A 
ATOM     46  C   UNL     1       4.133   8.675 -11.390  0.00  0.00    +0.026 A 
ENDBRANCH  36  37
ENDBRANCH  35  36
ENDBRANCH  33  35
ENDBRANCH  30  31
ENDBRANCH  29  30
ENDBRANCH  27  29
ENDBRANCH  26  27
ENDBRANCH  25  26
ENDBRANCH   1  25
TORSDOF 11
