REMARK  Name = ZINC00194923
REMARK  5 active torsions:
REMARK  status: ('A' for Active; 'I' for Inactive)
REMARK    1  A    between atoms: C_1  and  C_2
REMARK    2  A    between atoms: C_3  and  C_18
REMARK    3  A    between atoms: C_4  and  C_10
REMARK    4  A    between atoms: C_18  and  O_20
REMARK    5  A    between atoms: O_20  and  C_21
REMARK                            x       y       z     vdW  Elec       q    Type
REMARK                         _______ _______ _______ _____ _____    ______ ____
ROOT
ATOM      1  C   UNL     1       2.375   0.750  -0.005  0.00  0.00    +0.061 C 
ATOM      2  C   UNL     1       1.120   1.584  -0.001  0.00  0.00    +0.021 C 
ATOM      3  C   UNL     1       1.217   2.931   0.011  0.00  0.00    +0.078 C 
ATOM      4  C   UNL     1      -0.070   3.731   0.015  0.00  0.00    +0.145 C 
ATOM      5  N   UNL     1      -1.330   2.968   0.007  0.00  0.00    -0.288 N 
ATOM      6  C   UNL     1      -1.264   1.622  -0.009  0.00  0.00    +0.304 C 
ATOM      7  O   UNL     1      -2.299   0.983  -0.021  0.00  0.00    -0.252 OA
ATOM      8  N   UNL     1      -0.098   0.965  -0.007  0.00  0.00    -0.273 N 
ATOM      9  H   UNL     1      -2.186   3.424   0.009  0.00  0.00    +0.151 HD
ATOM     10  H   UNL     1      -0.118  -0.005  -0.015  0.00  0.00    +0.156 HD
ENDROOT
BRANCH   4  11
ATOM     11  C   UNL     1      -0.063   4.628  -1.195  0.00  0.00    -0.004 A 
ATOM     12  C   UNL     1       0.782   4.354  -2.254  0.00  0.00    +0.008 A 
ATOM     13  C   UNL     1       0.789   5.177  -3.365  0.00  0.00    +0.020 A 
ATOM     14  C   UNL     1      -0.051   6.275  -3.417  0.00  0.00    +0.042 A 
ATOM     15  C   UNL     1      -0.897   6.550  -2.358  0.00  0.00    +0.040 A 
ATOM     16  C   UNL     1      -0.907   5.723  -1.249  0.00  0.00    +0.048 A 
ATOM     17 CL   UNL     1      -1.974   6.063   0.078  0.00  0.00    -0.083 Cl
ATOM     18 CL   UNL     1      -0.043   7.309  -4.812  0.00  0.00    -0.083 Cl
ENDBRANCH   4  11
BRANCH   3  19
ATOM     19  C   UNL     1       2.477   3.573   0.019  0.00  0.00    +0.338 C 
ATOM     20  O   UNL     1       3.496   2.913   0.103  0.00  0.00    -0.245 OA
BRANCH  19  21
ATOM     21  O   UNL     1       2.550   4.918  -0.068  0.00  0.00    -0.465 OA
ATOM     22  C   UNL     1       3.855   5.492  -0.166  0.00  0.00    +0.280 C 
ENDBRANCH  19  21
ENDBRANCH   3  19
TORSDOF 3
