REMARK  Name = ZINC08934181
REMARK  6 active torsions:
REMARK  status: ('A' for Active; 'I' for Inactive)
REMARK    1  A    between atoms: C_1  and  C_2
REMARK    2  A    between atoms: C_2  and  C_30
REMARK    3  A    between atoms: C_6  and  C_23
REMARK    4  A    between atoms: C_10  and  N_22
REMARK    5  A    between atoms: C_11  and  C_13
REMARK    6  A    between atoms: C_13  and  C_15
REMARK                            x       y       z     vdW  Elec       q    Type
REMARK                         _______ _______ _______ _____ _____    ______ ____
ROOT
ATOM      1  C   UNL     1       2.032  -0.022   1.766  0.00  0.00    +0.041 C 
ATOM      2  C   UNL     1       2.364   0.101   0.277  0.00  0.00    +0.068 C 
ATOM      3  C   UNL     1       2.495   1.578  -0.101  0.00  0.00    +0.070 C 
ATOM      4  C   UNL     1       1.140   2.232  -0.077  0.00  0.00    -0.023 A 
ATOM      5  C   UNL     1      -0.010   1.500  -0.092  0.00  0.00    +0.011 A 
ATOM      6  C   UNL     1      -1.245   2.167  -0.072  0.00  0.00    +0.115 A 
ATOM      7  N   UNL     1      -1.316   3.491  -0.046  0.00  0.00    -0.209 NA
ATOM      8  C   UNL     1      -0.226   4.243  -0.027  0.00  0.00    +0.231 A 
ATOM      9  C   UNL     1       1.041   3.629  -0.041  0.00  0.00    +0.065 A 
ATOM     10  C   UNL     1       2.020   4.718  -0.011  0.00  0.00    +0.084 A 
ATOM     11  C   UNL     1       1.277   5.887   0.017  0.00  0.00    +0.199 A 
ATOM     12  O   UNL     1      -0.040   5.577   0.006  0.00  0.00    -0.432 OA
ATOM     13  C   UNL     1       0.013  -0.005  -0.123  0.00  0.00    +0.198 C 
ATOM     14  O   UNL     1       1.307  -0.473  -0.501  0.00  0.00    -0.369 OA
ATOM     15  C   UNL     1       3.676  -0.626  -0.020  0.00  0.00    +0.041 C 
ENDROOT
BRANCH   6  16
ATOM     16  C   UNL     1      -2.490   1.378  -0.086  0.00  0.00    +0.153 A 
ATOM     17  C   UNL     1      -3.647   1.698   0.558  0.00  0.00    +0.051 A 
ATOM     18  C   UNL     1      -4.567   0.672   0.271  0.00  0.00    +0.042 A 
ATOM     19  C   UNL     1      -3.936  -0.215  -0.525  0.00  0.00    +0.196 A 
ATOM     20  O   UNL     1      -2.685   0.217  -0.744  0.00  0.00    -0.461 OA
ENDBRANCH   6  16
BRANCH  10  21
ATOM     21  N   UNL     1       3.399   4.603  -0.012  0.00  0.00    -0.354 N 
ATOM     22  H   UNL     1       3.813   3.726  -0.033  0.00  0.00    +0.142 HD
ATOM     23  H   UNL     1       3.952   5.400   0.010  0.00  0.00    +0.142 HD
ENDBRANCH  10  21
BRANCH  11  24
ATOM     24  C   UNL     1       1.810   7.194   0.051  0.00  0.00    +0.230 C 
ATOM     25  O   UNL     1       3.013   7.359   0.157  0.00  0.00    -0.283 OA
BRANCH  24  26
ATOM     26  C   UNL     1       0.909   8.363  -0.041  0.00  0.00    +0.026 A 
ATOM     27  C   UNL     1      -0.476   8.182  -0.039  0.00  0.00    +0.013 A 
ATOM     28  C   UNL     1      -1.311   9.276  -0.120  0.00  0.00    +0.016 A 
ATOM     29  C   UNL     1      -0.779  10.551  -0.215  0.00  0.00    +0.018 A 
ATOM     30  C   UNL     1       0.593  10.736  -0.223  0.00  0.00    +0.016 A 
ATOM     31  C   UNL     1       1.439   9.651  -0.137  0.00  0.00    +0.013 A 
ATOM     32 BR   UNL     1      -1.932  12.046  -0.333  0.00  0.00    -0.050 Br
ENDBRANCH  24  26
ENDBRANCH  11  24
TORSDOF 4
