REMARK  Name = ZINC12389374
REMARK  4 active torsions:
REMARK  status: ('A' for Active; 'I' for Inactive)
REMARK    1  A    between atoms: C_1  and  O_2
REMARK    2  A    between atoms: O_2  and  C_3
REMARK    3  A    between atoms: C_6  and  C_9
REMARK    4  A    between atoms: C_14  and  C_23
REMARK                            x       y       z     vdW  Elec       q    Type
REMARK                         _______ _______ _______ _____ _____    ______ ____
ROOT
ATOM      1  C   UNL     1       2.513   0.404   4.181  0.00  0.00    +0.032 C 
ATOM      2  C   UNL     1       3.878   0.822   3.660  0.00  0.00    +0.059 C 
ATOM      3  C   UNL     1       3.750   1.371   2.248  0.00  0.00    +0.019 C 
ATOM      4  C   UNL     1       2.820   0.909   1.405  0.00  0.00    +0.037 C 
ATOM      5  C   UNL     1       2.488   1.321  -0.015  0.00  0.00    +0.140 C 
ATOM      6  N   UNL     1       3.474   2.166  -0.665  0.00  0.00    -0.313 N 
ATOM      7  C   UNL     1       3.793   3.397  -0.094  0.00  0.00    +0.205 A 
ATOM      8  C   UNL     1       4.339   3.493   1.252  0.00  0.00    +0.208 A 
ATOM      9  N   UNL     1       4.479   4.741   1.562  0.00  0.00    -0.032 NA
ATOM     10  O   UNL     1       4.077   5.504   0.432  0.00  0.00    -0.239 OA
ATOM     11  N   UNL     1       3.673   4.592  -0.580  0.00  0.00    -0.032 NA
ATOM     12  N   UNL     1       4.665   2.338   1.950  0.00  0.00    -0.297 N 
ATOM     13  C   UNL     1       1.965  -0.141   1.845  0.00  0.00    +0.163 C 
ATOM     14  O   UNL     1       1.177  -0.618   1.052  0.00  0.00    -0.292 OA
ATOM     15  C   UNL     1       1.992  -0.687   3.238  0.00  0.00    +0.088 C 
ATOM     16  H   UNL     1       3.904   1.878  -1.485  0.00  0.00    +0.149 HD
ATOM     17  H   UNL     1       5.582   2.214   2.238  0.00  0.00    +0.153 HD
ENDROOT
BRANCH   5  18
ATOM     18  C   UNL     1       1.173   2.056   0.002  0.00  0.00    +0.012 A 
ATOM     19  C   UNL     1       0.729   2.653   1.167  0.00  0.00    +0.008 A 
ATOM     20  C   UNL     1      -0.477   3.328   1.182  0.00  0.00    +0.001 A 
ATOM     21  C   UNL     1      -1.242   3.406   0.032  0.00  0.00    +0.003 A 
ATOM     22  C   UNL     1      -0.798   2.813  -1.135  0.00  0.00    +0.039 A 
ATOM     23  C   UNL     1       0.408   2.133  -1.150  0.00  0.00    +0.129 A 
ATOM     24  F   UNL     1       0.841   1.550  -2.289  0.00  0.00    -0.205 F 
ENDBRANCH   5  18
BRANCH   1  28
ATOM     25  C   UNL     1       2.885  -1.153   8.144  0.00  0.00    +0.120 A 
ATOM     26  C   UNL     1       2.045  -0.077   7.896  0.00  0.00    +0.046 A 
ATOM     27  C   UNL     1       1.926   0.425   6.614  0.00  0.00    +0.007 A 
ATOM     28  C   UNL     1       2.644  -0.145   5.579  0.00  0.00    -0.043 A 
ATOM     29  C   UNL     1       3.477  -1.221   5.822  0.00  0.00    +0.007 A 
ATOM     30  C   UNL     1       3.604  -1.722   7.103  0.00  0.00    +0.046 A 
BRANCH  25  32
ATOM     31  C   UNL     1       3.886  -2.756   9.585  0.00  0.00    +0.277 C 
ATOM     32  O   UNL     1       3.003  -1.647   9.404  0.00  0.00    -0.495 OA
ENDBRANCH  25  32
ENDBRANCH   1  28
TORSDOF 3
