REMARK  Name = ZINC62977257
REMARK  12 active torsions:
REMARK  status: ('A' for Active; 'I' for Inactive)
REMARK    1  A    between atoms: C_1  and  C_2
REMARK    2  A    between atoms: C_2  and  N_3
REMARK    3  A    between atoms: N_3  and  C_4
REMARK    4  A    between atoms: N_3  and  C_6
REMARK    5  A    between atoms: C_4  and  C_5
REMARK    6  A    between atoms: C_9  and  C_12
REMARK    7  A    between atoms: C_20  and  C_23
REMARK    8  A    between atoms: N_26  and  C_28
REMARK    9  A    between atoms: C_28  and  C_29
REMARK   10  A    between atoms: C_29  and  C_30
REMARK   11  A    between atoms: C_30  and  O_31
REMARK   12  A    between atoms: O_31  and  C_32
REMARK                            x       y       z     vdW  Elec       q    Type
REMARK                         _______ _______ _______ _____ _____    ______ ____
ROOT
ATOM      1  C   UNL     1       0.881  -6.293   0.979  0.00  0.00    +0.058 C 
ATOM      2  C   UNL     1       2.045  -6.970   1.137  0.00  0.00    +0.176 C 
ATOM      3  C   UNL     1       2.233  -8.423   0.997  0.00  0.00    +0.231 C 
ATOM      4  O   UNL     1       1.393  -9.260   0.718  0.00  0.00    -0.283 OA
ATOM      5  C   UNL     1       3.666  -8.637   1.268  0.00  0.00    +0.068 A 
ATOM      6  C   UNL     1       4.473  -9.774   1.295  0.00  0.00    +0.024 A 
ATOM      7  C   UNL     1       5.806  -9.663   1.584  0.00  0.00    +0.010 A 
ATOM      8  C   UNL     1       6.359  -8.414   1.850  0.00  0.00    +0.133 A 
ATOM      9  C   UNL     1       5.566  -7.275   1.828  0.00  0.00    +0.034 A 
ATOM     10  C   UNL     1       4.212  -7.372   1.537  0.00  0.00    +0.146 A 
ATOM     11  O   UNL     1       3.247  -6.431   1.449  0.00  0.00    -0.451 OA
ATOM     12  C   UNL     1       6.177  -5.929   2.122  0.00  0.00    +0.051 C 
ATOM     13  O   UNL     1       7.683  -8.289   2.131  0.00  0.00    -0.476 OA
ATOM     14  C   UNL     1       8.387  -9.477   2.500  0.00  0.00    +0.318 C 
ATOM     15  N   UNL     1       8.077 -10.531   1.520  0.00  0.00    -0.266 NA
ATOM     16  C   UNL     1       6.659 -10.906   1.611  0.00  0.00    +0.126 C 
ENDROOT
BRANCH   1  20
ATOM     17  C   UNL     1       0.870  -2.053   1.014  0.00  0.00    +0.013 A 
ATOM     18  C   UNL     1       2.072  -2.739   1.041  0.00  0.00    +0.022 A 
ATOM     19  C   UNL     1       2.085  -4.117   1.030  0.00  0.00    +0.010 A 
ATOM     20  C   UNL     1       0.877  -4.823   0.991  0.00  0.00    -0.021 A 
ATOM     21  C   UNL     1      -0.334  -4.122   0.963  0.00  0.00    +0.010 A 
ATOM     22  C   UNL     1      -0.329  -2.744   0.980  0.00  0.00    +0.022 A 
BRANCH  17  23
ATOM     23  N   UNL     1       0.867  -0.655   1.025  0.00  0.00    -0.394 NA
ATOM     24  H   UNL     1      -0.085  -0.321   1.006  0.00  0.00    +0.126 HD
BRANCH  23  26
ATOM     25  C   UNL     1       0.708  -0.583   3.467  0.00  0.00    +0.022 C 
ATOM     26  C   UNL     1       1.530  -0.173   2.244  0.00  0.00    +0.081 C 
ENDBRANCH  23  26
BRANCH  23  27
ATOM     27  C   UNL     1       1.586  -0.154  -0.154  0.00  0.00    +0.081 C 
ATOM     28  C   UNL     1       0.829  -0.556  -1.422  0.00  0.00    +0.022 C 
ENDBRANCH  23  27
ENDBRANCH  17  23
ENDBRANCH   1  20
BRANCH  15  29
ATOM     29  C   UNL     1       8.944 -11.701   1.714  0.00  0.00    +0.090 C 
BRANCH  29  30
ATOM     30  C   UNL     1      10.391 -11.322   1.396  0.00  0.00    +0.043 C 
BRANCH  30  31
ATOM     31  C   UNL     1      11.294 -12.540   1.598  0.00  0.00    +0.160 C 
BRANCH  31  32
ATOM     32  O   UNL     1      12.646 -12.186   1.300  0.00  0.00    -0.383 OA
ATOM     33  C   UNL     1      13.576 -13.259   1.458  0.00  0.00    +0.193 C 
ENDBRANCH  31  32
ENDBRANCH  30  31
ENDBRANCH  29  30
ENDBRANCH  15  29
TORSDOF 8
