REMARK  Name = ZINC16033814
REMARK  4 active torsions:
REMARK  status: ('A' for Active; 'I' for Inactive)
REMARK    1  A    between atoms: C_6  and  N_11
REMARK    2  A    between atoms: C_16  and  C_33
REMARK    3  A    between atoms: C_33  and  C_34
REMARK    4  A    between atoms: C_34  and  C_35
REMARK                            x       y       z     vdW  Elec       q    Type
REMARK                         _______ _______ _______ _____ _____    ______ ____
ROOT
ATOM      1  N   UNL     1       4.915  -2.655  -0.058  0.00  0.00    -0.210 N 
ATOM      2  C   UNL     1       6.088  -2.020  -0.158  0.00  0.00    +0.232 C 
ATOM      3  O   UNL     1       6.229  -0.819  -0.250  0.00  0.00    -0.274 OA
ATOM      4  C   UNL     1       7.211  -3.032  -0.139  0.00  0.00    +0.107 C 
ATOM      5  C   UNL     1       7.901  -3.056  -1.519  0.00  0.00    +0.068 C 
ATOM      6  N   UNL     1       7.109  -4.022  -2.326  0.00  0.00    -0.295 NA
ATOM      7  C   UNL     1       6.766  -5.093  -1.372  0.00  0.00    +0.136 C 
ATOM      8  C   UNL     1       6.466  -4.391  -0.024  0.00  0.00    +0.123 C 
ATOM      9  C   UNL     1       5.010  -3.986   0.033  0.00  0.00    +0.233 C 
ATOM     10  O   UNL     1       4.075  -4.750   0.140  0.00  0.00    -0.274 OA
ATOM     11  C   UNL     1       7.884  -6.087  -1.234  0.00  0.00    +0.003 A 
ATOM     12  C   UNL     1       9.201  -5.985  -0.845  0.00  0.00    +0.008 A 
ATOM     13  C   UNL     1      10.004  -7.111  -0.819  0.00  0.00    +0.000 A 
ATOM     14  C   UNL     1       9.482  -8.338  -1.183  0.00  0.00    +0.002 A 
ATOM     15  C   UNL     1       8.163  -8.445  -1.573  0.00  0.00    +0.023 A 
ATOM     16  C   UNL     1       7.347  -7.317  -1.603  0.00  0.00    +0.039 A 
ATOM     17  N   UNL     1       6.004  -7.171  -1.956  0.00  0.00    -0.283 N 
ATOM     18  C   UNL     1       5.585  -5.895  -1.848  0.00  0.00    +0.243 C 
ATOM     19  O   UNL     1       4.473  -5.475  -2.088  0.00  0.00    -0.273 OA
ATOM     20  H   UNL     1       6.277  -3.587  -2.696  0.00  0.00    +0.123 HD
ATOM     21  H   UNL     1       5.437  -7.903  -2.245  0.00  0.00    +0.155 HD
ENDROOT
BRANCH   1  27
ATOM     22  C   UNL     1      -0.410   0.664  -1.079  0.00  0.00    +0.001 A 
ATOM     23  C   UNL     1       0.356   0.663  -2.243  0.00  0.00    +0.001 A 
ATOM     24  C   UNL     1       1.554   0.017  -2.292  0.00  0.00    +0.008 A 
ATOM     25  C   UNL     1       2.027  -0.658  -1.154  0.00  0.00    -0.016 A 
ATOM     26  C   UNL     1       3.258  -1.334  -1.168  0.00  0.00    +0.032 A 
ATOM     27  C   UNL     1       3.687  -1.980  -0.043  0.00  0.00    +0.044 A 
ATOM     28  C   UNL     1       2.915  -1.977   1.125  0.00  0.00    +0.024 A 
ATOM     29  C   UNL     1       1.719  -1.332   1.170  0.00  0.00    +0.010 A 
ATOM     30  C   UNL     1       1.247  -0.657   0.030  0.00  0.00    -0.018 A 
ATOM     31  C   UNL     1       0.016   0.021   0.043  0.00  0.00    +0.008 A 
ENDBRANCH   1  27
BRANCH   5  32
ATOM     32  C   UNL     1       7.861  -1.666  -2.158  0.00  0.00    +0.031 C 
BRANCH  32  33
ATOM     33  C   UNL     1       8.657  -1.683  -3.465  0.00  0.00    +0.126 C 
BRANCH  33  34
ATOM     34  C   UNL     1       8.617  -0.314  -4.095  0.00  0.00    +0.356 C 
ATOM     35  O   UNL     1       8.009   0.591  -3.549  0.00  0.00    -0.246 OA
ATOM     36  O   UNL     1       9.193  -0.112  -5.150  0.00  0.00    -0.246 OA
ENDBRANCH  33  34
ENDBRANCH  32  33
ENDBRANCH   5  32
TORSDOF 4
