REMARK  Name = ZINC39655096
REMARK  5 active torsions:
REMARK  status: ('A' for Active; 'I' for Inactive)
REMARK    1  A    between atoms: C_3  and  C_6
REMARK    2  A    between atoms: C_6  and  N_7
REMARK    3  A    between atoms: C_8  and  C_10
REMARK    4  A    between atoms: C_21  and  C_23
REMARK    5  A    between atoms: C_26  and  C_28
REMARK                            x       y       z     vdW  Elec       q    Type
REMARK                         _______ _______ _______ _____ _____    ______ ____
ROOT
ATOM      1  C   UNL     1       5.944   0.555   2.996  0.00  0.00    +0.100 C 
ATOM      2  C   UNL     1       5.378  -0.663   3.758  0.00  0.00    +0.121 C 
ATOM      3  N   UNL     1       6.424  -1.705   3.628  0.00  0.00    -0.294 N 
ATOM      4  C   UNL     1       7.701  -0.965   3.768  0.00  0.00    +0.115 C 
ATOM      5  C   UNL     1       7.469   0.355   3.007  0.00  0.00    -0.004 C 
ATOM      6  C   UNL     1       7.997   0.241   1.580  0.00  0.00    -0.010 C 
ATOM      7  C   UNL     1       9.522   0.100   1.616  0.00  0.00    -0.082 C 
ATOM      8  N   UNL     1      10.108   1.268   2.284  0.00  0.00    +0.379 N 
ATOM      9  C   UNL     1       9.667   1.318   3.683  0.00  0.00    -0.082 C 
ATOM     10  C   UNL     1       8.148   1.511   3.735  0.00  0.00    -0.010 C 
ATOM     11  C   UNL     1       6.252  -3.027   3.427  0.00  0.00    +0.282 C 
ATOM     12  O   UNL     1       7.220  -3.760   3.341  0.00  0.00    -0.267 OA
ATOM     13  H   UNL     1      11.114   1.202   2.252  0.00  0.00    -0.086 HD
ATOM     14  H   UNL     1       9.813   2.108   1.810  0.00  0.00    -0.086 HD
ENDROOT
BRANCH  11  15
ATOM     15  C   UNL     1       4.901  -3.581   3.313  0.00  0.00    +0.190 A 
ATOM     16  C   UNL     1       4.585  -4.907   3.114  0.00  0.00    +0.055 A 
ATOM     17  C   UNL     1       3.190  -4.987   3.066  0.00  0.00    +0.050 A 
ATOM     18  C   UNL     1       2.709  -3.720   3.236  0.00  0.00    +0.136 A 
ATOM     19  O   UNL     1       3.749  -2.883   3.389  0.00  0.00    -0.450 OA
BRANCH  18  20
ATOM     20  C   UNL     1       1.284  -3.336   3.254  0.00  0.00    +0.017 A 
ATOM     21  C   UNL     1       0.294  -4.307   3.094  0.00  0.00    +0.014 A 
ATOM     22  C   UNL     1      -1.036  -3.942   3.113  0.00  0.00    +0.039 A 
ATOM     23  C   UNL     1      -1.390  -2.614   3.289  0.00  0.00    +0.123 A 
ATOM     24  C   UNL     1      -0.412  -1.645   3.448  0.00  0.00    +0.039 A 
ATOM     25  C   UNL     1       0.921  -1.999   3.437  0.00  0.00    +0.014 A 
ATOM     26  F   UNL     1      -2.695  -2.262   3.306  0.00  0.00    -0.205 F 
ENDBRANCH  18  20
ENDBRANCH  11  15
BRANCH   1  28
ATOM     27  N   UNL     1       5.297   1.746   0.926  0.00  0.00    -0.308 N 
ATOM     28  C   UNL     1       5.428   0.575   1.580  0.00  0.00    +0.219 C 
ATOM     29  O   UNL     1       5.130  -0.464   1.029  0.00  0.00    -0.275 OA
ATOM     30  H   UNL     1       5.535   2.576   1.367  0.00  0.00    +0.149 HD
BRANCH  27  31
ATOM     31  C   UNL     1       4.795   1.764  -0.450  0.00  0.00    +0.178 C 
BRANCH  31  34
ATOM     32  C   UNL     1       5.265   5.135  -1.865  0.00  0.00    +0.041 A 
ATOM     33  C   UNL     1       5.739   3.833  -1.581  0.00  0.00    +0.046 A 
ATOM     34  C   UNL     1       4.745   3.186  -0.948  0.00  0.00    +0.122 A 
ATOM     35  O   UNL     1       3.699   4.021  -0.834  0.00  0.00    -0.466 OA
ATOM     36  C   UNL     1       4.009   5.204  -1.389  0.00  0.00    +0.195 A 
ENDBRANCH  31  34
ENDBRANCH  27  31
ENDBRANCH   1  28
TORSDOF 5
