REMARK  Name = ZINC64502787
REMARK  9 active torsions:
REMARK  status: ('A' for Active; 'I' for Inactive)
REMARK    1  A    between atoms: C_1  and  C_2
REMARK    2  A    between atoms: C_7  and  C_12
REMARK    3  A    between atoms: C_12  and  N_13
REMARK    4  A    between atoms: C_14  and  C_16
REMARK    5  A    between atoms: C_19  and  N_22
REMARK    6  A    between atoms: C_23  and  N_37
REMARK    7  A    between atoms: C_25  and  C_31
REMARK    8  A    between atoms: C_27  and  C_30
REMARK    9  A    between atoms: C_38  and  C_40
REMARK                            x       y       z     vdW  Elec       q    Type
REMARK                         _______ _______ _______ _____ _____    ______ ____
ROOT
ATOM      1  C   UNL     1       4.193  -2.870   1.635  0.00  0.00    +0.037 A 
ATOM      2  C   UNL     1       4.412  -1.504   1.436  0.00  0.00    +0.015 A 
ATOM      3  C   UNL     1       5.646  -1.060   1.021  0.00  0.00    +0.025 A 
ATOM      4  C   UNL     1       6.676  -1.970   0.798  0.00  0.00    +0.047 A 
ATOM      5  C   UNL     1       6.461  -3.331   0.995  0.00  0.00    +0.025 A 
ATOM      6  C   UNL     1       5.231  -3.781   1.416  0.00  0.00    +0.015 A 
ENDROOT
BRANCH   4   7
ATOM      7  N   UNL     1       7.923  -1.518   0.378  0.00  0.00    -0.246 N 
ATOM      8  C   UNL     1       9.201  -2.197   0.641  0.00  0.00    +0.185 C 
ATOM      9  C   UNL     1      10.289  -1.271   0.046  0.00  0.00    +0.077 C 
ATOM     10  C   UNL     1       9.525   0.078  -0.033  0.00  0.00    +0.081 C 
ATOM     11  N   UNL     1       8.143  -0.376  -0.348  0.00  0.00    -0.235 NA
ATOM     12  C   UNL     1       9.573   0.814   1.307  0.00  0.00    +0.026 C 
ATOM     13  H   UNL     1       8.033  -0.549  -1.336  0.00  0.00    +0.145 HD
BRANCH   9  14
ATOM     14  C   UNL     1      11.477  -1.169   0.967  0.00  0.00    -0.039 A 
ATOM     15  C   UNL     1      11.867  -2.263   1.717  0.00  0.00    +0.004 A 
ATOM     16  C   UNL     1      12.957  -2.169   2.562  0.00  0.00    +0.000 A 
ATOM     17  C   UNL     1      13.658  -0.981   2.657  0.00  0.00    +0.000 A 
ATOM     18  C   UNL     1      13.269   0.112   1.906  0.00  0.00    +0.000 A 
ATOM     19  C   UNL     1      12.181   0.017   1.058  0.00  0.00    +0.004 A 
ENDBRANCH   9  14
BRANCH   8  20
ATOM     20  N   UNL     1       9.403  -2.358   2.083  0.00  0.00    -0.295 N 
ATOM     21  C   UNL     1       9.221  -3.563   2.659  0.00  0.00    +0.211 C 
ATOM     22  O   UNL     1       8.992  -4.535   1.971  0.00  0.00    -0.276 OA
ATOM     23  C   UNL     1       9.301  -3.702   4.157  0.00  0.00    +0.109 C 
ATOM     24  H   UNL     1       9.668  -1.597   2.624  0.00  0.00    +0.151 HD
ENDBRANCH   8  20
ENDBRANCH   4   7
BRANCH   1  26
ATOM     25  N   UNL     1       1.871  -2.470   2.291  0.00  0.00    -0.308 N 
ATOM     26  C   UNL     1       2.871  -3.349   2.081  0.00  0.00    +0.244 C 
ATOM     27  O   UNL     1       2.683  -4.538   2.258  0.00  0.00    -0.270 OA
ATOM     28  H   UNL     1       2.021  -1.523   2.150  0.00  0.00    +0.149 HD
BRANCH  25  29
ATOM     29  C   UNL     1       0.558  -2.946   2.734  0.00  0.00    +0.151 C 
BRANCH  29  36
ATOM     30  C   UNL     1       1.453   3.982   3.249  0.00  0.00    +0.044 C 
ATOM     31  C   UNL     1       0.923   2.649   2.786  0.00  0.00    -0.048 A 
ATOM     32  C   UNL     1       0.521   2.511   1.446  0.00  0.00    +0.005 A 
ATOM     33  C   UNL     1       0.035   1.357   0.948  0.00  0.00    +0.027 A 
ATOM     34  C   UNL     1      -0.086   0.183   1.825  0.00  0.00    +0.060 A 
ATOM     35  N   UNL     1      -0.510  -1.031   1.625  0.00  0.00    -0.362 N 
ATOM     36  C   UNL     1      -0.388  -1.755   2.896  0.00  0.00    +0.191 C 
ATOM     37  N   UNL     1       0.164  -0.800   3.865  0.00  0.00    -0.362 N 
ATOM     38  C   UNL     1       0.341   0.329   3.244  0.00  0.00    +0.060 A 
ATOM     39  C   UNL     1       0.859   1.636   3.672  0.00  0.00    +0.030 A 
ATOM     40  H   UNL     1      -0.845  -1.391   0.789  0.00  0.00    +0.162 HD
ATOM     41  H   UNL     1       0.361  -0.979   4.798  0.00  0.00    +0.162 HD
ENDBRANCH  29  36
ENDBRANCH  25  29
ENDBRANCH   1  26
TORSDOF 6
