REMARK  Name = ZINC38650494
REMARK  13 active torsions:
REMARK  status: ('A' for Active; 'I' for Inactive)
REMARK    1  A    between atoms: C_1  and  C_2
REMARK    2  A    between atoms: C_2  and  O_3
REMARK    3  A    between atoms: O_3  and  C_4
REMARK    4  A    between atoms: C_9  and  C_10
REMARK    5  A    between atoms: C_15  and  O_24
REMARK    6  A    between atoms: C_19  and  N_23
REMARK    7  A    between atoms: C_20  and  C_21
REMARK    8  A    between atoms: O_24  and  C_25
REMARK    9  A    between atoms: C_25  and  C_27
REMARK   10  A    between atoms: C_27  and  O_28
REMARK   11  A    between atoms: O_28  and  C_29
REMARK   12  A    between atoms: C_32  and  O_35
REMARK   13  A    between atoms: O_35  and  C_36
REMARK                            x       y       z     vdW  Elec       q    Type
REMARK                         _______ _______ _______ _____ _____    ______ ____
ROOT
ATOM      1  C   UNL     1       1.980  -1.449  -3.528  0.00  0.00    +0.101 C 
ATOM      2  C   UNL     1       3.466  -1.671  -3.630  0.00  0.00    +0.008 A 
ATOM      3  C   UNL     1       4.307  -1.083  -2.701  0.00  0.00    +0.012 A 
ATOM      4  C   UNL     1       5.672  -1.276  -2.778  0.00  0.00    +0.047 A 
ATOM      5  C   UNL     1       6.205  -2.062  -3.790  0.00  0.00    +0.135 A 
ATOM      6  C   UNL     1       5.366  -2.652  -4.721  0.00  0.00    +0.093 A 
ATOM      7  C   UNL     1       3.993  -2.458  -4.642  0.00  0.00    +0.138 A 
ATOM      8  O   UNL     1       3.186  -3.042  -5.561  0.00  0.00    -0.441 OA
ATOM      9  C   UNL     1       1.939  -2.578  -5.749  0.00  0.00    +0.199 C 
ATOM     10  C   UNL     1       1.313  -1.819  -4.823  0.00  0.00    +0.098 C 
ENDROOT
BRANCH   1  16
ATOM     11  C   UNL     1       0.783  -1.707  -1.340  0.00  0.00    +0.125 A 
ATOM     12  C   UNL     1       0.266  -2.495  -0.322  0.00  0.00    +0.046 A 
ATOM     13  C   UNL     1       0.393  -3.869  -0.382  0.00  0.00    +0.004 A 
ATOM     14  C   UNL     1       1.036  -4.459  -1.455  0.00  0.00    +0.001 A 
ATOM     15  C   UNL     1       1.552  -3.676  -2.470  0.00  0.00    +0.008 A 
ATOM     16  C   UNL     1       1.422  -2.302  -2.418  0.00  0.00    +0.007 A 
BRANCH  11  17
ATOM     17  O   UNL     1       0.658  -0.355  -1.284  0.00  0.00    -0.492 OA
BRANCH  17  19
ATOM     18  C   UNL     1      -0.055   1.714  -0.258  0.00  0.00    +0.048 C 
ATOM     19  C   UNL     1      -0.012   0.188  -0.145  0.00  0.00    +0.225 C 
ENDBRANCH  17  19
ENDBRANCH  11  17
ENDBRANCH   1  16
BRANCH   9  20
ATOM     20  N   UNL     1       1.283  -2.884  -6.915  0.00  0.00    -0.328 N 
ATOM     21  H   UNL     1       1.720  -3.429  -7.589  0.00  0.00    +0.145 HD
ATOM     22  H   UNL     1       0.383  -2.557  -7.066  0.00  0.00    +0.145 HD
ENDBRANCH   9  20
BRANCH  10  23
ATOM     23  C   UNL     1      -0.017  -1.357  -5.085  0.00  0.00    +0.101 C 
ATOM     24  N   UNL     1      -1.072  -0.990  -5.292  0.00  0.00    -0.191 NA
ENDBRANCH  10  23
BRANCH   5  25
ATOM     25  O   UNL     1       7.549  -2.252  -3.868  0.00  0.00    -0.423 OA
BRANCH  25  26
ATOM     26  C   UNL     1       8.207  -1.687  -4.892  0.00  0.00    +0.350 C 
ATOM     27  O   UNL     1       7.625  -0.948  -5.650  0.00  0.00    -0.247 OA
BRANCH  26  28
ATOM     28  C   UNL     1       9.673  -1.974  -5.096  0.00  0.00    +0.349 C 
BRANCH  28  29
ATOM     29  O   UNL     1      10.143  -1.261  -6.242  0.00  0.00    -0.481 OA
BRANCH  29  30
ATOM     30  C   UNL     1      11.454  -1.411  -6.567  0.00  0.00    +0.122 A 
ATOM     31  C   UNL     1      12.269  -2.232  -5.802  0.00  0.00    +0.049 A 
ATOM     32  C   UNL     1      13.601  -2.385  -6.132  0.00  0.00    +0.049 A 
ATOM     33  C   UNL     1      14.125  -1.718  -7.230  0.00  0.00    +0.120 A 
ATOM     34  C   UNL     1      13.310  -0.897  -7.996  0.00  0.00    +0.049 A 
ATOM     35  C   UNL     1      11.976  -0.748  -7.668  0.00  0.00    +0.049 A 
BRANCH  33  36
ATOM     36  O   UNL     1      15.437  -1.867  -7.555  0.00  0.00    -0.495 OA
ATOM     37  C   UNL     1      15.908  -1.151  -8.698  0.00  0.00    +0.277 C 
ENDBRANCH  33  36
ENDBRANCH  29  30
ENDBRANCH  28  29
ENDBRANCH  26  28
ENDBRANCH  25  26
ENDBRANCH   5  25
TORSDOF 11
