REMARK  Name = ZINC32964480
REMARK  3 active torsions:
REMARK  status: ('A' for Active; 'I' for Inactive)
REMARK    1  A    between atoms: C_3  and  C_14
REMARK    2  A    between atoms: N_4  and  C_6
REMARK    3  A    between atoms: C_24  and  C_26
REMARK                            x       y       z     vdW  Elec       q    Type
REMARK                         _______ _______ _______ _____ _____    ______ ____
ROOT
ATOM      1  C   UNL     1       3.528   0.417   0.011  0.00  0.00    +0.042 C 
ATOM      2  C   UNL     1       4.101  -0.842  -0.049  0.00  0.00    +0.080 C 
ATOM      3  C   UNL     1       3.275  -2.077  -0.116  0.00  0.00    +0.132 C 
ATOM      4  N   UNL     1       2.117  -2.134  -0.723  0.00  0.00    -0.385 N 
ATOM      5  N   UNL     1       3.862  -3.181   0.538  0.00  0.00    -0.153 N 
ATOM      6  C   UNL     1       5.230  -3.169   0.702  0.00  0.00    +0.181 C 
ATOM      7  N   UNL     1       6.060  -2.201   0.405  0.00  0.00    -0.152 NA
ATOM      8  C   UNL     1       5.571  -1.030  -0.055  0.00  0.00    +0.273 C 
ATOM      9  O   UNL     1       6.315  -0.151  -0.461  0.00  0.00    -0.268 OA
ATOM     10  S   UNL     1       5.532  -4.761   1.422  0.00  0.00    -0.029 S 
ATOM     11  C   UNL     1       3.829  -5.287   1.549  0.00  0.00    +0.202 C 
ATOM     12  N   UNL     1       3.189  -4.283   1.022  0.00  0.00    -0.160 NA
ATOM     13  H   UNL     1       1.743  -1.337  -1.129  0.00  0.00    +0.157 HD
ATOM     14  H   UNL     1       1.634  -2.974  -0.767  0.00  0.00    +0.157 HD
ENDROOT
BRANCH   1  17
ATOM     15  C   UNL     1       0.141   0.146   1.223  0.00  0.00    +0.020 A 
ATOM     16  C   UNL     1       1.379  -0.435   0.949  0.00  0.00    +0.027 A 
ATOM     17  C   UNL     1       2.191   0.563   0.426  0.00  0.00    +0.047 A 
ATOM     18  N   UNL     1       1.445   1.724   0.390  0.00  0.00    -0.316 N 
ATOM     19  C   UNL     1       0.205   1.456   0.875  0.00  0.00    +0.092 A 
BRANCH  18  20
ATOM     20  C   UNL     1       1.892   2.970  -0.071  0.00  0.00    +0.048 A 
ATOM     21  C   UNL     1       3.077   3.506   0.415  0.00  0.00    +0.027 A 
ATOM     22  C   UNL     1       3.516   4.734  -0.040  0.00  0.00    +0.023 A 
ATOM     23  C   UNL     1       2.776   5.430  -0.980  0.00  0.00    +0.059 A 
ATOM     24  C   UNL     1       1.594   4.898  -1.466  0.00  0.00    +0.061 A 
ATOM     25  C   UNL     1       1.154   3.666  -1.018  0.00  0.00    +0.047 A 
ATOM     26 CL   UNL     1       0.668   5.774  -2.644  0.00  0.00    -0.082 Cl
ATOM     27 CL   UNL     1       3.330   6.973  -1.549  0.00  0.00    -0.082 Cl
ENDBRANCH  18  20
ENDBRANCH   1  17
BRANCH  11  28
ATOM     28  C   UNL     1       3.274  -6.568   2.119  0.00  0.00    +0.442 C 
ATOM     29  F   UNL     1       1.891  -6.611   1.910  0.00  0.00    -0.164 F 
ATOM     30  F   UNL     1       3.876  -7.660   1.484  0.00  0.00    -0.164 F 
ATOM     31  F   UNL     1       3.540  -6.621   3.491  0.00  0.00    -0.164 F 
ENDBRANCH  11  28
TORSDOF 3
