REMARK  Name = ZINC39944098
REMARK  6 active torsions:
REMARK  status: ('A' for Active; 'I' for Inactive)
REMARK    1  A    between atoms: C_1  and  C_2
REMARK    2  A    between atoms: C_3  and  C_20
REMARK    3  A    between atoms: C_4  and  N_14
REMARK    4  A    between atoms: N_6  and  C_8
REMARK    5  A    between atoms: C_23  and  C_32
REMARK    6  A    between atoms: C_24  and  C_26
REMARK                            x       y       z     vdW  Elec       q    Type
REMARK                         _______ _______ _______ _____ _____    ______ ____
ROOT
ATOM      1  C   UNL     1      -0.328   1.295   1.310  0.00  0.00    +0.062 C 
ATOM      2  C   UNL     1      -0.148  -0.118   0.817  0.00  0.00    +0.029 C 
ATOM      3  C   UNL     1      -1.099  -0.825   0.192  0.00  0.00    +0.047 C 
ATOM      4  C   UNL     1      -0.508  -2.180  -0.129  0.00  0.00    +0.199 C 
ATOM      5  N   UNL     1       0.866  -2.116   0.397  0.00  0.00    -0.231 N 
ATOM      6  N   UNL     1       1.010  -0.836   0.949  0.00  0.00    -0.266 N 
ATOM      7  H   UNL     1       1.819  -0.505   1.369  0.00  0.00    +0.170 HD
ENDROOT
BRANCH   3   8
ATOM      8  C   UNL     1      -2.456  -0.371  -0.123  0.00  0.00    +0.117 A 
ATOM      9  N   UNL     1      -3.391  -1.097  -0.743  0.00  0.00    -0.339 N 
ATOM     10  H   UNL     1      -3.285  -2.008  -1.058  0.00  0.00    +0.167 HD
ATOM     11  C   UNL     1      -4.518  -0.340  -0.856  0.00  0.00    +0.072 A 
ATOM     12  C   UNL     1      -4.240   0.886  -0.280  0.00  0.00    +0.072 A 
ATOM     13  N   UNL     1      -2.956   0.834   0.171  0.00  0.00    -0.339 N 
ATOM     14  H   UNL     1      -2.484   1.549   0.626  0.00  0.00    +0.167 HD
BRANCH  12  15
ATOM     15  C   UNL     1      -5.165   2.035  -0.168  0.00  0.00    +0.000 A 
ATOM     16  C   UNL     1      -6.470   1.842   0.291  0.00  0.00    +0.010 A 
ATOM     17  C   UNL     1      -7.327   2.918   0.392  0.00  0.00    +0.001 A 
ATOM     18  C   UNL     1      -6.897   4.186   0.041  0.00  0.00    +0.000 A 
ATOM     19  C   UNL     1      -5.606   4.383  -0.414  0.00  0.00    +0.001 A 
ATOM     20  C   UNL     1      -4.736   3.317  -0.515  0.00  0.00    +0.010 A 
ENDBRANCH  12  15
BRANCH  11  21
ATOM     21  C   UNL     1      -5.795  -0.751  -1.478  0.00  0.00    +0.000 A 
ATOM     22  C   UNL     1      -6.362  -1.987  -1.162  0.00  0.00    +0.010 A 
ATOM     23  C   UNL     1      -7.554  -2.365  -1.745  0.00  0.00    +0.001 A 
ATOM     24  C   UNL     1      -8.186  -1.522  -2.642  0.00  0.00    +0.000 A 
ATOM     25  C   UNL     1      -7.629  -0.296  -2.960  0.00  0.00    +0.001 A 
ATOM     26  C   UNL     1      -6.441   0.096  -2.379  0.00  0.00    +0.010 A 
ENDBRANCH  11  21
ENDBRANCH   3   8
BRANCH   5  27
ATOM     27  C   UNL     1       1.831  -3.124   0.351  0.00  0.00    +0.050 A 
ATOM     28  C   UNL     1       3.120  -2.835  -0.078  0.00  0.00    +0.025 A 
ATOM     29  C   UNL     1       4.072  -3.834  -0.122  0.00  0.00    +0.002 A 
ATOM     30  C   UNL     1       3.743  -5.122   0.260  0.00  0.00    +0.000 A 
ATOM     31  C   UNL     1       2.461  -5.413   0.688  0.00  0.00    +0.002 A 
ATOM     32  C   UNL     1       1.505  -4.417   0.740  0.00  0.00    +0.025 A 
ENDBRANCH   5  27
BRANCH   4  33
ATOM     33  N   UNL     1      -0.494  -2.404  -1.580  0.00  0.00    -0.279 NA
ATOM     34  C   UNL     1       0.338  -1.403  -2.259  0.00  0.00    +0.086 C 
ATOM     35  C   UNL     1       0.213  -1.577  -3.775  0.00  0.00    +0.015 C 
ATOM     36  C   UNL     1       0.663  -2.988  -4.161  0.00  0.00    +0.002 C 
ATOM     37  C   UNL     1      -0.188  -4.011  -3.403  0.00  0.00    +0.015 C 
ATOM     38  C   UNL     1      -0.051  -3.767  -1.899  0.00  0.00    +0.086 C 
ENDBRANCH   4  33
TORSDOF 5
