REMARK  Name = ZINC14472469
REMARK  6 active torsions:
REMARK  status: ('A' for Active; 'I' for Inactive)
REMARK    1  A    between atoms: C_4  and  C_7
REMARK    2  A    between atoms: C_7  and  C_8
REMARK    3  A    between atoms: C_8  and  C_9
REMARK    4  A    between atoms: N_11  and  C_12
REMARK    5  A    between atoms: C_25  and  C_28
REMARK    6  A    between atoms: C_32  and  N_34
REMARK                            x       y       z     vdW  Elec       q    Type
REMARK                         _______ _______ _______ _____ _____    ______ ____
ROOT
ATOM      1  C   UNL     1       1.183   1.786  -0.005  0.00  0.00    +0.034 A 
ATOM      2  C   UNL     1       1.158   3.163  -0.179  0.00  0.00    +0.025 A 
ATOM      3  C   UNL     1      -0.045   3.838  -0.180  0.00  0.00    +0.025 A 
ATOM      4  C   UNL     1      -1.238   3.150  -0.003  0.00  0.00    +0.031 A 
ATOM      5  C   UNL     1      -1.208   1.763   0.181  0.00  0.00    -0.018 A 
ATOM      6  C   UNL     1      -0.005   1.091   0.176  0.00  0.00    +0.029 A 
ATOM      7  C   UNL     1      -2.498   1.077   0.416  0.00  0.00    +0.049 C 
ATOM      8  C   UNL     1      -2.695  -0.357   0.084  0.00  0.00    -0.023 C 
ATOM      9  C   UNL     1      -3.965  -0.541  -0.259  0.00  0.00    -0.030 C 
ATOM     10  C   UNL     1      -4.718   0.789  -0.212  0.00  0.00    +0.033 C 
ATOM     11  C   UNL     1      -3.582   1.796  -0.441  0.00  0.00    +0.029 C 
ATOM     12  C   UNL     1      -3.743   3.172   0.179  0.00  0.00    +0.105 C 
ATOM     13  N   UNL     1      -2.449   3.858  -0.030  0.00  0.00    -0.336 N 
ATOM     14  H   UNL     1      -2.437   4.814  -0.190  0.00  0.00    +0.147 HD
ENDROOT
BRANCH  12  15
ATOM     15  C   UNL     1      -4.849   3.928  -0.511  0.00  0.00    -0.025 A 
ATOM     16  C   UNL     1      -4.632   4.488  -1.756  0.00  0.00    +0.005 A 
ATOM     17  C   UNL     1      -5.648   5.178  -2.391  0.00  0.00    +0.003 A 
ATOM     18  C   UNL     1      -6.879   5.315  -1.776  0.00  0.00    +0.033 A 
ATOM     19  C   UNL     1      -7.095   4.759  -0.529  0.00  0.00    +0.127 A 
ATOM     20  C   UNL     1      -6.079   4.066   0.104  0.00  0.00    +0.038 A 
BRANCH  19  21
ATOM     21  N   UNL     1      -8.412   4.907   0.129  0.00  0.00    +0.056 N 
ATOM     22  O   UNL     1      -8.602   4.417   1.228  0.00  0.00    -0.126 OA
ATOM     23  O   UNL     1      -9.306   5.517  -0.428  0.00  0.00    -0.126 OA
ENDBRANCH  19  21
ENDBRANCH  12  15
BRANCH   1  26
ATOM     24  C   UNL     1       3.513   1.690   0.473  0.00  0.00    +0.218 C 
ATOM     25  O   UNL     1       3.438   2.778   1.004  0.00  0.00    -0.275 OA
ATOM     26  N   UNL     1       2.404   1.099  -0.013  0.00  0.00    -0.285 N 
ATOM     27  H   UNL     1       2.451   0.197  -0.368  0.00  0.00    +0.155 HD
BRANCH  24  28
ATOM     28  C   UNL     1       4.848   1.000   0.357  0.00  0.00    +0.101 C 
BRANCH  28  29
ATOM     29  C   UNL     1       5.933   1.879   0.983  0.00  0.00    +0.044 C 
BRANCH  29  33
ATOM     30  C   UNL     1       9.716  -0.077   0.654  0.00  0.00    +0.000 A 
ATOM     31  C   UNL     1       9.285   0.768  -0.352  0.00  0.00    +0.000 A 
ATOM     32  C   UNL     1       8.061   1.401  -0.245  0.00  0.00    +0.003 A 
ATOM     33  C   UNL     1       7.268   1.188   0.866  0.00  0.00    -0.047 A 
ATOM     34  C   UNL     1       7.701   0.347   1.874  0.00  0.00    +0.003 A 
ATOM     35  C   UNL     1       8.923  -0.289   1.766  0.00  0.00    +0.000 A 
ENDBRANCH  29  33
ENDBRANCH  28  29
ENDBRANCH  24  28
ENDBRANCH   1  26
TORSDOF 6
