REMARK  Name = ZINC19567171
REMARK  9 active torsions:
REMARK  status: ('A' for Active; 'I' for Inactive)
REMARK    1  A    between atoms: C_1  and  C_2
REMARK    2  A    between atoms: C_4  and  O_27
REMARK    3  A    between atoms: C_5  and  C_24
REMARK    4  A    between atoms: C_7  and  N_8
REMARK    5  A    between atoms: C_9  and  C_11
REMARK    6  A    between atoms: C_11  and  N_12
REMARK    7  A    between atoms: C_24  and  C_25
REMARK    8  A    between atoms: C_24  and  C_26
REMARK    9  A    between atoms: O_27  and  C_28
REMARK                            x       y       z     vdW  Elec       q    Type
REMARK                         _______ _______ _______ _____ _____    ______ ____
ROOT
ATOM      1  N   UNL     1      -1.156  -0.694   0.009  0.00  0.00    -0.284 N 
ATOM      2  C   UNL     1       0.002  -0.004  -0.001  0.00  0.00    +0.235 C 
ATOM      3  O   UNL     1       1.061  -0.596  -0.008  0.00  0.00    -0.274 OA
ATOM      4  H   UNL     1      -2.113  -0.161   0.107  0.00  0.00    +0.155 HD
ENDROOT
BRANCH   1  11
ATOM      5  C   UNL     1      -3.347  -2.153   1.086  0.00  0.00    +0.046 C 
ATOM      6  C   UNL     1      -2.190  -2.840   0.408  0.00  0.00    -0.026 A 
ATOM      7  C   UNL     1      -2.176  -4.216   0.292  0.00  0.00    +0.051 A 
ATOM      8  C   UNL     1      -1.109  -4.850  -0.327  0.00  0.00    +0.124 A 
ATOM      9  C   UNL     1      -0.057  -4.101  -0.835  0.00  0.00    -0.001 A 
ATOM     10  C   UNL     1      -0.072  -2.725  -0.724  0.00  0.00    +0.031 A 
ATOM     11  C   UNL     1      -1.140  -2.090  -0.104  0.00  0.00    +0.037 A 
BRANCH   9  12
ATOM     12  C   UNL     1       1.103  -4.790  -1.507  0.00  0.00    +0.016 C 
ATOM     13  C   UNL     1       1.217  -4.301  -2.953  0.00  0.00    +0.012 C 
ATOM     14  C   UNL     1       2.395  -4.466  -0.755  0.00  0.00    +0.012 C 
ENDBRANCH   9  12
BRANCH   8  15
ATOM     15  O   UNL     1      -1.093  -6.205  -0.436  0.00  0.00    -0.495 OA
ATOM     16  C   UNL     1      -2.208  -6.913   0.109  0.00  0.00    +0.277 C 
ENDBRANCH   8  15
ENDBRANCH   1  11
BRANCH   2  17
ATOM     17  C   UNL     1      -0.019   1.503  -0.005  0.00  0.00    +0.214 C 
BRANCH  17  18
ATOM     18  N   UNL     1       1.355   2.010  -0.017  0.00  0.00    -0.215 N 
ATOM     19  C   UNL     1       2.058   2.270  -1.138  0.00  0.00    +0.247 C 
ATOM     20  O   UNL     1       1.687   2.134  -2.285  0.00  0.00    -0.273 OA
ATOM     21  C   UNL     1       3.405   2.767  -0.665  0.00  0.00    +0.113 C 
ATOM     22  C   UNL     1       3.644   4.194  -1.148  0.00  0.00    +0.035 C 
ATOM     23  C   UNL     1       4.999   4.688  -0.636  0.00  0.00    +0.003 C 
ATOM     24  C   UNL     1       6.106   3.765  -1.150  0.00  0.00    +0.000 C 
ATOM     25  C   UNL     1       5.865   2.344  -0.637  0.00  0.00    +0.003 C 
ATOM     26  C   UNL     1       4.514   1.839  -1.149  0.00  0.00    +0.035 C 
ATOM     27  N   UNL     1       3.304   2.730   0.799  0.00  0.00    -0.285 N 
ATOM     28  C   UNL     1       2.067   2.279   1.085  0.00  0.00    +0.310 C 
ATOM     29  O   UNL     1       1.647   2.130   2.215  0.00  0.00    -0.252 OA
ATOM     30  H   UNL     1       4.159   3.041   1.417  0.00  0.00    +0.151 HD
ENDBRANCH  17  18
ENDBRANCH   2  17
TORSDOF 5
