REMARK  Name = ZINC39639068
REMARK  10 active torsions:
REMARK  status: ('A' for Active; 'I' for Inactive)
REMARK    1  A    between atoms: C_1  and  O_2
REMARK    2  A    between atoms: O_2  and  C_3
REMARK    3  A    between atoms: C_5  and  O_36
REMARK    4  A    between atoms: C_6  and  C_11
REMARK    5  A    between atoms: C_7  and  O_9
REMARK    6  A    between atoms: O_9  and  C_10
REMARK    7  A    between atoms: C_11  and  N_12
REMARK    8  A    between atoms: C_13  and  C_15
REMARK    9  A    between atoms: C_26  and  C_28
REMARK   10  A    between atoms: O_36  and  C_37
REMARK                            x       y       z     vdW  Elec       q    Type
REMARK                         _______ _______ _______ _____ _____    ______ ____
ROOT
ATOM      1  C   UNL     1      -7.055  -3.704  -3.004  0.00  0.00    +0.100 C 
ATOM      2  C   UNL     1      -6.011  -4.539  -3.779  0.00  0.00    +0.121 C 
ATOM      3  N   UNL     1      -6.483  -5.938  -3.655  0.00  0.00    -0.296 N 
ATOM      4  C   UNL     1      -7.957  -5.843  -3.785  0.00  0.00    +0.115 C 
ATOM      5  C   UNL     1      -8.332  -4.561  -3.013  0.00  0.00    -0.004 C 
ATOM      6  C   UNL     1      -9.458  -3.824  -3.730  0.00  0.00    -0.010 C 
ATOM      7  C   UNL     1     -10.733  -4.670  -3.675  0.00  0.00    -0.082 C 
ATOM      8  N   UNL     1     -11.097  -4.920  -2.275  0.00  0.00    +0.379 N 
ATOM      9  C   UNL     1     -10.049  -5.710  -1.618  0.00  0.00    -0.082 C 
ATOM     10  C   UNL     1      -8.746  -4.908  -1.586  0.00  0.00    -0.010 C 
ATOM     11  C   UNL     1      -5.741  -7.047  -3.467  0.00  0.00    +0.249 C 
ATOM     12  O   UNL     1      -4.543  -6.953  -3.282  0.00  0.00    -0.270 OA
ATOM     13  H   UNL     1     -11.203  -4.039  -1.794  0.00  0.00    -0.086 HD
ATOM     14  H   UNL     1     -11.970  -5.425  -2.241  0.00  0.00    -0.086 HD
ENDROOT
BRANCH  11  15
ATOM     15  C   UNL     1      -6.382  -8.376  -3.485  0.00  0.00    +0.072 A 
ATOM     16  C   UNL     1      -7.457  -8.625  -4.343  0.00  0.00    +0.019 A 
ATOM     17  C   UNL     1      -8.051  -9.867  -4.356  0.00  0.00    +0.039 A 
ATOM     18  C   UNL     1      -7.587 -10.872  -3.519  0.00  0.00    +0.126 A 
ATOM     19  C   UNL     1      -6.523 -10.634  -2.666  0.00  0.00    +0.077 A 
ATOM     20  C   UNL     1      -5.913  -9.394  -2.647  0.00  0.00    +0.138 A 
ATOM     21  F   UNL     1      -4.872  -9.163  -1.819  0.00  0.00    -0.205 F 
ATOM     22  F   UNL     1      -8.176 -12.088  -3.537  0.00  0.00    -0.205 F 
ENDBRANCH  11  15
BRANCH   1  24
ATOM     23  N   UNL     1      -6.955  -2.344  -0.941  0.00  0.00    -0.311 N 
ATOM     24  C   UNL     1      -6.592  -3.468  -1.590  0.00  0.00    +0.218 C 
ATOM     25  O   UNL     1      -5.892  -4.289  -1.035  0.00  0.00    -0.275 OA
ATOM     26  H   UNL     1      -7.515  -1.687  -1.385  0.00  0.00    +0.149 HD
BRANCH  23  27
ATOM     27  C   UNL     1      -6.505  -2.113   0.434  0.00  0.00    +0.147 C 
BRANCH  27  31
ATOM     28  C   UNL     1      -8.038   1.631   1.831  0.00  0.00    +0.127 A 
ATOM     29  C   UNL     1      -8.771   0.469   2.018  0.00  0.00    +0.091 A 
ATOM     30  C   UNL     1      -8.274  -0.744   1.565  0.00  0.00    +0.132 A 
ATOM     31  C   UNL     1      -7.045  -0.795   0.925  0.00  0.00    +0.053 A 
ATOM     32  C   UNL     1      -6.313   0.368   0.738  0.00  0.00    +0.132 A 
ATOM     33  C   UNL     1      -6.811   1.581   1.186  0.00  0.00    +0.091 A 
BRANCH  28  35
ATOM     34  C   UNL     1      -9.795   2.797   2.930  0.00  0.00    +0.277 C 
ATOM     35  O   UNL     1      -8.525   2.820   2.274  0.00  0.00    -0.495 OA
ENDBRANCH  28  35
BRANCH  32  36
ATOM     36  O   UNL     1      -5.108   0.318   0.110  0.00  0.00    -0.495 OA
ATOM     37  C   UNL     1      -4.408   1.554  -0.049  0.00  0.00    +0.277 C 
ENDBRANCH  32  36
BRANCH  30  38
ATOM     38  O   UNL     1      -8.992  -1.883   1.749  0.00  0.00    -0.495 OA
ATOM     39  C   UNL     1     -10.249  -1.758   2.417  0.00  0.00    +0.277 C 
ENDBRANCH  30  38
ENDBRANCH  27  31
ENDBRANCH  23  27
ENDBRANCH   1  24
TORSDOF 7
