REMARK  Name = ZINC00267258
REMARK  4 active torsions:
REMARK  status: ('A' for Active; 'I' for Inactive)
REMARK    1  A    between atoms: C_9  and  C_25
REMARK    2  A    between atoms: C_10  and  C_18
REMARK    3  A    between atoms: C_12  and  C_16
REMARK    4  A    between atoms: C_13  and  N_15
REMARK                            x       y       z     vdW  Elec       q    Type
REMARK                         _______ _______ _______ _____ _____    ______ ____
ROOT
ATOM      1  C   UNL     1      -0.462   5.920   0.226  0.00  0.00    +0.002 A 
ATOM      2  C   UNL     1       0.919   5.845   0.181  0.00  0.00    +0.002 A 
ATOM      3  C   UNL     1       1.548   4.616   0.119  0.00  0.00    +0.026 A 
ATOM      4  C   UNL     1       0.790   3.454   0.103  0.00  0.00    +0.062 A 
ATOM      5  C   UNL     1      -0.601   3.528   0.148  0.00  0.00    +0.054 A 
ATOM      6  C   UNL     1      -1.224   4.768   0.209  0.00  0.00    +0.025 A 
ATOM      7  N   UNL     1      -1.087   2.226   0.113  0.00  0.00    -0.300 N 
ATOM      8  C   UNL     1      -0.016   1.366   0.056  0.00  0.00    +0.115 C 
ATOM      9  C   UNL     1       0.002  -0.004   0.009  0.00  0.00    +0.078 C 
ATOM     10  C   UNL     1       1.342  -0.706  -0.057  0.00  0.00    +0.106 C 
ATOM     11  C   UNL     1       2.573   0.177  -0.064  0.00  0.00    +0.078 C 
ATOM     12  C   UNL     1       2.393   1.524  -0.013  0.00  0.00    +0.108 C 
ATOM     13  N   UNL     1       1.142   2.099   0.046  0.00  0.00    -0.242 N 
ATOM     14  H   UNL     1      -2.022   1.968   0.128  0.00  0.00    +0.153 HD
ENDROOT
BRANCH  10  15
ATOM     15  C   UNL     1       1.440  -1.633   1.128  0.00  0.00    -0.034 A 
ATOM     16  C   UNL     1       1.373  -1.123   2.411  0.00  0.00    +0.007 A 
ATOM     17  C   UNL     1       1.459  -1.972   3.498  0.00  0.00    +0.038 A 
ATOM     18  C   UNL     1       1.622  -3.333   3.301  0.00  0.00    +0.123 A 
ATOM     19  C   UNL     1       1.695  -3.842   2.016  0.00  0.00    +0.038 A 
ATOM     20  C   UNL     1       1.604  -2.991   0.930  0.00  0.00    +0.007 A 
ATOM     21  F   UNL     1       1.711  -4.164   4.363  0.00  0.00    -0.205 F 
ENDBRANCH  10  15
BRANCH  12  22
ATOM     22  N   UNL     1       3.498   2.341  -0.019  0.00  0.00    -0.345 N 
ATOM     23  H   UNL     1       4.338   2.019  -0.384  0.00  0.00    +0.144 HD
ATOM     24  H   UNL     1       3.440   3.240   0.341  0.00  0.00    +0.144 HD
ENDBRANCH  12  22
BRANCH  11  25
ATOM     25  C   UNL     1       3.886  -0.390  -0.125  0.00  0.00    +0.099 C 
ATOM     26  N   UNL     1       4.928  -0.840  -0.173  0.00  0.00    -0.191 NA
ENDBRANCH  11  25
BRANCH   9  27
ATOM     27  C   UNL     1      -1.218  -0.754   0.021  0.00  0.00    +0.099 C 
ATOM     28  N   UNL     1      -2.186  -1.348   0.031  0.00  0.00    -0.191 NA
ENDBRANCH   9  27
TORSDOF 4
