REMARK  Name = ZINC36548590
REMARK  8 active torsions:
REMARK  status: ('A' for Active; 'I' for Inactive)
REMARK    1  A    between atoms: C_5  and  N_7
REMARK    2  A    between atoms: N_7  and  C_8
REMARK    3  A    between atoms: C_8  and  C_10
REMARK    4  A    between atoms: C_8  and  C_17
REMARK    5  A    between atoms: C_13  and  O_16
REMARK    6  A    between atoms: N_19  and  C_20
REMARK    7  A    between atoms: C_26  and  C_28
REMARK    8  A    between atoms: C_32  and  N_34
REMARK                            x       y       z     vdW  Elec       q    Type
REMARK                         _______ _______ _______ _____ _____    ______ ____
ROOT
ATOM      1  N   UNL     1       2.008  -2.714   0.234  0.00  0.00    -0.250 N 
ATOM      2  C   UNL     1       3.136  -3.415   0.465  0.00  0.00    +0.252 C 
ATOM      3  O   UNL     1       3.699  -3.980  -0.452  0.00  0.00    -0.270 OA
ENDROOT
BRANCH   1   8
ATOM      4  C   UNL     1      -0.322  -1.718   2.898  0.00  0.00    +0.002 A 
ATOM      5  C   UNL     1       0.246  -0.526   3.311  0.00  0.00    +0.002 A 
ATOM      6  C   UNL     1       1.398  -0.059   2.706  0.00  0.00    +0.022 A 
ATOM      7  C   UNL     1       1.985  -0.782   1.685  0.00  0.00    +0.062 A 
ATOM      8  C   UNL     1       1.417  -1.980   1.268  0.00  0.00    +0.056 A 
ATOM      9  C   UNL     1       0.260  -2.445   1.879  0.00  0.00    +0.025 A 
ATOM     10 CL   UNL     1       3.431  -0.195   0.924  0.00  0.00    -0.082 Cl
ENDBRANCH   1   8
BRANCH   2  11
ATOM     11  C   UNL     1       3.688  -3.496   1.834  0.00  0.00    +0.039 A 
ATOM     12  C   UNL     1       2.834  -3.663   2.926  0.00  0.00    +0.013 A 
ATOM     13  C   UNL     1       3.356  -3.738   4.200  0.00  0.00    +0.003 A 
ATOM     14  C   UNL     1       4.722  -3.648   4.398  0.00  0.00    +0.033 A 
ATOM     15  C   UNL     1       5.574  -3.483   3.321  0.00  0.00    +0.127 A 
ATOM     16  C   UNL     1       5.066  -3.413   2.040  0.00  0.00    +0.045 A 
BRANCH  15  17
ATOM     17  N   UNL     1       7.035  -3.387   3.542  0.00  0.00    +0.056 N 
ATOM     18  O   UNL     1       7.482  -3.453   4.663  0.00  0.00    -0.126 OA
ATOM     19  O   UNL     1       7.780  -3.243   2.601  0.00  0.00    -0.126 OA
ENDBRANCH  15  17
ENDBRANCH   2  11
BRANCH   1  20
ATOM     20  C   UNL     1       1.401  -2.722  -1.099  0.00  0.00    +0.198 C 
BRANCH  20  21
ATOM     21  C   UNL     1       0.107  -1.950  -1.067  0.00  0.00    -0.018 A 
ATOM     22  C   UNL     1       0.096  -0.639  -0.628  0.00  0.00    +0.009 A 
ATOM     23  C   UNL     1      -1.089   0.071  -0.597  0.00  0.00    +0.046 A 
ATOM     24  C   UNL     1      -2.268  -0.534  -1.006  0.00  0.00    +0.117 A 
ATOM     25  C   UNL     1      -2.255  -1.849  -1.446  0.00  0.00    +0.046 A 
ATOM     26  C   UNL     1      -1.066  -2.553  -1.481  0.00  0.00    +0.009 A 
BRANCH  24  27
ATOM     27  O   UNL     1      -3.436   0.162  -0.976  0.00  0.00    -0.507 OA
ATOM     28  H   UNL     1      -3.629   0.641  -1.793  0.00  0.00    +0.292 HD
ENDBRANCH  24  27
ENDBRANCH  20  21
BRANCH  20  29
ATOM     29  C   UNL     1       2.344  -2.079  -2.084  0.00  0.00    +0.239 C 
ATOM     30  O   UNL     1       3.217  -1.335  -1.690  0.00  0.00    -0.273 OA
ATOM     31  N   UNL     1       2.218  -2.333  -3.401  0.00  0.00    -0.311 N 
ATOM     32  H   UNL     1       1.520  -2.929  -3.716  0.00  0.00    +0.149 HD
BRANCH  31  33
ATOM     33  C   UNL     1       3.135  -1.709  -4.359  0.00  0.00    +0.073 C 
ATOM     34  C   UNL     1       2.618  -0.316  -4.726  0.00  0.00    +0.022 C 
ATOM     35  C   UNL     1       3.575   0.336  -5.726  0.00  0.00    +0.002 C 
ATOM     36  C   UNL     1       3.660  -0.526  -6.987  0.00  0.00    +0.000 C 
ATOM     37  C   UNL     1       4.177  -1.919  -6.619  0.00  0.00    +0.002 C 
ATOM     38  C   UNL     1       3.220  -2.571  -5.620  0.00  0.00    +0.022 C 
ENDBRANCH  31  33
ENDBRANCH  20  29
ENDBRANCH   1  20
TORSDOF 8
