REMARK  Name = ZINC38604668
REMARK  8 active torsions:
REMARK  status: ('A' for Active; 'I' for Inactive)
REMARK    1  A    between atoms: C_1  and  C_2
REMARK    2  A    between atoms: C_3  and  S_9
REMARK    3  A    between atoms: S_9  and  N_12
REMARK    4  A    between atoms: N_12  and  C_13
REMARK    5  A    between atoms: C_13  and  C_14
REMARK    6  A    between atoms: C_14  and  C_16
REMARK    7  A    between atoms: C_14  and  N_21
REMARK    8  A    between atoms: N_24  and  C_27
REMARK                            x       y       z     vdW  Elec       q    Type
REMARK                         _______ _______ _______ _____ _____    ______ ____
ROOT
ATOM      1  C   UNL     1      -2.243   3.247  -2.778  0.00  0.00    +0.015 C 
ENDROOT
BRANCH   1   2
ATOM      2  N   UNL     1      -2.105   3.338  -4.238  0.00  0.00    +0.389 N 
ATOM      3  C   UNL     1      -0.742   3.770  -4.573  0.00  0.00    -0.059 C 
ATOM      4  C   UNL     1      -0.562   3.756  -6.094  0.00  0.00    +0.086 C 
ATOM      5  N   UNL     1      -1.624   4.576  -6.697  0.00  0.00    -0.333 N 
ATOM      6  C   UNL     1      -3.014   4.319  -6.291  0.00  0.00    +0.086 C 
ATOM      7  C   UNL     1      -3.078   4.306  -4.760  0.00  0.00    -0.059 C 
ATOM      8  H   UNL     1      -2.279   2.433  -4.649  0.00  0.00    -0.081 HD
BRANCH   5   9
ATOM      9  C   UNL     1      -1.320   5.573  -7.630  0.00  0.00    +0.030 A 
ATOM     10  C   UNL     1      -0.016   5.729  -8.081  0.00  0.00    +0.026 A 
ATOM     11  C   UNL     1       0.281   6.713  -9.004  0.00  0.00    +0.040 A 
ATOM     12  C   UNL     1      -0.720   7.544  -9.478  0.00  0.00    +0.124 A 
ATOM     13  C   UNL     1      -2.021   7.390  -9.029  0.00  0.00    +0.040 A 
ATOM     14  C   UNL     1      -2.324   6.404  -8.111  0.00  0.00    +0.026 A 
ATOM     15  F   UNL     1      -0.426   8.507 -10.379  0.00  0.00    -0.205 F 
ENDBRANCH   5   9
ENDBRANCH   1   2
BRANCH   1  16
ATOM     16  C   UNL     1      -2.092   4.618  -2.172  0.00  0.00    +0.093 A 
ATOM     17  C   UNL     1      -2.821   5.114  -1.157  0.00  0.00    +0.043 A 
ATOM     18  C   UNL     1      -2.347   6.423  -0.913  0.00  0.00    +0.041 A 
ATOM     19  C   UNL     1      -1.356   6.649  -1.794  0.00  0.00    +0.195 A 
ATOM     20  O   UNL     1      -1.202   5.550  -2.550  0.00  0.00    -0.469 OA
ENDBRANCH   1  16
BRANCH   1  21
ATOM     21  C   UNL     1      -1.160   2.321  -2.221  0.00  0.00    +0.098 C 
BRANCH  21  22
ATOM     22  N   UNL     1      -1.230   1.024  -2.899  0.00  0.00    -0.191 NA
ATOM     23  H   UNL     1      -2.011   0.794  -3.427  0.00  0.00    +0.148 HD
BRANCH  22  24
ATOM     24  S   UNL     1       0.025  -0.049  -2.766  0.00  0.00    +0.059 S 
ATOM     25  O   UNL     1       1.207   0.665  -3.102  0.00  0.00    -0.153 OA
ATOM     26  O   UNL     1      -0.374  -1.228  -3.452  0.00  0.00    -0.153 OA
BRANCH  24  29
ATOM     27  C   UNL     1      -2.140  -1.451  -1.186  0.00  0.00    +0.047 C 
ATOM     28  C   UNL     1      -0.882  -1.121  -0.425  0.00  0.00    -0.006 A 
ATOM     29  C   UNL     1       0.163  -0.480  -1.063  0.00  0.00    +0.110 A 
ATOM     30  C   UNL     1       1.317  -0.176  -0.366  0.00  0.00    +0.029 A 
ATOM     31  C   UNL     1       1.427  -0.514   0.971  0.00  0.00    +0.003 A 
ATOM     32  C   UNL     1       0.383  -1.156   1.609  0.00  0.00    +0.020 A 
ATOM     33  C   UNL     1      -0.775  -1.454   0.913  0.00  0.00    +0.046 A 
ATOM     34 CL   UNL     1      -2.090  -2.254   1.716  0.00  0.00    -0.083 Cl
ENDBRANCH  24  29
ENDBRANCH  22  24
ENDBRANCH  21  22
ENDBRANCH   1  21
TORSDOF 7
