REMARK  Name = ZINC35246934
REMARK  12 active torsions:
REMARK  status: ('A' for Active; 'I' for Inactive)
REMARK    1  A    between atoms: C_1  and  C_2
REMARK    2  A    between atoms: C_2  and  O_3
REMARK    3  A    between atoms: O_3  and  C_4
REMARK    4  A    between atoms: C_4  and  C_6
REMARK    5  A    between atoms: C_13  and  C_15
REMARK    6  A    between atoms: C_18  and  C_20
REMARK    7  A    between atoms: C_20  and  N_21
REMARK    8  A    between atoms: N_21  and  C_22
REMARK    9  A    between atoms: N_21  and  C_29
REMARK   10  A    between atoms: C_22  and  C_23
REMARK   11  A    between atoms: C_29  and  C_30
REMARK   12  A    between atoms: C_33  and  C_36
REMARK                            x       y       z     vdW  Elec       q    Type
REMARK                         _______ _______ _______ _____ _____    ______ ____
ROOT
ATOM      1  N   UNL     1      -9.140  -5.464  -0.022  0.00  0.00    +0.390 N 
ATOM      2  H   UNL     1      -9.765  -4.708  -0.260  0.00  0.00    -0.080 HD
ENDROOT
BRANCH   1   3
ATOM      3  C   UNL     1      -8.111  -4.976   0.906  0.00  0.00    -0.002 C 
BRANCH   3   7
ATOM      4  C   UNL     1      -5.971  -2.582  -0.834  0.00  0.00    +0.190 A 
ATOM      5  C   UNL     1      -6.867  -1.717  -0.275  0.00  0.00    +0.055 A 
ATOM      6  C   UNL     1      -7.784  -2.496   0.448  0.00  0.00    +0.043 A 
ATOM      7  C   UNL     1      -7.412  -3.787   0.300  0.00  0.00    +0.090 A 
ATOM      8  O   UNL     1      -6.322  -3.835  -0.477  0.00  0.00    -0.457 OA
BRANCH   4  15
ATOM      9  C   UNL     1      -3.275  -3.552  -4.553  0.00  0.00    +0.115 C 
ATOM     10  C   UNL     1      -3.406  -5.053  -4.286  0.00  0.00    +0.018 C 
ATOM     11  C   UNL     1      -4.605  -5.307  -3.369  0.00  0.00    +0.020 C 
ATOM     12  C   UNL     1      -4.379  -4.595  -2.031  0.00  0.00    +0.108 C 
ATOM     13  N   UNL     1      -4.108  -3.175  -2.291  0.00  0.00    -0.294 N 
ATOM     14  C   UNL     1      -3.034  -2.820  -3.229  0.00  0.00    +0.122 C 
ATOM     15  C   UNL     1      -4.831  -2.215  -1.680  0.00  0.00    +0.282 C 
ATOM     16  O   UNL     1      -4.537  -1.044  -1.830  0.00  0.00    -0.267 OA
BRANCH   9  17
ATOM     17  C   UNL     1      -2.114  -3.306  -5.482  0.00  0.00    +0.312 C 
ATOM     18  O   UNL     1      -1.459  -4.236  -5.890  0.00  0.00    -0.250 OA
BRANCH  17  19
ATOM     19  O   UNL     1      -1.808  -2.054  -5.856  0.00  0.00    -0.465 OA
BRANCH  19  21
ATOM     20  C   UNL     1      -0.501  -0.409  -7.051  0.00  0.00    +0.048 C 
ATOM     21  C   UNL     1      -0.695  -1.894  -6.739  0.00  0.00    +0.229 C 
ENDBRANCH  19  21
ENDBRANCH  17  19
ENDBRANCH   9  17
ENDBRANCH   4  15
ENDBRANCH   3   7
ENDBRANCH   1   3
BRANCH   1  22
ATOM     22  C   UNL     1      -8.498  -5.971  -1.242  0.00  0.00    -0.042 C 
BRANCH  22  23
ATOM     23  C   UNL     1      -9.556  -6.344  -2.249  0.00  0.00    -0.064 A 
ATOM     24  C   UNL     1      -9.994  -7.652  -2.339  0.00  0.00    +0.002 A 
ATOM     25  C   UNL     1     -10.964  -7.994  -3.262  0.00  0.00    +0.000 A 
ATOM     26  C   UNL     1     -11.497  -7.028  -4.095  0.00  0.00    +0.000 A 
ATOM     27  C   UNL     1     -11.060  -5.720  -4.004  0.00  0.00    +0.000 A 
ATOM     28  C   UNL     1     -10.093  -5.377  -3.078  0.00  0.00    +0.002 A 
ENDBRANCH  22  23
ENDBRANCH   1  22
BRANCH   1  29
ATOM     29  C   UNL     1      -9.902  -6.547   0.616  0.00  0.00    -0.042 C 
BRANCH  29  30
ATOM     30  C   UNL     1     -10.683  -5.993   1.779  0.00  0.00    -0.064 A 
ATOM     31  C   UNL     1     -10.168  -6.073   3.059  0.00  0.00    +0.002 A 
ATOM     32  C   UNL     1     -10.884  -5.565   4.127  0.00  0.00    +0.012 A 
ATOM     33  C   UNL     1     -12.117  -4.976   3.913  0.00  0.00    +0.055 A 
ATOM     34  C   UNL     1     -12.632  -4.895   2.633  0.00  0.00    +0.012 A 
ATOM     35  C   UNL     1     -11.913  -5.399   1.566  0.00  0.00    +0.002 A 
BRANCH  33  36
ATOM     36  C   UNL     1     -12.899  -4.423   5.077  0.00  0.00    +0.417 C 
ATOM     37  F   UNL     1     -12.554  -3.081   5.275  0.00  0.00    -0.166 F 
ATOM     38  F   UNL     1     -14.268  -4.517   4.805  0.00  0.00    -0.166 F 
ATOM     39  F   UNL     1     -12.601  -5.156   6.230  0.00  0.00    -0.166 F 
ENDBRANCH  33  36
ENDBRANCH  29  30
ENDBRANCH   1  29
TORSDOF 11
