REMARK  Name = ZINC51046163
REMARK  6 active torsions:
REMARK  status: ('A' for Active; 'I' for Inactive)
REMARK    1  A    between atoms: C_3  and  C_20
REMARK    2  A    between atoms: N_6  and  C_8
REMARK    3  A    between atoms: C_8  and  C_9
REMARK    4  A    between atoms: N_14  and  C_15
REMARK    5  A    between atoms: C_15  and  C_16
REMARK    6  A    between atoms: N_22  and  C_23
REMARK                            x       y       z     vdW  Elec       q    Type
REMARK                         _______ _______ _______ _____ _____    ______ ____
ROOT
ATOM      1  C   UNL     1      -0.019   1.526   0.010  0.00  0.00    -0.018 C 
ATOM      2  C   UNL     1       1.420   2.051  -0.001  0.00  0.00    +0.009 C 
ATOM      3  C   UNL     1       2.149   1.487  -1.223  0.00  0.00    +0.058 C 
ATOM      4  C   UNL     1       2.090  -0.042  -1.186  0.00  0.00    -0.065 C 
ATOM      5  N   UNL     1       0.689  -0.481  -1.204  0.00  0.00    +0.386 N 
ATOM      6  C   UNL     1       0.002  -0.004   0.002  0.00  0.00    -0.078 C 
ATOM      7  H   UNL     1       0.231  -0.107  -2.021  0.00  0.00    -0.081 HD
ENDROOT
BRANCH   3   8
ATOM      8  C   UNL     1       3.588   1.936  -1.203  0.00  0.00    +0.215 C 
ATOM      9  O   UNL     1       4.479   1.114  -1.166  0.00  0.00    -0.276 OA
ATOM     10  N   UNL     1       3.884   3.251  -1.226  0.00  0.00    -0.312 N 
ATOM     11  H   UNL     1       3.171   3.908  -1.255  0.00  0.00    +0.149 HD
BRANCH  10  12
ATOM     12  C   UNL     1       5.282   3.687  -1.206  0.00  0.00    +0.073 C 
ATOM     13  C   UNL     1       5.644   4.856  -0.287  0.00  0.00    +0.024 C 
ATOM     14  C   UNL     1       5.602   5.059  -1.803  0.00  0.00    +0.024 C 
ENDBRANCH  10  12
ENDBRANCH   3   8
BRANCH   5  15
ATOM     15  C   UNL     1       0.638  -1.949  -1.247  0.00  0.00    +0.019 C 
BRANCH  15  16
ATOM     16  C   UNL     1      -0.793  -2.398  -1.389  0.00  0.00    +0.204 C 
ATOM     17  O   UNL     1      -1.683  -1.577  -1.449  0.00  0.00    -0.277 OA
ATOM     18  N   UNL     1      -1.084  -3.712  -1.450  0.00  0.00    -0.242 N 
ATOM     19  C   UNL     1      -2.364  -4.114  -1.577  0.00  0.00    +0.306 C 
ATOM     20  O   UNL     1      -3.256  -3.291  -1.637  0.00  0.00    -0.252 OA
ATOM     21  N   UNL     1      -2.655  -5.428  -1.638  0.00  0.00    -0.291 N 
ATOM     22  H   UNL     1      -0.372  -4.369  -1.402  0.00  0.00    +0.159 HD
ATOM     23  H   UNL     1      -1.943  -6.085  -1.590  0.00  0.00    +0.151 HD
BRANCH  21  24
ATOM     24  C   UNL     1      -4.047  -5.865  -1.776  0.00  0.00    +0.219 C 
BRANCH  24  25
ATOM     25  C   UNL     1      -4.100  -7.394  -1.821  0.00  0.00    +0.405 C 
ATOM     26  F   UNL     1      -3.563  -7.913  -0.638  0.00  0.00    -0.169 F 
ATOM     27  F   UNL     1      -5.428  -7.811  -1.953  0.00  0.00    -0.169 F 
ATOM     28  F   UNL     1      -3.356  -7.854  -2.912  0.00  0.00    -0.169 F 
ENDBRANCH  24  25
ENDBRANCH  21  24
ENDBRANCH  15  16
ENDBRANCH   5  15
TORSDOF 6
