REMARK  Name = ZINC33129099
REMARK  6 active torsions:
REMARK  status: ('A' for Active; 'I' for Inactive)
REMARK    1  A    between atoms: C_1  and  C_2
REMARK    2  A    between atoms: C_2  and  C_4
REMARK    3  A    between atoms: C_2  and  N_13
REMARK    4  A    between atoms: N_6  and  C_7
REMARK    5  A    between atoms: N_13  and  S_14
REMARK    6  A    between atoms: S_14  and  C_17
REMARK                            x       y       z     vdW  Elec       q    Type
REMARK                         _______ _______ _______ _____ _____    ______ ____
ROOT
ATOM      1  S   UNL     1      -1.468   1.778   0.021  0.00  0.00    +0.059 S 
ATOM      2  O   UNL     1      -2.490   0.790  -0.006  0.00  0.00    -0.153 OA
ATOM      3  O   UNL     1      -1.379   2.753   1.051  0.00  0.00    -0.153 OA
ENDROOT
BRANCH   1   4
ATOM      4  C   UNL     1      -1.580   2.660  -1.500  0.00  0.00    +0.106 A 
ATOM      5  C   UNL     1      -1.095   3.953  -1.588  0.00  0.00    +0.030 A 
ATOM      6  C   UNL     1      -1.177   4.644  -2.778  0.00  0.00    +0.026 A 
ATOM      7  C   UNL     1      -1.760   4.050  -3.899  0.00  0.00    +0.041 A 
ATOM      8  C   UNL     1      -2.247   2.757  -3.799  0.00  0.00    -0.023 A 
ATOM      9  C   UNL     1      -2.158   2.065  -2.605  0.00  0.00    +0.034 A 
ATOM     10  C   UNL     1      -2.820   2.352  -5.138  0.00  0.00    +0.056 C 
ATOM     11  C   UNL     1      -2.604   3.580  -6.038  0.00  0.00    +0.120 C 
ATOM     12  N   UNL     1      -1.945   4.571  -5.184  0.00  0.00    -0.255 N 
ATOM     13  C   UNL     1      -1.572   5.805  -5.578  0.00  0.00    +0.309 C 
ATOM     14  O   UNL     1      -1.111   6.588  -4.769  0.00  0.00    -0.252 OA
ATOM     15  N   UNL     1      -1.710   6.171  -6.867  0.00  0.00    -0.285 N 
ATOM     16  C   UNL     1      -2.335   5.364  -7.925  0.00  0.00    +0.109 C 
ATOM     17  C   UNL     1      -2.244   6.174  -9.235  0.00  0.00    +0.020 C 
ATOM     18  C   UNL     1      -1.064   7.143  -8.960  0.00  0.00    +0.020 C 
ATOM     19  C   UNL     1      -1.253   7.445  -7.453  0.00  0.00    +0.109 C 
ENDBRANCH   1   4
BRANCH   1  20
ATOM     20  N   UNL     1      -0.025   0.966   0.011  0.00  0.00    -0.178 NA
ATOM     21  H   UNL     1      -0.021  -0.122  -0.155  0.00  0.00    +0.149 HD
BRANCH  20  23
ATOM     22  C   UNL     1       1.725   1.871  -1.438  0.00  0.00    +0.035 C 
ATOM     23  C   UNL     1       1.236   1.713   0.003  0.00  0.00    +0.159 C 
BRANCH  23  24
ATOM     24  C   UNL     1       2.268   0.964   0.805  0.00  0.00    +0.232 C 
ATOM     25  O   UNL     1       1.980  -0.090   1.332  0.00  0.00    -0.274 OA
ATOM     26  N   UNL     1       3.512   1.465   0.938  0.00  0.00    -0.311 N 
ATOM     27  H   UNL     1       3.774   2.420   0.460  0.00  0.00    +0.149 HD
BRANCH  26  28
ATOM     28  C   UNL     1       4.516   0.736   1.717  0.00  0.00    +0.073 C 
ATOM     29  C   UNL     1       4.372   1.096   3.197  0.00  0.00    +0.022 C 
ATOM     30  C   UNL     1       5.421   0.336   4.012  0.00  0.00    +0.002 C 
ATOM     31  C   UNL     1       6.820   0.720   3.527  0.00  0.00    +0.000 C 
ATOM     32  C   UNL     1       6.964   0.360   2.047  0.00  0.00    +0.002 C 
ATOM     33  C   UNL     1       5.916   1.121   1.233  0.00  0.00    +0.022 C 
ENDBRANCH  26  28
ENDBRANCH  23  24
ENDBRANCH  20  23
ENDBRANCH   1  20
TORSDOF 5
