REMARK  Name = ZINC21893052
REMARK  9 active torsions:
REMARK  status: ('A' for Active; 'I' for Inactive)
REMARK    1  A    between atoms: C_1  and  C_2
REMARK    2  A    between atoms: C_2  and  C_3
REMARK    3  A    between atoms: C_6  and  C_9
REMARK    4  A    between atoms: N_26  and  C_27
REMARK    5  A    between atoms: C_30  and  C_33
REMARK    6  A    between atoms: C_33  and  C_34
REMARK    7  A    between atoms: C_34  and  O_36
REMARK    8  A    between atoms: O_36  and  C_37
REMARK    9  A    between atoms: C_37  and  C_38
REMARK                            x       y       z     vdW  Elec       q    Type
REMARK                         _______ _______ _______ _____ _____    ______ ____
ROOT
ATOM      1  C   UNL     1      -2.629   3.162   4.532  0.00  0.00    +0.155 C 
ATOM      2  C   UNL     1      -2.636   4.669   4.536  0.00  0.00    +0.049 A 
ATOM      3  C   UNL     1      -2.132   5.503   5.455  0.00  0.00    +0.025 A 
ATOM      4  C   UNL     1      -2.390   6.820   5.018  0.00  0.00    +0.020 A 
ATOM      5  C   UNL     1      -3.048   6.737   3.841  0.00  0.00    +0.091 A 
ATOM      6  N   UNL     1      -3.203   5.422   3.539  0.00  0.00    -0.318 N 
ATOM      7  C   UNL     1      -3.819   4.835   2.423  0.00  0.00    +0.051 A 
ATOM      8  C   UNL     1      -3.502   5.239   1.137  0.00  0.00    +0.026 A 
ATOM      9  C   UNL     1      -4.029   4.556   0.056  0.00  0.00    +0.002 A 
ATOM     10  C   UNL     1      -4.870   3.477   0.261  0.00  0.00    +0.000 A 
ATOM     11  C   UNL     1      -5.207   3.090   1.546  0.00  0.00    +0.007 A 
ATOM     12  C   UNL     1      -4.699   3.778   2.628  0.00  0.00    -0.006 A 
ATOM     13  C   UNL     1      -5.091   3.407   4.032  0.00  0.00    +0.147 C 
ATOM     14  N   UNL     1      -4.012   2.680   4.726  0.00  0.00    -0.268 N 
ATOM     15  C   UNL     1      -4.278   1.616   5.508  0.00  0.00    +0.308 C 
ATOM     16  O   UNL     1      -3.383   1.085   6.137  0.00  0.00    -0.252 OA
ATOM     17  N   UNL     1      -5.536   1.140   5.595  0.00  0.00    -0.269 N 
ATOM     18  H   UNL     1      -6.329   1.566   4.962  0.00  0.00    +0.156 HD
ENDROOT
BRANCH   1  22
ATOM     19  C   UNL     1      -1.128   1.744   0.793  0.00  0.00    -0.048 A 
ATOM     20  C   UNL     1      -2.070   1.006   1.484  0.00  0.00    +0.004 A 
ATOM     21  C   UNL     1      -2.553   1.462   2.696  0.00  0.00    +0.006 A 
ATOM     22  C   UNL     1      -2.100   2.662   3.213  0.00  0.00    -0.021 A 
ATOM     23  C   UNL     1      -1.161   3.402   2.520  0.00  0.00    +0.006 A 
ATOM     24  C   UNL     1      -0.675   2.944   1.309  0.00  0.00    +0.004 A 
BRANCH  19  26
ATOM     25  C   UNL     1       0.640   0.379  -0.284  0.00  0.00    +0.009 C 
ATOM     26  C   UNL     1      -0.598   1.244  -0.527  0.00  0.00    +0.032 C 
ENDBRANCH  19  26
ENDBRANCH   1  22
BRANCH  17  27
ATOM     27  C   UNL     1      -5.833   0.105   6.488  0.00  0.00    +0.035 A 
ATOM     28  C   UNL     1      -6.809  -0.830   6.170  0.00  0.00    +0.023 A 
ATOM     29  C   UNL     1      -7.096  -1.853   7.052  0.00  0.00    +0.006 A 
ATOM     30  C   UNL     1      -6.421  -1.941   8.255  0.00  0.00    -0.037 A 
ATOM     31  C   UNL     1      -5.453  -1.008   8.578  0.00  0.00    +0.006 A 
ATOM     32  C   UNL     1      -5.157   0.015   7.698  0.00  0.00    +0.023 A 
BRANCH  30  33
ATOM     33  C   UNL     1      -6.742  -3.055   9.218  0.00  0.00    +0.155 C 
BRANCH  33  34
ATOM     34  C   UNL     1      -7.838  -2.612  10.152  0.00  0.00    +0.311 C 
ATOM     35  O   UNL     1      -8.310  -1.504  10.047  0.00  0.00    -0.250 OA
BRANCH  34  36
ATOM     36  O   UNL     1      -8.290  -3.447  11.101  0.00  0.00    -0.465 OA
BRANCH  36  37
ATOM     37  C   UNL     1      -9.347  -2.953  11.965  0.00  0.00    +0.229 C 
ATOM     38  C   UNL     1      -9.728  -4.036  12.976  0.00  0.00    +0.048 C 
ENDBRANCH  36  37
ENDBRANCH  34  36
ENDBRANCH  33  34
ENDBRANCH  30  33
ENDBRANCH  17  27
TORSDOF 7
