REMARK  Name = ZINC61954520
REMARK  5 active torsions:
REMARK  status: ('A' for Active; 'I' for Inactive)
REMARK    1  A    between atoms: C_1  and  N_2
REMARK    2  A    between atoms: N_2  and  C_3
REMARK    3  A    between atoms: C_7  and  C_9
REMARK    4  A    between atoms: C_11  and  C_13
REMARK    5  A    between atoms: C_18  and  O_19
REMARK                            x       y       z     vdW  Elec       q    Type
REMARK                         _______ _______ _______ _____ _____    ______ ____
ROOT
ATOM      1  C   UNL     1      -1.198   1.120  -0.137  0.00  0.00    +0.138 C 
ATOM      2  N   UNL     1      -0.586  -0.211  -0.102  0.00  0.00    -0.270 N 
ATOM      3  C   UNL     1      -0.130  -0.773  -1.239  0.00  0.00    +0.254 C 
ATOM      4  O   UNL     1       0.302  -1.910  -1.225  0.00  0.00    -0.270 OA
ENDROOT
BRANCH   3   5
ATOM      5  C   UNL     1      -0.155  -0.009  -2.500  0.00  0.00    +0.079 A 
ATOM      6  C   UNL     1      -0.103   1.387  -2.477  0.00  0.00    +0.018 A 
ATOM      7  C   UNL     1      -0.127   2.095  -3.659  0.00  0.00    +0.016 A 
ATOM      8  C   UNL     1      -0.202   1.428  -4.872  0.00  0.00    +0.021 A 
ATOM      9  C   UNL     1      -0.254   0.048  -4.909  0.00  0.00    +0.061 A 
ATOM     10  C   UNL     1      -0.224  -0.680  -3.729  0.00  0.00    +0.130 A 
ATOM     11 BR   UNL     1      -0.234   2.413  -6.486  0.00  0.00    -0.050 Br
BRANCH  10  12
ATOM     12  O   UNL     1      -0.268  -2.036  -3.764  0.00  0.00    -0.506 OA
ATOM     13  H   UNL     1      -1.163  -2.401  -3.739  0.00  0.00    +0.292 HD
ENDBRANCH  10  12
ENDBRANCH   3   5
BRANCH   2  14
ATOM     14  C   UNL     1      -0.476  -0.899   1.111  0.00  0.00    +0.037 A 
ATOM     15  C   UNL     1       0.255  -2.079   1.177  0.00  0.00    +0.023 A 
ATOM     16  C   UNL     1       0.367  -2.763   2.373  0.00  0.00    +0.003 A 
ATOM     17  C   UNL     1      -0.246  -2.278   3.510  0.00  0.00    +0.019 A 
ATOM     18  C   UNL     1      -0.982  -1.093   3.455  0.00  0.00    +0.054 A 
ATOM     19  C   UNL     1      -1.091  -0.400   2.249  0.00  0.00    +0.042 A 
BRANCH  18  20
ATOM     20  C   UNL     1      -1.620  -0.587   4.634  0.00  0.00    +0.099 C 
ATOM     21  N   UNL     1      -2.125  -0.186   5.569  0.00  0.00    -0.191 NA
ENDBRANCH  18  20
ENDBRANCH   2  14
TORSDOF 4
