REMARK  Name = ZINC02858553
REMARK  8 active torsions:
REMARK  status: ('A' for Active; 'I' for Inactive)
REMARK    1  A    between atoms: C_1  and  O_2
REMARK    2  A    between atoms: O_2  and  C_3
REMARK    3  A    between atoms: C_3  and  C_5
REMARK    4  A    between atoms: C_10  and  N_14
REMARK    5  A    between atoms: N_14  and  C_15
REMARK    6  A    between atoms: C_15  and  N_17
REMARK    7  A    between atoms: N_17  and  N_18
REMARK    8  A    between atoms: C_19  and  C_21
REMARK                            x       y       z     vdW  Elec       q    Type
REMARK                         _______ _______ _______ _____ _____    ______ ____
ROOT
ATOM      1  C   UNL     1       7.010  -3.040   4.228  0.00  0.00    +0.151 C 
ATOM      2  S   UNL     1       8.331  -3.109   5.314  0.00  0.00    -0.017 S 
ENDROOT
BRANCH   1   3
ATOM      3  N   UNL     1       6.363  -4.171   3.881  0.00  0.00    -0.296 N 
ATOM      4  H   UNL     1       5.577  -4.125   3.315  0.00  0.00    +0.154 HD
BRANCH   3  10
ATOM      5  C   UNL     1       8.258 -10.142   4.636  0.00  0.00    +0.116 A 
ATOM      6  C   UNL     1       8.210  -9.183   5.602  0.00  0.00    +0.070 A 
ATOM      7  C   UNL     1       7.763  -7.888   5.282  0.00  0.00    +0.008 A 
ATOM      8  C   UNL     1       7.642  -6.765   6.142  0.00  0.00    +0.012 A 
ATOM      9  C   UNL     1       7.190  -5.576   5.674  0.00  0.00    +0.024 A 
ATOM     10  C   UNL     1       6.826  -5.408   4.336  0.00  0.00    +0.034 A 
ATOM     11  C   UNL     1       6.923  -6.483   3.465  0.00  0.00    +0.039 A 
ATOM     12  C   UNL     1       7.388  -7.693   3.931  0.00  0.00    +0.023 A 
ATOM     13  S   UNL     1       7.669  -9.280   3.188  0.00  0.00    -0.080 S 
ATOM     14 CL   UNL     1       8.701  -9.557   7.224  0.00  0.00    -0.082 Cl
BRANCH   5  15
ATOM     15  C   UNL     1       8.687 -11.538   4.755  0.00  0.00    +0.347 C 
ATOM     16  O   UNL     1       9.065 -11.968   5.828  0.00  0.00    -0.244 OA
BRANCH  15  18
ATOM     17  C   UNL     1       9.104 -13.716   3.868  0.00  0.00    +0.280 C 
ATOM     18  O   UNL     1       8.664 -12.346   3.675  0.00  0.00    -0.464 OA
ENDBRANCH  15  18
ENDBRANCH   5  15
ENDBRANCH   3  10
ENDBRANCH   1   3
BRANCH   1  19
ATOM     19  N   UNL     1       6.616  -1.856   3.720  0.00  0.00    -0.245 N 
ATOM     20  H   UNL     1       7.082  -1.042   3.970  0.00  0.00    +0.172 HD
BRANCH  19  21
ATOM     21  N   UNL     1       5.535  -1.800   2.831  0.00  0.00    -0.231 N 
ATOM     22  C   UNL     1       5.141  -0.615   2.323  0.00  0.00    +0.260 C 
ATOM     23  O   UNL     1       5.724   0.405   2.636  0.00  0.00    -0.269 OA
ATOM     24  H   UNL     1       5.069  -2.613   2.581  0.00  0.00    +0.173 HD
BRANCH  22  25
ATOM     25  C   UNL     1       4.002  -0.556   1.386  0.00  0.00    +0.042 A 
ATOM     26  C   UNL     1       3.330  -1.727   1.025  0.00  0.00    +0.017 A 
ATOM     27  C   UNL     1       2.267  -1.669   0.151  0.00  0.00    +0.050 A 
ATOM     28  C   UNL     1       1.858  -0.451  -0.373  0.00  0.00    +0.166 A 
ATOM     29  C   UNL     1       2.524   0.723  -0.017  0.00  0.00    +0.167 A 
ATOM     30  C   UNL     1       3.591   0.671   0.859  0.00  0.00    +0.062 A 
ATOM     31  O   UNL     1       1.935   1.772  -0.662  0.00  0.00    -0.453 OA
ATOM     32  C   UNL     1       0.650   1.284  -1.093  0.00  0.00    +0.466 C 
ATOM     33  O   UNL     1       0.854  -0.134  -1.240  0.00  0.00    -0.453 OA
ENDBRANCH  22  25
ENDBRANCH  19  21
ENDBRANCH   1  19
TORSDOF 7
