REMARK  Name = ZINC23078081
REMARK  12 active torsions:
REMARK  status: ('A' for Active; 'I' for Inactive)
REMARK    1  A    between atoms: C_1  and  C_2
REMARK    2  A    between atoms: C_2  and  C_3
REMARK    3  A    between atoms: C_3  and  C_4
REMARK    4  A    between atoms: C_4  and  N_5
REMARK    5  A    between atoms: C_6  and  N_36
REMARK    6  A    between atoms: C_7  and  N_14
REMARK    7  A    between atoms: N_14  and  C_15
REMARK    8  A    between atoms: C_15  and  C_16
REMARK    9  A    between atoms: C_16  and  C_17
REMARK   10  A    between atoms: C_16  and  C_18
REMARK   11  A    between atoms: C_19  and  C_21
REMARK   12  A    between atoms: C_27  and  C_29
REMARK                            x       y       z     vdW  Elec       q    Type
REMARK                         _______ _______ _______ _____ _____    ______ ____
ROOT
ATOM      1  N   UNL     1      -4.853  -3.765   3.030  0.00  0.00    -0.264 N 
ATOM      2  C   UNL     1      -4.136  -3.684   4.170  0.00  0.00    +0.223 C 
ATOM      3  O   UNL     1      -4.611  -4.078   5.215  0.00  0.00    -0.275 OA
ENDROOT
BRANCH   1   6
ATOM      4  N   UNL     1      -3.583  -3.495  -0.407  0.00  0.00    -0.280 N 
ATOM      5  C   UNL     1      -4.086  -4.046   0.749  0.00  0.00    +0.127 A 
ATOM      6  C   UNL     1      -4.337  -3.229   1.832  0.00  0.00    +0.140 A 
ATOM      7  C   UNL     1      -4.068  -1.852   1.721  0.00  0.00    +0.277 A 
ATOM      8  O   UNL     1      -4.279  -1.108   2.663  0.00  0.00    -0.266 OA
ATOM      9  N   UNL     1      -3.575  -1.362   0.567  0.00  0.00    -0.273 N 
ATOM     10  H   UNL     1      -3.389  -0.413   0.489  0.00  0.00    +0.173 HD
ATOM     11  C   UNL     1      -3.332  -2.175  -0.477  0.00  0.00    +0.331 A 
ATOM     12  O   UNL     1      -2.882  -1.707  -1.506  0.00  0.00    -0.246 OA
BRANCH   5  13
ATOM     13  N   UNL     1      -4.338  -5.396   0.822  0.00  0.00    -0.343 N 
ATOM     14  H   UNL     1      -4.240  -5.951   0.033  0.00  0.00    +0.144 HD
ATOM     15  H   UNL     1      -4.613  -5.792   1.664  0.00  0.00    +0.144 HD
ENDBRANCH   5  13
BRANCH   4  16
ATOM     16  C   UNL     1      -3.312  -4.350  -1.565  0.00  0.00    +0.128 C 
BRANCH  16  17
ATOM     17  C   UNL     1      -1.878  -4.877  -1.486  0.00  0.00    +0.021 C 
BRANCH  17  19
ATOM     18  C   UNL     1      -0.162  -6.297  -2.617  0.00  0.00    +0.004 C 
ATOM     19  C   UNL     1      -1.596  -5.771  -2.695  0.00  0.00    -0.002 C 
ENDBRANCH  17  19
ENDBRANCH  16  17
ENDBRANCH   4  16
ENDBRANCH   1   6
BRANCH   2  20
ATOM     20  C   UNL     1      -2.745  -3.104   4.146  0.00  0.00    +0.078 C 
ATOM     21  C   UNL     1      -1.769  -4.143   3.589  0.00  0.00    +0.032 C 
ATOM     22  C   UNL     1      -0.363  -3.538   3.533  0.00  0.00    +0.109 C 
ATOM     23  N   UNL     1      -0.011  -3.035   4.868  0.00  0.00    -0.297 N 
ATOM     24  C   UNL     1      -0.928  -2.099   5.534  0.00  0.00    +0.109 C 
ATOM     25  C   UNL     1      -2.328  -2.720   5.567  0.00  0.00    +0.032 C 
ATOM     26  C   UNL     1       1.130  -3.424   5.470  0.00  0.00    +0.247 C 
ATOM     27  O   UNL     1       1.354  -3.095   6.618  0.00  0.00    -0.270 OA
BRANCH  26  28
ATOM     28  C   UNL     1       2.109  -4.250   4.733  0.00  0.00    +0.037 A 
ATOM     29  C   UNL     1       2.433  -3.941   3.411  0.00  0.00    +0.014 A 
ATOM     30  C   UNL     1       3.348  -4.716   2.729  0.00  0.00    +0.021 A 
ATOM     31  C   UNL     1       3.944  -5.799   3.353  0.00  0.00    +0.041 A 
ATOM     32  C   UNL     1       3.627  -6.111   4.665  0.00  0.00    +0.021 A 
ATOM     33  C   UNL     1       2.718  -5.340   5.359  0.00  0.00    +0.014 A 
ATOM     34 CL   UNL     1       5.094  -6.770   2.488  0.00  0.00    -0.084 Cl
ENDBRANCH  26  28
ENDBRANCH   2  20
BRANCH   1  35
ATOM     35  C   UNL     1      -6.169  -4.410   3.037  0.00  0.00    +0.117 C 
BRANCH  35  36
ATOM     36  C   UNL     1      -7.239  -3.381   3.407  0.00  0.00    +0.001 C 
ATOM     37  C   UNL     1      -7.355  -2.342   2.289  0.00  0.00    +0.009 C 
ATOM     38  C   UNL     1      -8.584  -4.087   3.589  0.00  0.00    +0.009 C 
ENDBRANCH  35  36
ENDBRANCH   1  35
TORSDOF 9
