REMARK  Name = ZINC39949128
REMARK  10 active torsions:
REMARK  status: ('A' for Active; 'I' for Inactive)
REMARK    1  A    between atoms: C_1  and  C_2
REMARK    2  A    between atoms: C_2  and  N_3
REMARK    3  A    between atoms: N_3  and  C_4
REMARK    4  A    between atoms: N_3  and  S_6
REMARK    5  A    between atoms: C_4  and  C_5
REMARK    6  A    between atoms: S_6  and  C_9
REMARK    7  A    between atoms: C_12  and  N_18
REMARK    8  A    between atoms: C_13  and  N_15
REMARK    9  A    between atoms: N_18  and  N_19
REMARK   10  A    between atoms: C_20  and  C_21
REMARK                            x       y       z     vdW  Elec       q    Type
REMARK                         _______ _______ _______ _____ _____    ______ ____
ROOT
ATOM      1  C   UNL     1      -0.555   0.501  -3.669  0.00  0.00    +0.108 A 
ATOM      2  C   UNL     1      -1.444   1.512  -3.346  0.00  0.00    +0.030 A 
ATOM      3  C   UNL     1      -1.347   2.742  -3.962  0.00  0.00    +0.029 A 
ATOM      4  C   UNL     1      -0.352   2.966  -4.912  0.00  0.00    +0.079 A 
ATOM      5  C   UNL     1       0.540   1.945  -5.234  0.00  0.00    +0.150 A 
ATOM      6  C   UNL     1       0.438   0.720  -4.607  0.00  0.00    +0.063 A 
ENDROOT
BRANCH   1   7
ATOM      7  S   UNL     1      -0.684  -1.068  -2.877  0.00  0.00    +0.061 S 
ATOM      8  O   UNL     1      -0.074  -2.013  -3.746  0.00  0.00    -0.153 OA
ATOM      9  O   UNL     1      -2.031  -1.193  -2.441  0.00  0.00    -0.153 OA
BRANCH   7  10
ATOM     10  N   UNL     1       0.251  -1.006  -1.512  0.00  0.00    -0.177 NA
BRANCH  10  12
ATOM     11  C   UNL     1      -0.062   0.932  -0.055  0.00  0.00    +0.022 C 
ATOM     12  C   UNL     1      -0.332  -0.562  -0.244  0.00  0.00    +0.106 C 
ENDBRANCH  10  12
BRANCH  10  13
ATOM     13  C   UNL     1       1.662  -1.397  -1.573  0.00  0.00    +0.106 C 
ATOM     14  C   UNL     1       1.804  -2.864  -1.162  0.00  0.00    +0.022 C 
ENDBRANCH  10  13
ENDBRANCH   7  10
ENDBRANCH   1   7
BRANCH   5  15
ATOM     15  N   UNL     1       1.599   2.176  -6.242  0.00  0.00    +0.058 N 
ATOM     16  O   UNL     1       1.347   2.912  -7.305  0.00  0.00    -0.126 OA
ATOM     17  O   UNL     1       2.793   1.647  -6.075  0.00  0.00    -0.126 OA
ENDBRANCH   5  15
BRANCH   4  18
ATOM     18  N   UNL     1      -0.251   4.200  -5.535  0.00  0.00    -0.236 N 
ATOM     19  H   UNL     1       0.489   4.381  -6.136  0.00  0.00    +0.174 HD
BRANCH  18  20
ATOM     20  N   UNL     1      -1.141   5.108  -5.316  0.00  0.00    -0.190 NA
ATOM     21  C   UNL     1      -1.043   6.293  -5.914  0.00  0.00    +0.136 C 
BRANCH  21  22
ATOM     22  C   UNL     1      -1.994   7.263  -5.680  0.00  0.00    +0.000 C 
ATOM     23  C   UNL     1      -2.058   8.611  -6.246  0.00  0.00    +0.005 A 
ATOM     24  C   UNL     1      -1.256   9.310  -7.132  0.00  0.00    +0.025 A 
ATOM     25  C   UNL     1      -1.580  10.616  -7.494  0.00  0.00    +0.019 A 
ATOM     26  C   UNL     1      -2.705  11.263  -6.989  0.00  0.00    +0.017 A 
ATOM     27  C   UNL     1      -3.549  10.651  -6.114  0.00  0.00    +0.027 A 
ATOM     28  C   UNL     1      -3.265   9.267  -5.688  0.00  0.00    +0.043 A 
ATOM     29  N   UNL     1      -3.893   8.466  -4.879  0.00  0.00    -0.380 N 
ATOM     30  C   UNL     1      -3.213   7.173  -4.784  0.00  0.00    +0.150 C 
ATOM     31 BR   UNL     1      -0.458  11.538  -8.705  0.00  0.00    -0.050 Br
ATOM     32  H   UNL     1      -4.708   8.693  -4.405  0.00  0.00    +0.160 HD
ENDBRANCH  21  22
ENDBRANCH  18  20
ENDBRANCH   4  18
TORSDOF 8
