REMARK  Name = ZINC22322502
REMARK  12 active torsions:
REMARK  status: ('A' for Active; 'I' for Inactive)
REMARK    1  A    between atoms: C_1  and  C_2
REMARK    2  A    between atoms: C_2  and  O_3
REMARK    3  A    between atoms: O_3  and  C_4
REMARK    4  A    between atoms: C_7  and  N_10
REMARK    5  A    between atoms: N_10  and  C_11
REMARK    6  A    between atoms: N_10  and  S_28
REMARK    7  A    between atoms: C_11  and  C_12
REMARK    8  A    between atoms: N_14  and  C_15
REMARK    9  A    between atoms: C_15  and  C_16
REMARK   10  A    between atoms: C_20  and  N_22
REMARK   11  A    between atoms: S_28  and  C_31
REMARK   12  A    between atoms: C_34  and  C_37
REMARK                            x       y       z     vdW  Elec       q    Type
REMARK                         _______ _______ _______ _____ _____    ______ ____
ROOT
ATOM      1  N   UNL     1       0.070  -5.872  -3.526  0.00  0.00    -0.194 N 
ENDROOT
BRANCH   1   5
ATOM      2  C   UNL     1       4.021  -7.103  -4.029  0.00  0.00    +0.121 A 
ATOM      3  C   UNL     1       3.745  -5.905  -3.386  0.00  0.00    +0.047 A 
ATOM      4  C   UNL     1       2.436  -5.497  -3.219  0.00  0.00    +0.028 A 
ATOM      5  C   UNL     1       1.397  -6.285  -3.695  0.00  0.00    +0.052 A 
ATOM      6  C   UNL     1       1.674  -7.487  -4.333  0.00  0.00    +0.028 A 
ATOM      7  C   UNL     1       2.984  -7.891  -4.505  0.00  0.00    +0.047 A 
BRANCH   2   8
ATOM      8  O   UNL     1       5.310  -7.504  -4.192  0.00  0.00    -0.492 OA
BRANCH   8  10
ATOM      9  C   UNL     1       7.023  -9.031  -4.952  0.00  0.00    +0.048 C 
ATOM     10  C   UNL     1       5.522  -8.748  -4.863  0.00  0.00    +0.225 C 
ENDBRANCH   8  10
ENDBRANCH   2   8
ENDBRANCH   1   5
BRANCH   1  11
ATOM     11  S   UNL     1      -1.145  -6.995  -3.463  0.00  0.00    +0.075 S 
ATOM     12  O   UNL     1      -0.538  -8.232  -3.113  0.00  0.00    -0.150 OA
ATOM     13  O   UNL     1      -2.192  -6.417  -2.696  0.00  0.00    -0.150 OA
BRANCH  11  14
ATOM     14  C   UNL     1      -1.765  -7.184  -5.101  0.00  0.00    +0.109 A 
ATOM     15  C   UNL     1      -2.726  -6.314  -5.581  0.00  0.00    +0.029 A 
ATOM     16  C   UNL     1      -3.210  -6.460  -6.868  0.00  0.00    +0.005 A 
ATOM     17  C   UNL     1      -2.739  -7.482  -7.672  0.00  0.00    -0.050 A 
ATOM     18  C   UNL     1      -1.782  -8.354  -7.190  0.00  0.00    +0.005 A 
ATOM     19  C   UNL     1      -1.295  -8.206  -5.905  0.00  0.00    +0.029 A 
ATOM     20  C   UNL     1      -3.270  -7.643  -9.073  0.00  0.00    +0.044 C 
ENDBRANCH  11  14
ENDBRANCH   1  11
BRANCH   1  21
ATOM     21  C   UNL     1      -0.243  -4.446  -3.405  0.00  0.00    +0.227 C 
BRANCH  21  22
ATOM     22  C   UNL     1      -0.078  -4.016  -1.971  0.00  0.00    +0.232 C 
ATOM     23  O   UNL     1       0.267  -4.820  -1.132  0.00  0.00    -0.274 OA
ATOM     24  N   UNL     1      -0.314  -2.736  -1.620  0.00  0.00    -0.310 N 
ATOM     25  H   UNL     1      -0.627  -2.006  -2.381  0.00  0.00    +0.149 HD
BRANCH  24  26
ATOM     26  C   UNL     1      -0.154  -2.317  -0.225  0.00  0.00    +0.139 C 
BRANCH  26  27
ATOM     27  C   UNL     1      -0.476  -0.850  -0.101  0.00  0.00    -0.029 A 
ATOM     28  C   UNL     1       0.524   0.092  -0.258  0.00  0.00    +0.005 A 
ATOM     29  C   UNL     1       0.232   1.439  -0.145  0.00  0.00    +0.002 A 
ATOM     30  C   UNL     1      -1.060   1.847   0.125  0.00  0.00    +0.023 A 
ATOM     31  C   UNL     1      -2.066   0.903   0.283  0.00  0.00    +0.037 A 
ATOM     32  C   UNL     1      -1.770  -0.449   0.169  0.00  0.00    +0.028 A 
BRANCH  31  33
ATOM     33  N   UNL     1      -3.377   1.314   0.550  0.00  0.00    -0.271 N 
ATOM     34  C   UNL     1      -4.532   0.411   0.606  0.00  0.00    +0.114 C 
ATOM     35  C   UNL     1      -5.774   1.322   0.488  0.00  0.00    +0.029 C 
ATOM     36  C   UNL     1      -5.231   2.666   1.028  0.00  0.00    +0.098 C 
ATOM     37  C   UNL     1      -3.739   2.585   0.795  0.00  0.00    +0.220 C 
ATOM     38  O   UNL     1      -2.979   3.530   0.822  0.00  0.00    -0.275 OA
ENDBRANCH  31  33
ENDBRANCH  26  27
ENDBRANCH  24  26
ENDBRANCH  21  22
ENDBRANCH   1  21
TORSDOF 10
