REMARK  Name = ZINC39893383
REMARK  5 active torsions:
REMARK  status: ('A' for Active; 'I' for Inactive)
REMARK    1  A    between atoms: C_1  and  C_2
REMARK    2  A    between atoms: C_3  and  C_25
REMARK    3  A    between atoms: N_6  and  C_19
REMARK    4  A    between atoms: C_10  and  N_11
REMARK    5  A    between atoms: N_11  and  C_12
REMARK                            x       y       z     vdW  Elec       q    Type
REMARK                         _______ _______ _______ _____ _____    ______ ____
ROOT
ATOM      1  C   UNL     1      -0.155   1.482   0.004  0.00  0.00    +0.046 C 
ATOM      2  C   UNL     1       0.002  -0.017   0.002  0.00  0.00    -0.015 C 
ATOM      3  C   UNL     1       0.072  -0.719  -1.193  0.00  0.00    +0.118 C 
ATOM      4  C   UNL     1       0.224  -2.175  -1.168  0.00  0.00    +0.264 C 
ATOM      5  O   UNL     1       0.285  -2.791  -2.216  0.00  0.00    -0.269 OA
ATOM      6  N   UNL     1       0.297  -2.839  -0.001  0.00  0.00    -0.230 N 
ATOM      7  C   UNL     1       0.233  -2.194   1.177  0.00  0.00    +0.255 C 
ATOM      8  O   UNL     1       0.302  -2.823   2.216  0.00  0.00    -0.269 OA
ATOM      9  C   UNL     1       0.086  -0.733   1.216  0.00  0.00    +0.055 C 
ATOM     10  C   UNL     1       0.026  -0.063   2.435  0.00  0.00    +0.085 C 
ENDROOT
BRANCH   6  11
ATOM     11  C   UNL     1       0.449  -4.296  -0.014  0.00  0.00    +0.085 C 
ATOM     12  C   UNL     1      -0.743  -4.927  -0.736  0.00  0.00    +0.023 C 
ATOM     13  C   UNL     1      -0.585  -6.449  -0.749  0.00  0.00    +0.002 C 
ATOM     14  C   UNL     1       0.708  -6.820  -1.479  0.00  0.00    +0.000 C 
ATOM     15  C   UNL     1       1.900  -6.189  -0.757  0.00  0.00    +0.002 C 
ATOM     16  C   UNL     1       1.742  -4.668  -0.744  0.00  0.00    +0.023 C 
ENDBRANCH   6  11
BRANCH  10  17
ATOM     17  N   UNL     1      -0.055  -0.761   3.583  0.00  0.00    -0.320 N 
ATOM     18  H   UNL     1      -0.042  -1.730   3.563  0.00  0.00    +0.152 HD
BRANCH  17  19
ATOM     19  C   UNL     1      -0.158  -0.088   4.803  0.00  0.00    +0.031 A 
ATOM     20  C   UNL     1      -0.182   1.301   4.833  0.00  0.00    +0.024 A 
ATOM     21  C   UNL     1      -0.284   1.962   6.041  0.00  0.00    +0.017 A 
ATOM     22  C   UNL     1      -0.361   1.244   7.221  0.00  0.00    +0.018 A 
ATOM     23  C   UNL     1      -0.337  -0.140   7.194  0.00  0.00    +0.017 A 
ATOM     24  C   UNL     1      -0.242  -0.807   5.989  0.00  0.00    +0.024 A 
ATOM     25 BR   UNL     1      -0.499   2.154   8.872  0.00  0.00    -0.050 Br
ENDBRANCH  17  19
ENDBRANCH  10  17
BRANCH   3  26
ATOM     26  C   UNL     1      -0.005  -0.024  -2.443  0.00  0.00    +0.105 C 
ATOM     27  N   UNL     1      -0.066   0.527  -3.434  0.00  0.00    -0.191 NA
ENDBRANCH   3  26
TORSDOF 4
