REMARK  Name = ZINC01410741
REMARK  4 active torsions:
REMARK  status: ('A' for Active; 'I' for Inactive)
REMARK    1  A    between atoms: C_1  and  O_2
REMARK    2  A    between atoms: O_2  and  C_3
REMARK    3  A    between atoms: C_6  and  C_10
REMARK    4  A    between atoms: N_11  and  N_12
REMARK                            x       y       z     vdW  Elec       q    Type
REMARK                         _______ _______ _______ _____ _____    ______ ____
ROOT
ATOM      1  C   UNL     1       2.492  -2.493  -4.360  0.00  0.00    +0.140 C 
ATOM      2  N   UNL     1       3.757  -2.775  -4.311  0.00  0.00    -0.179 NA
ENDROOT
BRANCH   2   3
ATOM      3  N   UNL     1       4.380  -3.398  -5.401  0.00  0.00    -0.249 N 
ATOM      4  C   UNL     1       5.715  -3.696  -5.348  0.00  0.00    +0.187 C 
ATOM      5  N   UNL     1       6.307  -4.288  -6.385  0.00  0.00    -0.370 N 
ATOM      6  N   UNL     1       6.423  -3.394  -4.260  0.00  0.00    -0.370 N 
ATOM      7  H   UNL     1       3.864  -3.618  -6.193  0.00  0.00    +0.192 HD
ATOM      8  H   UNL     1       5.792  -4.508  -7.177  0.00  0.00    +0.159 HD
ATOM      9  H   UNL     1       5.992  -2.963  -3.506  0.00  0.00    +0.159 HD
ATOM     10  H   UNL     1       7.369  -3.605  -4.223  0.00  0.00    +0.159 HD
ATOM     11  H   UNL     1       7.253  -4.499  -6.348  0.00  0.00    +0.159 HD
ENDBRANCH   2   3
BRANCH   1  15
ATOM     12  C   UNL     1       0.606  -0.607  -1.056  0.00  0.00    +0.148 A 
ATOM     13  C   UNL     1      -0.134  -0.920  -2.189  0.00  0.00    +0.061 A 
ATOM     14  C   UNL     1       0.475  -1.533  -3.265  0.00  0.00    +0.028 A 
ATOM     15  C   UNL     1       1.837  -1.838  -3.213  0.00  0.00    -0.003 A 
ATOM     16  C   UNL     1       2.577  -1.520  -2.071  0.00  0.00    +0.028 A 
ATOM     17  C   UNL     1       1.962  -0.903  -1.002  0.00  0.00    +0.061 A 
ATOM     18 BR   UNL     1       2.964  -0.467   0.541  0.00  0.00    -0.046 Br
ATOM     19 BR   UNL     1      -1.978  -0.507  -2.257  0.00  0.00    -0.046 Br
BRANCH  12  21
ATOM     20  C   UNL     1      -0.017   1.425   0.010  0.00  0.00    +0.277 C 
ATOM     21  O   UNL     1       0.002  -0.004   0.002  0.00  0.00    -0.493 OA
ENDBRANCH  12  21
ENDBRANCH   1  15
TORSDOF 3
