REMARK  Name = ZINC57614195
REMARK  8 active torsions:
REMARK  status: ('A' for Active; 'I' for Inactive)
REMARK    1  A    between atoms: C_1  and  C_2
REMARK    2  A    between atoms: C_7  and  C_8
REMARK    3  A    between atoms: C_7  and  C_9
REMARK    4  A    between atoms: C_11  and  N_13
REMARK    5  A    between atoms: C_14  and  C_16
REMARK    6  A    between atoms: C_19  and  N_22
REMARK    7  A    between atoms: N_22  and  S_23
REMARK    8  A    between atoms: S_23  and  C_26
REMARK                            x       y       z     vdW  Elec       q    Type
REMARK                         _______ _______ _______ _____ _____    ______ ____
ROOT
ATOM      1  C   UNL     1      -4.545   0.516   1.842  0.00  0.00    +0.037 A 
ATOM      2  C   UNL     1      -3.978   1.218   2.909  0.00  0.00    +0.015 A 
ATOM      3  C   UNL     1      -4.787   1.890   3.796  0.00  0.00    +0.025 A 
ATOM      4  C   UNL     1      -6.169   1.871   3.632  0.00  0.00    +0.048 A 
ATOM      5  C   UNL     1      -6.737   1.172   2.571  0.00  0.00    +0.025 A 
ATOM      6  C   UNL     1      -5.933   0.503   1.677  0.00  0.00    +0.015 A 
ENDROOT
BRANCH   1   8
ATOM      7  N   UNL     1      -2.343  -0.193   1.049  0.00  0.00    -0.308 N 
ATOM      8  C   UNL     1      -3.681  -0.206   0.889  0.00  0.00    +0.244 C 
ATOM      9  O   UNL     1      -4.176  -0.812  -0.042  0.00  0.00    -0.270 OA
ATOM     10  H   UNL     1      -1.948   0.291   1.792  0.00  0.00    +0.149 HD
BRANCH   7  20
ATOM     11  C   UNL     1      -0.002   1.249   0.112  0.00  0.00    +0.013 C 
ATOM     12  C   UNL     1      -0.058  -0.279   0.078  0.00  0.00    -0.008 C 
ATOM     13  C   UNL     1       0.670  -0.961  -1.120  0.00  0.00    +0.009 C 
ATOM     14  C   UNL     1       0.906  -2.417  -0.657  0.00  0.00    +0.005 C 
ATOM     15  C   UNL     1       0.298  -2.477   0.778  0.00  0.00    -0.003 C 
ATOM     16  C   UNL     1       0.610  -1.025   1.286  0.00  0.00    -0.025 C 
ATOM     17  C   UNL     1      -0.093  -0.717   2.610  0.00  0.00    +0.012 C 
ATOM     18  C   UNL     1       2.114  -0.756   1.366  0.00  0.00    +0.012 C 
ATOM     19  C   UNL     1      -1.243  -2.401   0.552  0.00  0.00    +0.027 C 
ATOM     20  C   UNL     1      -1.484  -0.909   0.103  0.00  0.00    +0.080 C 
ENDBRANCH   7  20
ENDBRANCH   1   8
BRANCH   4  21
ATOM     21  N   UNL     1      -6.984   2.551   4.531  0.00  0.00    -0.216 N 
ATOM     22  H   UNL     1      -6.832   2.464   5.485  0.00  0.00    +0.174 HD
BRANCH  21  23
ATOM     23  S   UNL     1      -8.212   3.510   3.972  0.00  0.00    +0.072 S 
ATOM     24  O   UNL     1      -8.977   2.712   3.079  0.00  0.00    -0.150 OA
ATOM     25  O   UNL     1      -8.784   4.142   5.109  0.00  0.00    -0.150 OA
BRANCH  23  26
ATOM     26  C   UNL     1      -7.478   4.786   3.003  0.00  0.00    +0.112 A 
ATOM     27  C   UNL     1      -6.996   5.927   3.617  0.00  0.00    +0.032 A 
ATOM     28  C   UNL     1      -6.420   6.931   2.860  0.00  0.00    +0.051 A 
ATOM     29  C   UNL     1      -6.324   6.795   1.483  0.00  0.00    +0.162 A 
ATOM     30  C   UNL     1      -6.807   5.646   0.867  0.00  0.00    +0.164 A 
ATOM     31  C   UNL     1      -7.381   4.642   1.632  0.00  0.00    +0.078 A 
ATOM     32  O   UNL     1      -6.716   5.489  -0.482  0.00  0.00    -0.485 OA
ATOM     33  C   UNL     1      -6.470   6.671  -1.252  0.00  0.00    +0.270 C 
ATOM     34  C   UNL     1      -5.340   7.459  -0.577  0.00  0.00    +0.270 C 
ATOM     35  O   UNL     1      -5.758   7.793   0.751  0.00  0.00    -0.485 OA
ENDBRANCH  23  26
ENDBRANCH  21  23
ENDBRANCH   4  21
TORSDOF 5
