REMARK  Name = ZINC11783216
REMARK  9 active torsions:
REMARK  status: ('A' for Active; 'I' for Inactive)
REMARK    1  A    between atoms: C_1  and  C_2
REMARK    2  A    between atoms: C_5  and  C_7
REMARK    3  A    between atoms: C_7  and  N_67
REMARK    4  A    between atoms: C_10  and  C_13
REMARK    5  A    between atoms: C_13  and  C_28
REMARK    6  A    between atoms: N_16  and  C_20
REMARK    7  A    between atoms: C_20  and  C_21
REMARK    8  A    between atoms: C_21  and  C_22
REMARK    9  A    between atoms: C_28  and  C_29
REMARK                            x       y       z     vdW  Elec       q    Type
REMARK                         _______ _______ _______ _____ _____    ______ ____
ROOT
ATOM      1  C   UNL     1       1.221  -2.689  -1.465  0.00  0.00    +0.119 C 
ATOM      2  C   UNL     1       0.045  -2.109  -2.226  0.00  0.00    +0.247 C 
ATOM      3  O   UNL     1      -1.132  -2.264  -1.982  0.00  0.00    -0.273 OA
ATOM      4  N   UNL     1       0.581  -1.387  -3.230  0.00  0.00    -0.224 N 
ATOM      5  C   UNL     1       1.918  -1.430  -3.210  0.00  0.00    +0.309 C 
ATOM      6  O   UNL     1       2.624  -0.856  -4.015  0.00  0.00    -0.252 OA
ATOM      7  N   UNL     1       2.393  -2.178  -2.198  0.00  0.00    -0.284 N 
ATOM      8  H   UNL     1       3.325  -2.348  -1.991  0.00  0.00    +0.151 HD
ENDROOT
BRANCH   1  11
ATOM      9  C   UNL     1       1.214  -6.226  -2.985  0.00  0.00    -0.078 C 
ATOM     10  C   UNL     1       1.185  -4.696  -2.956  0.00  0.00    -0.013 C 
ATOM     11  C   UNL     1       1.189  -4.218  -1.501  0.00  0.00    +0.018 C 
ATOM     12  C   UNL     1       2.427  -4.773  -0.791  0.00  0.00    -0.013 C 
ATOM     13  C   UNL     1       2.420  -6.301  -0.885  0.00  0.00    -0.078 C 
ATOM     14  N   UNL     1       2.442  -6.696  -2.309  0.00  0.00    +0.383 N 
ATOM     15  H   UNL     1       3.257  -6.265  -2.762  0.00  0.00    -0.081 HD
BRANCH  14  16
ATOM     16  C   UNL     1       2.550  -8.165  -2.424  0.00  0.00    -0.036 C 
BRANCH  16  21
ATOM     17  C   UNL     1       7.263  -9.842   0.235  0.00  0.00    +0.051 C 
ATOM     18  C   UNL     1       5.889  -9.450  -0.244  0.00  0.00    -0.013 A 
ATOM     19  C   UNL     1       4.712  -9.469   0.429  0.00  0.00    +0.011 A 
ATOM     20  C   UNL     1       3.563  -9.054  -0.218  0.00  0.00    +0.009 A 
ATOM     21  C   UNL     1       3.645  -8.652  -1.510  0.00  0.00    -0.026 A 
ATOM     22  S   UNL     1       5.388  -8.841  -1.846  0.00  0.00    -0.100 S 
ENDBRANCH  16  21
ENDBRANCH  14  16
ENDBRANCH   1  11
BRANCH   4  23
ATOM     23  C   UNL     1      -0.204  -0.648  -4.222  0.00  0.00    +0.124 C 
BRANCH  23  24
ATOM     24  C   UNL     1      -0.501  -1.556  -5.417  0.00  0.00    +0.075 C 
BRANCH  24  25
ATOM     25  C   UNL     1      -1.308  -0.795  -6.437  0.00  0.00    +0.043 A 
ATOM     26  C   UNL     1      -0.855  -0.707  -7.740  0.00  0.00    +0.023 A 
ATOM     27  C   UNL     1      -1.605  -0.006  -8.671  0.00  0.00    +0.003 A 
ATOM     28  C   UNL     1      -2.789   0.584  -8.254  0.00  0.00    +0.020 A 
ATOM     29  C   UNL     1      -3.179   0.454  -6.935  0.00  0.00    +0.111 A 
ATOM     30  N   UNL     1      -2.442  -0.226  -6.078  0.00  0.00    -0.260 NA
ENDBRANCH  24  25
ENDBRANCH  23  24
ENDBRANCH   4  23
BRANCH   1  31
ATOM     31  C   UNL     1       1.229  -2.186  -0.021  0.00  0.00    +0.070 C 
BRANCH  31  32
ATOM     32  C   UNL     1       1.208  -0.679  -0.013  0.00  0.00    -0.045 A 
ATOM     33  C   UNL     1       0.002  -0.004   0.002  0.00  0.00    +0.004 A 
ATOM     34  C   UNL     1      -0.017   1.378   0.010  0.00  0.00    +0.000 A 
ATOM     35  C   UNL     1       1.171   2.086   0.002  0.00  0.00    +0.000 A 
ATOM     36  C   UNL     1       2.377   1.411  -0.015  0.00  0.00    +0.000 A 
ATOM     37  C   UNL     1       2.396   0.029  -0.021  0.00  0.00    +0.004 A 
ENDBRANCH  31  32
ENDBRANCH   1  31
TORSDOF 8
