REMARK  Name = ZINC21276672
REMARK  11 active torsions:
REMARK  status: ('A' for Active; 'I' for Inactive)
REMARK    1  A    between atoms: C_1  and  C_2
REMARK    2  A    between atoms: C_4  and  N_9
REMARK    3  A    between atoms: C_10  and  C_30
REMARK    4  A    between atoms: C_12  and  C_15
REMARK    5  A    between atoms: C_13  and  C_14
REMARK    6  A    between atoms: C_15  and  C_17
REMARK    7  A    between atoms: C_17  and  O_18
REMARK    8  A    between atoms: O_18  and  C_19
REMARK    9  A    between atoms: C_19  and  C_21
REMARK   10  A    between atoms: C_21  and  N_22
REMARK   11  A    between atoms: C_23  and  C_25
REMARK                            x       y       z     vdW  Elec       q    Type
REMARK                         _______ _______ _______ _____ _____    ______ ____
ROOT
ATOM      1  C   UNL     1      -0.018   1.460   0.010  0.00  0.00    +0.202 C 
ATOM      2  O   UNL     1      -1.077   2.052   0.018  0.00  0.00    -0.288 OA
ENDROOT
BRANCH   1   6
ATOM      3  N   UNL     1      -0.636  -2.120  -0.004  0.00  0.00    -0.317 N 
ATOM      4  C   UNL     1       0.731  -2.137  -0.016  0.00  0.00    +0.022 A 
ATOM      5  C   UNL     1       1.187  -0.873  -0.013  0.00  0.00    +0.034 A 
ATOM      6  C   UNL     1       0.002  -0.004   0.002  0.00  0.00    +0.042 A 
ATOM      7  C   UNL     1      -1.090  -0.852   0.013  0.00  0.00    +0.032 A 
ATOM      8  C   UNL     1      -2.537  -0.430   0.037  0.00  0.00    +0.064 C 
ATOM      9  C   UNL     1       1.589  -3.375  -0.031  0.00  0.00    +0.064 C 
BRANCH   3  13
ATOM     10  C   UNL     1      -2.255  -6.169  -2.279  0.00  0.00    +0.045 C 
ATOM     11  C   UNL     1      -2.254  -5.240  -1.092  0.00  0.00    -0.035 A 
ATOM     12  C   UNL     1      -1.456  -4.113  -1.099  0.00  0.00    +0.030 A 
ATOM     13  C   UNL     1      -1.451  -3.261  -0.002  0.00  0.00    +0.047 A 
ATOM     14  C   UNL     1      -2.258  -3.538   1.093  0.00  0.00    +0.027 A 
ATOM     15  C   UNL     1      -3.059  -4.663   1.092  0.00  0.00    +0.017 A 
ATOM     16  C   UNL     1      -3.058  -5.514   0.000  0.00  0.00    +0.021 A 
ATOM     17 BR   UNL     1      -4.156  -7.053   0.002  0.00  0.00    -0.050 Br
ENDBRANCH   3  13
ENDBRANCH   1   6
BRANCH   1  18
ATOM     18  C   UNL     1       1.277   2.231   0.002  0.00  0.00    +0.311 C 
BRANCH  18  19
ATOM     19  O   UNL     1       0.992   3.655   0.012  0.00  0.00    -0.455 OA
BRANCH  19  20
ATOM     20  C   UNL     1       2.046   4.487   0.007  0.00  0.00    +0.325 C 
ATOM     21  O   UNL     1       3.168   4.040  -0.006  0.00  0.00    -0.249 OA
BRANCH  20  22
ATOM     22  C   UNL     1       1.828   5.978   0.017  0.00  0.00    +0.225 C 
BRANCH  22  23
ATOM     23  N   UNL     1       3.124   6.661   0.008  0.00  0.00    -0.298 N 
ATOM     24  C   UNL     1       3.176   8.008   0.015  0.00  0.00    +0.280 C 
ATOM     25  O   UNL     1       2.147   8.657   0.028  0.00  0.00    -0.267 OA
ATOM     26  H   UNL     1       4.054   6.074  -0.004  0.00  0.00    +0.150 HD
BRANCH  24  27
ATOM     27  C   UNL     1       4.474   8.691   0.006  0.00  0.00    +0.189 A 
ATOM     28  C   UNL     1       4.669  10.043   0.011  0.00  0.00    +0.054 A 
ATOM     29  C   UNL     1       6.057  10.250  -0.000  0.00  0.00    +0.042 A 
ATOM     30  C   UNL     1       6.641   9.032  -0.012  0.00  0.00    +0.196 A 
ATOM     31  O   UNL     1       5.684   8.095  -0.003  0.00  0.00    -0.458 OA
ENDBRANCH  24  27
ENDBRANCH  22  23
ENDBRANCH  20  22
ENDBRANCH  19  20
ENDBRANCH  18  19
ENDBRANCH   1  18
TORSDOF 8
