REMARK  Name = ZINC00649903
REMARK  9 active torsions:
REMARK  status: ('A' for Active; 'I' for Inactive)
REMARK    1  A    between atoms: C_1  and  C_2
REMARK    2  A    between atoms: C_2  and  O_3
REMARK    3  A    between atoms: O_3  and  C_4
REMARK    4  A    between atoms: C_4  and  C_6
REMARK    5  A    between atoms: C_10  and  N_11
REMARK    6  A    between atoms: C_12  and  C_14
REMARK    7  A    between atoms: C_18  and  C_27
REMARK    8  A    between atoms: C_20  and  C_23
REMARK    9  A    between atoms: C_33  and  C_37
REMARK                            x       y       z     vdW  Elec       q    Type
REMARK                         _______ _______ _______ _____ _____    ______ ____
ROOT
ATOM      1  N   UNL     1      -2.572  -3.439   0.010  0.00  0.00    -0.274 N 
ATOM      2  C   UNL     1      -1.224  -3.443  -0.004  0.00  0.00    +0.269 C 
ATOM      3  O   UNL     1      -0.620  -4.498  -0.015  0.00  0.00    -0.268 OA
ATOM      4  H   UNL     1      -3.055  -2.598   0.019  0.00  0.00    +0.156 HD
ENDROOT
BRANCH   1   9
ATOM      5  C   UNL     1      -4.643  -4.837   0.029  0.00  0.00    +0.091 A 
ATOM      6  C   UNL     1      -5.121  -6.209   0.021  0.00  0.00    -0.021 A 
ATOM      7  C   UNL     1      -4.157  -7.154   0.006  0.00  0.00    -0.004 A 
ATOM      8  S   UNL     1      -2.635  -6.250  -0.004  0.00  0.00    -0.077 S 
ATOM      9  C   UNL     1      -3.268  -4.637   0.011  0.00  0.00    +0.087 A 
ATOM     10  C   UNL     1      -4.349  -8.640   0.000  0.00  0.00    +0.046 C 
ATOM     11  C   UNL     1      -5.810  -8.937  -0.365  0.00  0.00    -0.009 C 
ATOM     12  C   UNL     1      -6.722  -8.048   0.485  0.00  0.00    +0.008 C 
ATOM     13  C   UNL     1      -6.596  -6.592   0.034  0.00  0.00    +0.037 C 
ATOM     14  C   UNL     1      -6.119 -10.409  -0.086  0.00  0.00    +0.008 C 
BRANCH   5  15
ATOM     15  C   UNL     1      -5.574  -3.707   0.052  0.00  0.00    +0.342 C 
ATOM     16  O   UNL     1      -5.977  -3.230  -0.992  0.00  0.00    -0.245 OA
BRANCH  15  17
ATOM     17  O   UNL     1      -5.986  -3.196   1.230  0.00  0.00    -0.461 OA
BRANCH  17  19
ATOM     18  C   UNL     1      -7.260  -1.636   2.599  0.00  0.00    +0.048 C 
ATOM     19  C   UNL     1      -6.909  -2.076   1.176  0.00  0.00    +0.229 C 
ENDBRANCH  17  19
ENDBRANCH  15  17
ENDBRANCH   5  15
ENDBRANCH   1   9
BRANCH   2  20
ATOM     20  C   UNL     1      -0.482  -2.165  -0.004  0.00  0.00    +0.150 A 
ATOM     21  C   UNL     1       0.911  -2.030  -0.017  0.00  0.00    +0.083 A 
ATOM     22  C   UNL     1       1.200  -0.674  -0.013  0.00  0.00    +0.158 A 
ATOM     23  N   UNL     1       2.358  -0.001  -0.021  0.00  0.00    -0.225 NA
ATOM     24  C   UNL     1       2.371   1.322  -0.013  0.00  0.00    +0.110 A 
ATOM     25  C   UNL     1       1.151   2.042   0.002  0.00  0.00    +0.064 A 
ATOM     26  C   UNL     1      -0.017   1.365   0.009  0.00  0.00    +0.149 A 
ATOM     27  N   UNL     1       0.002  -0.004   0.002  0.00  0.00    -0.209 N 
ATOM     28  N   UNL     1      -1.023  -0.957   0.007  0.00  0.00    -0.160 NA
BRANCH  24  29
ATOM     29  C   UNL     1       3.654   2.046  -0.021  0.00  0.00    +0.153 A 
ATOM     30  C   UNL     1       4.893   1.479  -0.030  0.00  0.00    +0.051 A 
ATOM     31  C   UNL     1       5.822   2.536  -0.039  0.00  0.00    +0.042 A 
ATOM     32  C   UNL     1       5.115   3.685  -0.026  0.00  0.00    +0.196 A 
ATOM     33  O   UNL     1       3.807   3.385  -0.015  0.00  0.00    -0.461 OA
ENDBRANCH  24  29
BRANCH  26  34
ATOM     34  C   UNL     1      -1.327   2.109   0.020  0.00  0.00    +0.434 C 
ATOM     35  F   UNL     1      -1.727   2.332   1.342  0.00  0.00    -0.164 F 
ATOM     36  F   UNL     1      -1.173   3.336  -0.634  0.00  0.00    -0.164 F 
ATOM     37  F   UNL     1      -2.300   1.349  -0.639  0.00  0.00    -0.164 F 
ENDBRANCH  26  34
ENDBRANCH   2  20
TORSDOF 7
