REMARK  Name = ZINC12527582
REMARK  6 active torsions:
REMARK  status: ('A' for Active; 'I' for Inactive)
REMARK    1  A    between atoms: C_1  and  C_2
REMARK    2  A    between atoms: C_7  and  S_30
REMARK    3  A    between atoms: N_11  and  C_12
REMARK    4  A    between atoms: C_12  and  C_13
REMARK    5  A    between atoms: C_19  and  C_24
REMARK    6  A    between atoms: S_30  and  N_33
REMARK                            x       y       z     vdW  Elec       q    Type
REMARK                         _______ _______ _______ _____ _____    ______ ____
ROOT
ATOM      1  C   UNL     1      -2.893   2.899  -1.261  0.00  0.00    +0.179 C 
ENDROOT
BRANCH   1   2
ATOM      2  C   UNL     1      -4.362   2.805  -0.936  0.00  0.00    +0.128 A 
ATOM      3  N   UNL     1      -5.229   3.681  -1.506  0.00  0.00    -0.309 N 
ATOM      4  H   UNL     1      -4.890   4.356  -2.115  0.00  0.00    +0.170 HD
ATOM      5  C   UNL     1      -6.548   3.629  -1.246  0.00  0.00    +0.260 A 
ATOM      6  O   UNL     1      -7.314   4.420  -1.770  0.00  0.00    -0.267 OA
ATOM      7  C   UNL     1      -7.038   2.634  -0.342  0.00  0.00    +0.080 A 
ATOM      8  C   UNL     1      -8.405   2.380   0.099  0.00  0.00    +0.004 A 
ATOM      9  C   UNL     1      -8.630   1.369   0.973  0.00  0.00    +0.056 A 
ATOM     10  S   UNL     1      -7.004   0.695   1.254  0.00  0.00    -0.076 S 
ATOM     11  C   UNL     1      -6.068   1.776   0.202  0.00  0.00    +0.116 A 
ATOM     12  N   UNL     1      -4.779   1.886  -0.107  0.00  0.00    -0.225 NA
BRANCH   8  13
ATOM     13  C   UNL     1      -9.525   3.212  -0.399  0.00  0.00    -0.017 A 
ATOM     14  C   UNL     1      -9.440   4.603  -0.349  0.00  0.00    +0.008 A 
ATOM     15  C   UNL     1     -10.485   5.372  -0.820  0.00  0.00    +0.001 A 
ATOM     16  C   UNL     1     -11.620   4.766  -1.329  0.00  0.00    +0.000 A 
ATOM     17  C   UNL     1     -11.712   3.387  -1.375  0.00  0.00    +0.001 A 
ATOM     18  C   UNL     1     -10.671   2.607  -0.913  0.00  0.00    +0.008 A 
ENDBRANCH   8  13
ENDBRANCH   1   2
BRANCH   1  28
ATOM     19  C   UNL     1      -0.777   0.500  -1.871  0.00  0.00    +0.028 C 
ATOM     20  C   UNL     1      -0.788   1.725  -0.955  0.00  0.00    +0.075 C 
ATOM     21  C   UNL     1       0.045   1.464   0.322  0.00  0.00    +0.059 C 
ATOM     22  C   UNL     1      -0.734   2.200   1.393  0.00  0.00    -0.023 A 
ATOM     23  C   UNL     1      -0.393   2.601   2.664  0.00  0.00    +0.034 A 
ATOM     24  C   UNL     1      -1.309   3.275   3.451  0.00  0.00    +0.105 A 
ATOM     25  C   UNL     1      -2.573   3.547   2.958  0.00  0.00    +0.030 A 
ATOM     26  C   UNL     1      -2.923   3.146   1.685  0.00  0.00    +0.025 A 
ATOM     27  C   UNL     1      -2.006   2.463   0.888  0.00  0.00    +0.034 A 
ATOM     28  N   UNL     1      -2.144   1.962  -0.413  0.00  0.00    -0.319 N 
BRANCH  24  29
ATOM     29  S   UNL     1      -0.868   3.788   5.078  0.00  0.00    +0.056 S 
ATOM     30  O   UNL     1       0.549   3.893   5.100  0.00  0.00    -0.153 OA
ATOM     31  O   UNL     1      -1.718   4.878   5.405  0.00  0.00    -0.153 OA
BRANCH  29  32
ATOM     32  N   UNL     1      -1.267   2.552   6.105  0.00  0.00    -0.204 NA
ATOM     33  H   UNL     1      -1.666   1.740   5.756  0.00  0.00    +0.144 HD
ATOM     34  H   UNL     1      -1.101   2.640   7.057  0.00  0.00    +0.144 HD
ENDBRANCH  29  32
ENDBRANCH  24  29
ENDBRANCH   1  28
TORSDOF 5
