REMARK  Name = ZINC15732342
REMARK  8 active torsions:
REMARK  status: ('A' for Active; 'I' for Inactive)
REMARK    1  A    between atoms: C_1  and  C_2
REMARK    2  A    between atoms: C_8  and  C_9
REMARK    3  A    between atoms: C_8  and  N_71
REMARK    4  A    between atoms: C_9  and  C_10
REMARK    5  A    between atoms: C_10  and  N_11
REMARK    6  A    between atoms: C_12  and  C_14
REMARK    7  A    between atoms: C_20  and  C_22
REMARK    8  A    between atoms: C_25  and  N_27
REMARK                            x       y       z     vdW  Elec       q    Type
REMARK                         _______ _______ _______ _____ _____    ______ ____
ROOT
ATOM      1  C   UNL     1      -2.848   7.890   3.381  0.00  0.00    +0.078 C 
ATOM      2  C   UNL     1      -4.099   8.028   2.511  0.00  0.00    +0.032 C 
ATOM      3  C   UNL     1      -4.789   6.665   2.397  0.00  0.00    +0.109 C 
ATOM      4  N   UNL     1      -3.816   5.682   1.901  0.00  0.00    -0.297 N 
ATOM      5  C   UNL     1      -2.541   5.529   2.615  0.00  0.00    +0.109 C 
ATOM      6  C   UNL     1      -1.874   6.909   2.724  0.00  0.00    +0.032 C 
ATOM      7  C   UNL     1      -4.090   4.931   0.816  0.00  0.00    +0.253 C 
ATOM      8  O   UNL     1      -5.098   5.144   0.167  0.00  0.00    -0.269 OA
ENDROOT
BRANCH   7   9
ATOM      9  C   UNL     1      -3.177   3.861   0.419  0.00  0.00    +0.076 A 
ATOM     10  C   UNL     1      -3.010   3.275  -0.828  0.00  0.00    +0.023 A 
ATOM     11  C   UNL     1      -2.071   2.284  -0.935  0.00  0.00    +0.035 A 
ATOM     12  C   UNL     1      -1.359   1.920   0.187  0.00  0.00    +0.085 A 
ATOM     13  S   UNL     1      -1.990   2.974   1.411  0.00  0.00    -0.066 S 
BRANCH  12  14
ATOM     14  N   UNL     1      -0.372   0.948   0.307  0.00  0.00    -0.310 N 
ATOM     15  C   UNL     1      -0.482  -0.346  -0.130  0.00  0.00    +0.093 A 
ATOM     16  C   UNL     1       0.649  -1.017   0.135  0.00  0.00    +0.028 A 
ATOM     17  C   UNL     1       1.561  -0.079   0.796  0.00  0.00    +0.000 A 
ATOM     18  C   UNL     1       0.868   1.143   0.879  0.00  0.00    +0.054 A 
ATOM     19  C   UNL     1       1.490   2.240   1.466  0.00  0.00    +0.027 A 
ATOM     20  C   UNL     1       2.771   2.118   1.959  0.00  0.00    +0.002 A 
ATOM     21  C   UNL     1       3.450   0.911   1.875  0.00  0.00    +0.001 A 
ATOM     22  C   UNL     1       2.858  -0.180   1.301  0.00  0.00    +0.010 A 
ENDBRANCH  12  14
ENDBRANCH   7   9
BRANCH   1  24
ATOM     23  N   UNL     1      -1.057   9.357   4.252  0.00  0.00    -0.315 N 
ATOM     24  C   UNL     1      -2.185   9.236   3.524  0.00  0.00    +0.216 C 
ATOM     25  O   UNL     1      -2.666  10.209   2.984  0.00  0.00    -0.276 OA
ATOM     26  H   UNL     1      -0.672   8.579   4.684  0.00  0.00    +0.149 HD
BRANCH  23  27
ATOM     27  C   UNL     1      -0.413  10.666   4.391  0.00  0.00    +0.102 C 
BRANCH  27  28
ATOM     28  C   UNL     1       0.839  10.528   5.261  0.00  0.00    +0.000 C 
BRANCH  28  29
ATOM     29  C   UNL     1       1.512  11.894   5.406  0.00  0.00    -0.077 C 
BRANCH  29  36
ATOM     30  C   UNL     1       5.647  14.060   6.955  0.00  0.00    +0.005 C 
ATOM     31  C   UNL     1       4.824  12.770   6.969  0.00  0.00    -0.031 C 
ATOM     32  C   UNL     1       4.510  12.379   8.416  0.00  0.00    -0.001 C 
ATOM     33  C   UNL     1       3.635  11.123   8.418  0.00  0.00    -0.018 C 
ATOM     34  C   UNL     1       2.360  11.393   7.617  0.00  0.00    -0.079 C 
ATOM     35  C   UNL     1       3.513  12.993   6.210  0.00  0.00    -0.076 C 
ATOM     36  N   UNL     1       2.729  11.740   6.229  0.00  0.00    +0.380 N 
ATOM     37  H   UNL     1       3.302  10.983   5.838  0.00  0.00    -0.082 HD
ENDBRANCH  29  36
ENDBRANCH  28  29
ENDBRANCH  27  28
ENDBRANCH  23  27
ENDBRANCH   1  24
TORSDOF 7
