REMARK  Name = ZINC50010643
REMARK  6 active torsions:
REMARK  status: ('A' for Active; 'I' for Inactive)
REMARK    1  A    between atoms: C_1  and  C_2
REMARK    2  A    between atoms: C_5  and  N_8
REMARK    3  A    between atoms: N_8  and  C_9
REMARK    4  A    between atoms: C_10  and  C_12
REMARK    5  A    between atoms: C_12  and  C_18
REMARK    6  A    between atoms: N_19  and  O_20
REMARK                            x       y       z     vdW  Elec       q    Type
REMARK                         _______ _______ _______ _____ _____    ______ ____
ROOT
ATOM      1  C   UNL     1       0.255  -6.274   0.894  0.00  0.00    +0.105 C 
ATOM      2  C   UNL     1       1.434  -6.692   0.013  0.00  0.00    +0.024 C 
ATOM      3  C   UNL     1       2.730  -6.120   0.590  0.00  0.00    +0.001 C 
ATOM      4  C   UNL     1       2.938  -6.655   2.008  0.00  0.00    +0.000 C 
ATOM      5  C   UNL     1       1.759  -6.237   2.889  0.00  0.00    +0.001 C 
ATOM      6  C   UNL     1       0.463  -6.810   2.312  0.00  0.00    +0.024 C 
ENDROOT
BRANCH   1   7
ATOM      7  C   UNL     1      -1.022  -6.838   0.326  0.00  0.00    +0.147 C 
ATOM      8  N   UNL     1      -1.752  -7.629   1.040  0.00  0.00    -0.076 NA
ATOM      9  N   UNL     1      -1.409  -6.511  -0.954  0.00  0.00    -0.343 N 
ATOM     10  H   UNL     1      -0.826  -5.977  -1.516  0.00  0.00    +0.144 HD
ATOM     11  H   UNL     1      -2.265  -6.815  -1.294  0.00  0.00    +0.144 HD
BRANCH   8  12
ATOM     12  O   UNL     1      -2.952  -8.159   0.506  0.00  0.00    -0.408 OA
ATOM     13  H   UNL     1      -3.430  -8.740   1.114  0.00  0.00    +0.328 HD
ENDBRANCH   8  12
ENDBRANCH   1   7
BRANCH   1  16
ATOM     14  N   UNL     1      -0.955  -4.173   1.385  0.00  0.00    -0.274 N 
ATOM     15  C   UNL     1      -2.045  -4.982   1.936  0.00  0.00    +0.138 C 
ATOM     16  C   UNL     1       0.166  -4.770   0.934  0.00  0.00    +0.233 C 
ATOM     17  O   UNL     1       1.103  -4.097   0.559  0.00  0.00    -0.274 OA
BRANCH  14  22
ATOM     18  C   UNL     1      -1.452   1.473   1.151  0.00  0.00    +0.044 C 
ATOM     19  C   UNL     1      -1.320  -0.027   1.213  0.00  0.00    -0.050 A 
ATOM     20  C   UNL     1      -2.403  -0.800   1.590  0.00  0.00    +0.005 A 
ATOM     21  C   UNL     1      -2.285  -2.175   1.648  0.00  0.00    +0.024 A 
ATOM     22  C   UNL     1      -1.077  -2.781   1.327  0.00  0.00    +0.036 A 
ATOM     23  C   UNL     1       0.008  -2.002   0.948  0.00  0.00    +0.024 A 
ATOM     24  C   UNL     1      -0.118  -0.628   0.887  0.00  0.00    +0.005 A 
ENDBRANCH  14  22
ENDBRANCH   1  16
TORSDOF 4
