REMARK  Name = ZINC27534982
REMARK  5 active torsions:
REMARK  status: ('A' for Active; 'I' for Inactive)
REMARK    1  A    between atoms: N_13  and  C_14
REMARK    2  A    between atoms: C_14  and  N_15
REMARK    3  A    between atoms: C_18  and  N_21
REMARK    4  A    between atoms: N_21  and  S_22
REMARK    5  A    between atoms: S_22  and  C_25
REMARK                            x       y       z     vdW  Elec       q    Type
REMARK                         _______ _______ _______ _____ _____    ______ ____
ROOT
ATOM      1  N   UNL     1       6.495   0.856   1.331  0.00  0.00    +0.390 N 
ATOM      2  C   UNL     1       6.064   2.076   2.025  0.00  0.00    -0.075 C 
ATOM      3  C   UNL     1       6.479   2.001   3.496  0.00  0.00    +0.002 C 
ATOM      4  C   UNL     1       8.000   1.850   3.586  0.00  0.00    +0.073 C 
ATOM      5  C   UNL     1       8.428   0.599   2.815  0.00  0.00    +0.002 C 
ATOM      6  C   UNL     1       7.957   0.715   1.363  0.00  0.00    -0.075 C 
ATOM      7  H   UNL     1       6.064  -0.004   1.865  0.00  0.00    -0.080 HD
ENDROOT
BRANCH   4   8
ATOM      8  N   UNL     1       8.397   1.720   4.990  0.00  0.00    -0.187 NA
ATOM      9  H   UNL     1       8.218   0.776   5.527  0.00  0.00    +0.148 HD
BRANCH   8  10
ATOM     10  S   UNL     1       8.883   3.054   5.841  0.00  0.00    +0.065 S 
ATOM     11  O   UNL     1       9.172   2.612   7.160  0.00  0.00    -0.153 OA
ATOM     12  O   UNL     1       9.843   3.723   5.034  0.00  0.00    -0.153 OA
BRANCH  10  13
ATOM     13  C   UNL     1       7.492   4.129   5.963  0.00  0.00    +0.142 A 
ATOM     14  C   UNL     1       6.535   4.181   6.921  0.00  0.00    +0.036 A 
ATOM     15  C   UNL     1       5.526   5.119   6.811  0.00  0.00    +0.010 A 
ATOM     16  C   UNL     1       5.523   5.960   5.748  0.00  0.00    +0.047 A 
ATOM     17  S   UNL     1       6.983   5.439   4.862  0.00  0.00    -0.077 S 
ENDBRANCH  10  13
ENDBRANCH   8  10
ENDBRANCH   4   8
BRANCH   1  18
ATOM     18  C   UNL     1       5.994   0.830  -0.050  0.00  0.00    +0.038 C 
BRANCH  18  31
ATOM     19  C   UNL     1       0.002  -0.004   0.002  0.00  0.00    +0.001 A 
ATOM     20  C   UNL     1      -0.017   1.365   0.009  0.00  0.00    +0.008 A 
ATOM     21  C   UNL     1       1.204   2.062   0.002  0.00  0.00    -0.015 A 
ATOM     22  C   UNL     1       1.352   3.459   0.008  0.00  0.00    +0.008 A 
ATOM     23  C   UNL     1       2.617   3.981  -0.003  0.00  0.00    +0.002 A 
ATOM     24  C   UNL     1       3.769   3.195  -0.018  0.00  0.00    +0.024 A 
ATOM     25  C   UNL     1       3.665   1.817  -0.024  0.00  0.00    +0.043 A 
ATOM     26  C   UNL     1       2.373   1.300  -0.014  0.00  0.00    +0.016 A 
ATOM     27  C   UNL     1       2.402  -0.102  -0.021  0.00  0.00    +0.047 A 
ATOM     28  C   UNL     1       1.180  -0.750  -0.013  0.00  0.00    +0.014 A 
ATOM     29  C   UNL     1       3.832  -0.432  -0.036  0.00  0.00    +0.250 C 
ATOM     30  O   UNL     1       4.307  -1.553  -0.046  0.00  0.00    -0.270 OA
ATOM     31  N   UNL     1       4.533   0.733  -0.037  0.00  0.00    -0.284 N 
ENDBRANCH  18  31
ENDBRANCH   1  18
TORSDOF 5
