REMARK  Name = ZINC35683769
REMARK  6 active torsions:
REMARK  status: ('A' for Active; 'I' for Inactive)
REMARK    1  A    between atoms: C_6  and  S_11
REMARK    2  A    between atoms: S_11  and  N_14
REMARK    3  A    between atoms: N_14  and  C_15
REMARK    4  A    between atoms: C_20  and  S_21
REMARK    5  A    between atoms: S_21  and  N_24
REMARK    6  A    between atoms: N_24  and  C_25
REMARK                            x       y       z     vdW  Elec       q    Type
REMARK                         _______ _______ _______ _____ _____    ______ ____
ROOT
ATOM      1  C   UNL     1       7.384  -3.503   2.109  0.00  0.00    +0.101 A 
ATOM      2  C   UNL     1       8.398  -3.881   1.237  0.00  0.00    +0.028 A 
ATOM      3  C   UNL     1       9.543  -4.475   1.730  0.00  0.00    +0.002 A 
ATOM      4  C   UNL     1       9.681  -4.694   3.088  0.00  0.00    +0.002 A 
ATOM      5  C   UNL     1       8.674  -4.319   3.958  0.00  0.00    +0.030 A 
ATOM      6  C   UNL     1       7.528  -3.719   3.473  0.00  0.00    +0.130 A 
ENDROOT
BRANCH   6   7
ATOM      7  S   UNL     1       6.249  -3.234   4.583  0.00  0.00    +0.061 S 
ATOM      8  O   UNL     1       6.673  -3.618   5.884  0.00  0.00    -0.153 OA
ATOM      9  O   UNL     1       5.914  -1.892   4.256  0.00  0.00    -0.153 OA
BRANCH   7  10
ATOM     10  N   UNL     1       4.918  -4.154   4.228  0.00  0.00    -0.187 NA
ATOM     11  H   UNL     1       4.120  -3.735   3.870  0.00  0.00    +0.148 HD
BRANCH  10  12
ATOM     12  C   UNL     1       4.947  -5.601   4.455  0.00  0.00    +0.077 C 
ATOM     13  C   UNL     1       5.293  -6.315   3.147  0.00  0.00    +0.020 C 
ATOM     14  C   UNL     1       5.323  -7.827   3.383  0.00  0.00    +0.002 C 
ATOM     15  C   UNL     1       3.950  -8.293   3.871  0.00  0.00    +0.000 C 
ATOM     16  C   UNL     1       3.603  -7.579   5.179  0.00  0.00    +0.002 C 
ATOM     17  C   UNL     1       3.574  -6.068   4.942  0.00  0.00    +0.020 C 
ENDBRANCH  10  12
ENDBRANCH   7  10
ENDBRANCH   6   7
BRANCH   1  18
ATOM     18  N   UNL     1       6.224  -2.901   1.614  0.00  0.00    -0.096 NA
BRANCH  18  19
ATOM     19  S   UNL     1       6.022  -2.711  -0.018  0.00  0.00    +0.092 S 
ATOM     20  O   UNL     1       5.909  -4.017  -0.568  0.00  0.00    -0.148 OA
ATOM     21  O   UNL     1       7.013  -1.787  -0.446  0.00  0.00    -0.148 OA
BRANCH  19  27
ATOM     22  C   UNL     1       0.663   1.255  -0.777  0.00  0.00    +0.001 A 
ATOM     23  C   UNL     1       1.790   2.032  -0.515  0.00  0.00    +0.001 A 
ATOM     24  C   UNL     1       3.009   1.458  -0.322  0.00  0.00    +0.008 A 
ATOM     25  C   UNL     1       3.136   0.060  -0.387  0.00  0.00    -0.016 A 
ATOM     26  C   UNL     1       4.378  -0.570  -0.192  0.00  0.00    +0.037 A 
ATOM     27  C   UNL     1       4.463  -1.926  -0.262  0.00  0.00    +0.111 A 
ATOM     28  C   UNL     1       3.336  -2.704  -0.524  0.00  0.00    +0.029 A 
ATOM     29  C   UNL     1       2.118  -2.129  -0.717  0.00  0.00    +0.010 A 
ATOM     30  C   UNL     1       1.991  -0.731  -0.653  0.00  0.00    -0.018 A 
ATOM     31  C   UNL     1       0.749  -0.102  -0.847  0.00  0.00    +0.008 A 
ENDBRANCH  19  27
ENDBRANCH  18  19
ENDBRANCH   1  18
TORSDOF 6
