REMARK  Name = ZINC39992899
REMARK  8 active torsions:
REMARK  status: ('A' for Active; 'I' for Inactive)
REMARK    1  A    between atoms: C_1  and  C_2
REMARK    2  A    between atoms: C_6  and  O_8
REMARK    3  A    between atoms: O_8  and  C_9
REMARK    4  A    between atoms: C_10  and  C_21
REMARK    5  A    between atoms: C_17  and  C_20
REMARK    6  A    between atoms: C_22  and  C_23
REMARK    7  A    between atoms: C_22  and  C_25
REMARK    8  A    between atoms: N_27  and  C_28
REMARK                            x       y       z     vdW  Elec       q    Type
REMARK                         _______ _______ _______ _____ _____    ______ ____
ROOT
ATOM      1  C   UNL     1      -0.300  -4.146   2.324  0.00  0.00    +0.235 A 
ATOM      2  C   UNL     1      -0.112  -4.900   3.508  0.00  0.00    +0.103 A 
ATOM      3  C   UNL     1       0.082  -6.302   3.389  0.00  0.00    +0.269 A 
ATOM      4  O   UNL     1       0.248  -6.991   4.380  0.00  0.00    -0.266 OA
ATOM      5  N   UNL     1       0.079  -6.857   2.158  0.00  0.00    -0.267 N 
ATOM      6  C   UNL     1       0.263  -8.201   2.033  0.00  0.00    +0.096 A 
ATOM      7  C   UNL     1       0.266  -8.790   0.815  0.00  0.00    +0.019 A 
ATOM      8  C   UNL     1       0.076  -8.018  -0.338  0.00  0.00    +0.008 A 
ATOM      9  C   UNL     1      -0.110  -6.671  -0.223  0.00  0.00    -0.007 A 
ATOM     10  C   UNL     1      -0.109  -6.078   1.051  0.00  0.00    +0.147 A 
ATOM     11  N   UNL     1      -0.297  -4.760   1.153  0.00  0.00    -0.194 NA
ATOM     12  C   UNL     1      -0.314  -5.825  -1.453  0.00  0.00    +0.047 C 
ENDROOT
BRANCH   2  13
ATOM     13  C   UNL     1      -0.115  -4.277   4.769  0.00  0.00    +0.042 C 
ATOM     14  C   UNL     1       0.776  -3.247   5.036  0.00  0.00    +0.114 C 
BRANCH  14  15
ATOM     15  C   UNL     1       0.693  -2.516   6.305  0.00  0.00    +0.259 C 
ATOM     16  O   UNL     1      -0.158  -2.813   7.124  0.00  0.00    -0.269 OA
ATOM     17  N   UNL     1       1.558  -1.516   6.565  0.00  0.00    -0.281 N 
ATOM     18  H   UNL     1       2.189  -1.232   5.885  0.00  0.00    +0.155 HD
BRANCH  17  19
ATOM     19  C   UNL     1       1.546  -0.887   7.814  0.00  0.00    +0.035 A 
ATOM     20  C   UNL     1       1.834   0.468   7.914  0.00  0.00    +0.023 A 
ATOM     21  C   UNL     1       1.821   1.086   9.148  0.00  0.00    +0.003 A 
ATOM     22  C   UNL     1       1.522   0.358  10.285  0.00  0.00    +0.015 A 
ATOM     23  C   UNL     1       1.235  -0.992  10.190  0.00  0.00    +0.020 A 
ATOM     24  C   UNL     1       1.240  -1.615   8.956  0.00  0.00    +0.038 A 
ATOM     25 BR   UNL     1       0.828  -1.984  11.747  0.00  0.00    -0.050 Br
ENDBRANCH  17  19
ENDBRANCH  14  15
BRANCH  14  26
ATOM     26  C   UNL     1       1.776  -2.897   4.073  0.00  0.00    +0.104 C 
ATOM     27  N   UNL     1       2.570  -2.620   3.309  0.00  0.00    -0.191 NA
ENDBRANCH  14  26
ENDBRANCH   2  13
BRANCH   1  28
ATOM     28  O   UNL     1      -0.488  -2.809   2.391  0.00  0.00    -0.437 OA
BRANCH  28  34
ATOM     29  C   UNL     1      -3.559  -1.933  -1.300  0.00  0.00    +0.044 C 
ATOM     30  C   UNL     1      -2.253  -1.692  -0.588  0.00  0.00    -0.047 A 
ATOM     31  C   UNL     1      -1.337  -0.795  -1.107  0.00  0.00    +0.003 A 
ATOM     32  C   UNL     1      -0.139  -0.572  -0.457  0.00  0.00    +0.004 A 
ATOM     33  C   UNL     1       0.148  -1.245   0.715  0.00  0.00    +0.046 A 
ATOM     34  C   UNL     1      -0.768  -2.146   1.239  0.00  0.00    +0.131 A 
ATOM     35  C   UNL     1      -1.973  -2.364   0.586  0.00  0.00    +0.049 A 
ENDBRANCH  28  34
ENDBRANCH   1  28
TORSDOF 6
