REMARK  Name = ZINC40012672
REMARK  10 active torsions:
REMARK  status: ('A' for Active; 'I' for Inactive)
REMARK    1  A    between atoms: C_1  and  C_2
REMARK    2  A    between atoms: C_7  and  C_8
REMARK    3  A    between atoms: C_7  and  C_9
REMARK    4  A    between atoms: C_11  and  N_13
REMARK    5  A    between atoms: C_14  and  C_16
REMARK    6  A    between atoms: C_16  and  O_17
REMARK    7  A    between atoms: O_17  and  C_18
REMARK    8  A    between atoms: C_18  and  C_20
REMARK    9  A    between atoms: C_23  and  C_26
REMARK   10  A    between atoms: C_26  and  N_27
REMARK                            x       y       z     vdW  Elec       q    Type
REMARK                         _______ _______ _______ _____ _____    ______ ____
ROOT
ATOM      1  O   UNL     1       0.321  -0.623  -6.007  0.00  0.00    -0.452 OA
ENDROOT
BRANCH   1   2
ATOM      2  C   UNL     1      -0.329  -0.648  -7.187  0.00  0.00    +0.340 C 
ATOM      3  O   UNL     1      -1.540  -0.727  -7.212  0.00  0.00    -0.245 OA
BRANCH   2   4
ATOM      4  C   UNL     1       0.433  -0.578  -8.451  0.00  0.00    +0.059 A 
ATOM      5  C   UNL     1       1.827  -0.492  -8.426  0.00  0.00    +0.015 A 
ATOM      6  C   UNL     1       2.531  -0.428  -9.610  0.00  0.00    +0.006 A 
ATOM      7  C   UNL     1       1.861  -0.448 -10.820  0.00  0.00    -0.030 A 
ATOM      8  C   UNL     1       0.480  -0.532 -10.852  0.00  0.00    +0.006 A 
ATOM      9  C   UNL     1      -0.237  -0.604  -9.676  0.00  0.00    +0.015 A 
BRANCH   7  10
ATOM     10  C   UNL     1       2.638  -0.377 -12.110  0.00  0.00    +0.141 C 
BRANCH  10  11
ATOM     11  N   UNL     1       2.974  -1.732 -12.552  0.00  0.00    -0.295 N 
ATOM     12  C   UNL     1       3.673  -1.915 -13.690  0.00  0.00    +0.297 C 
ATOM     13  O   UNL     1       4.023  -0.956 -14.350  0.00  0.00    -0.253 OA
ATOM     14  N   UNL     1       3.983  -3.162 -14.097  0.00  0.00    -0.313 N 
ATOM     15  H   UNL     1       2.695  -2.497 -12.026  0.00  0.00    +0.151 HD
ATOM     16  H   UNL     1       3.703  -3.928 -13.571  0.00  0.00    +0.146 HD
ATOM     17  H   UNL     1       4.485  -3.294 -14.916  0.00  0.00    +0.146 HD
ENDBRANCH  10  11
ENDBRANCH   7  10
ENDBRANCH   2   4
ENDBRANCH   1   2
BRANCH   1  18
ATOM     18  C   UNL     1      -0.478  -0.694  -4.825  0.00  0.00    +0.328 C 
BRANCH  18  20
ATOM     19  N   UNL     1      -0.124  -0.708  -2.377  0.00  0.00    -0.309 N 
ATOM     20  C   UNL     1       0.414  -0.654  -3.611  0.00  0.00    +0.251 C 
ATOM     21  O   UNL     1       1.617  -0.572  -3.746  0.00  0.00    -0.272 OA
ATOM     22  H   UNL     1      -1.085  -0.773  -2.269  0.00  0.00    +0.149 HD
BRANCH  19  32
ATOM     23  C   UNL     1       2.080   1.558  -1.535  0.00  0.00    +0.013 C 
ATOM     24  C   UNL     1       0.998   0.805  -0.758  0.00  0.00    -0.008 C 
ATOM     25  C   UNL     1      -0.411   1.473  -0.730  0.00  0.00    +0.009 C 
ATOM     26  C   UNL     1      -1.123   0.832   0.483  0.00  0.00    +0.005 C 
ATOM     27  C   UNL     1      -0.078  -0.162   1.074  0.00  0.00    -0.003 C 
ATOM     28  C   UNL     1       1.256   0.610   0.778  0.00  0.00    -0.025 C 
ATOM     29  C   UNL     1       2.491  -0.254   1.047  0.00  0.00    +0.012 C 
ATOM     30  C   UNL     1       1.325   1.945   1.523  0.00  0.00    +0.012 C 
ATOM     31  C   UNL     1      -0.004  -1.317   0.030  0.00  0.00    +0.027 C 
ATOM     32  C   UNL     1       0.744  -0.669  -1.197  0.00  0.00    +0.080 C 
ENDBRANCH  19  32
ENDBRANCH  18  20
ENDBRANCH   1  18
TORSDOF 7
