REMARK  Name = ZINC13063898
REMARK  14 active torsions:
REMARK  status: ('A' for Active; 'I' for Inactive)
REMARK    1  A    between atoms: C_1  and  C_2
REMARK    2  A    between atoms: C_2  and  C_3
REMARK    3  A    between atoms: C_3  and  C_5
REMARK    4  A    between atoms: C_3  and  N_68
REMARK    5  A    between atoms: N_9  and  C_10
REMARK    6  A    between atoms: C_10  and  C_11
REMARK    7  A    between atoms: C_11  and  O_13
REMARK    8  A    between atoms: O_13  and  C_14
REMARK    9  A    between atoms: C_14  and  C_15
REMARK   10  A    between atoms: C_16  and  C_17
REMARK   11  A    between atoms: C_16  and  N_68
REMARK   12  A    between atoms: C_26  and  C_27
REMARK   13  A    between atoms: C_26  and  N_68
REMARK   14  A    between atoms: C_32  and  C_39
REMARK                            x       y       z     vdW  Elec       q    Type
REMARK                         _______ _______ _______ _____ _____    ______ ____
ROOT
ATOM      1  N   UNL     1       4.947  -0.445   3.585  0.00  0.00    +0.392 N 
ATOM      2  H   UNL     1       4.331  -0.996   4.195  0.00  0.00    -0.080 HD
ENDROOT
BRANCH   1   3
ATOM      3  C   UNL     1       6.311  -0.444   4.154  0.00  0.00    +0.003 C 
BRANCH   3   4
ATOM      4  C   UNL     1       6.910  -1.819   4.003  0.00  0.00    +0.139 A 
ATOM      5  N   UNL     1       6.316  -2.962   4.245  0.00  0.00    -0.115 NA
ATOM      6  N   UNL     1       7.156  -3.907   3.994  0.00  0.00    -0.023 NA
ATOM      7  N   UNL     1       8.272  -3.396   3.606  0.00  0.00    -0.043 NA
ATOM      8  N   UNL     1       8.160  -2.110   3.598  0.00  0.00    -0.220 N 
BRANCH   8   9
ATOM      9  C   UNL     1       9.199  -1.149   3.220  0.00  0.00    +0.267 C 
BRANCH   9  10
ATOM     10  C   UNL     1      10.002  -0.773   4.439  0.00  0.00    +0.329 C 
ATOM     11  O   UNL     1       9.734  -1.258   5.512  0.00  0.00    -0.249 OA
BRANCH  10  12
ATOM     12  O   UNL     1      11.015   0.101   4.331  0.00  0.00    -0.464 OA
BRANCH  12  13
ATOM     13  C   UNL     1      11.745   0.417   5.546  0.00  0.00    +0.229 C 
ATOM     14  C   UNL     1      12.854   1.422   5.228  0.00  0.00    +0.048 C 
ENDBRANCH  12  13
ENDBRANCH  10  12
ENDBRANCH   9  10
ENDBRANCH   8   9
ENDBRANCH   3   4
BRANCH   3  16
ATOM     15  C   UNL     1       5.392  -1.142   6.371  0.00  0.00    +0.002 C 
ATOM     16  C   UNL     1       6.225  -0.087   5.640  0.00  0.00    -0.011 C 
ENDBRANCH   3  16
ENDBRANCH   1   3
BRANCH   1  17
ATOM     17  C   UNL     1       4.961  -1.056   2.239  0.00  0.00    -0.041 C 
BRANCH  17  18
ATOM     18  C   UNL     1       3.554  -1.455   1.875  0.00  0.00    -0.060 A 
ATOM     19  C   UNL     1       3.121  -2.747   2.109  0.00  0.00    +0.005 A 
ATOM     20  C   UNL     1       1.832  -3.117   1.776  0.00  0.00    +0.050 A 
ATOM     21  C   UNL     1       0.970  -2.194   1.206  0.00  0.00    +0.166 A 
ATOM     22  C   UNL     1       1.407  -0.893   0.970  0.00  0.00    +0.166 A 
ATOM     23  C   UNL     1       2.700  -0.528   1.307  0.00  0.00    +0.051 A 
ATOM     24  O   UNL     1       0.384  -0.185   0.408  0.00  0.00    -0.453 OA
ATOM     25  C   UNL     1      -0.806  -0.949   0.678  0.00  0.00    +0.466 C 
ATOM     26  O   UNL     1      -0.326  -2.302   0.792  0.00  0.00    -0.453 OA
ENDBRANCH  17  18
ENDBRANCH   1  17
BRANCH   1  27
ATOM     27  C   UNL     1       4.431   0.938   3.507  0.00  0.00    -0.036 C 
BRANCH  27  28
ATOM     28  C   UNL     1       5.335   1.791   2.655  0.00  0.00    +0.001 A 
ATOM     29  C   UNL     1       5.067   1.950   1.335  0.00  0.00    +0.017 A 
ATOM     30  C   UNL     1       5.964   2.786   0.535  0.00  0.00    -0.001 A 
ATOM     31  C   UNL     1       5.739   2.988  -0.831  0.00  0.00    +0.010 A 
ATOM     32  C   UNL     1       6.595   3.773  -1.549  0.00  0.00    +0.004 A 
ATOM     33  C   UNL     1       7.686   4.373  -0.936  0.00  0.00    -0.048 A 
ATOM     34  C   UNL     1       7.927   4.189   0.408  0.00  0.00    +0.029 A 
ATOM     35  C   UNL     1       7.070   3.393   1.160  0.00  0.00    +0.049 A 
ATOM     36  N   UNL     1       7.287   3.191   2.507  0.00  0.00    -0.322 N 
ATOM     37  H   UNL     1       8.049   3.610   2.936  0.00  0.00    +0.169 HD
ATOM     38  C   UNL     1       6.454   2.427   3.235  0.00  0.00    +0.251 A 
ATOM     39  O   UNL     1       6.674   2.274   4.424  0.00  0.00    -0.268 OA
ATOM     40  C   UNL     1       8.617   5.236  -1.749  0.00  0.00    +0.044 C 
ENDBRANCH  27  28
ENDBRANCH   1  27
TORSDOF 11
