REMARK  Name = ZINC22735092
REMARK  9 active torsions:
REMARK  status: ('A' for Active; 'I' for Inactive)
REMARK    1  A    between atoms: C_1  and  N_2
REMARK    2  A    between atoms: N_5  and  C_8
REMARK    3  A    between atoms: C_8  and  C_10
REMARK    4  A    between atoms: C_8  and  C_27
REMARK    5  A    between atoms: C_10  and  N_11
REMARK    6  A    between atoms: C_12  and  C_14
REMARK    7  A    between atoms: N_16  and  C_17
REMARK    8  A    between atoms: C_17  and  C_18
REMARK    9  A    between atoms: N_36  and  C_37
REMARK                            x       y       z     vdW  Elec       q    Type
REMARK                         _______ _______ _______ _____ _____    ______ ____
ROOT
ATOM      1  C   UNL     1      11.744  -1.426  -0.565  0.00  0.00    +0.104 C 
ENDROOT
BRANCH   1   2
ATOM      2  C   UNL     1      11.929  -2.610  -1.479  0.00  0.00    -0.028 A 
ATOM      3  C   UNL     1      11.078  -3.697  -1.385  0.00  0.00    +0.007 A 
ATOM      4  C   UNL     1      11.247  -4.777  -2.225  0.00  0.00    +0.024 A 
ATOM      5  C   UNL     1      12.280  -4.788  -3.163  0.00  0.00    +0.033 A 
ATOM      6  C   UNL     1      13.130  -3.699  -3.252  0.00  0.00    -0.026 A 
ATOM      7  C   UNL     1      12.950  -2.614  -2.408  0.00  0.00    +0.010 A 
ATOM      8  C   UNL     1      14.258  -3.643  -4.251  0.00  0.00    +0.038 C 
ATOM      9  C   UNL     1      14.525  -5.045  -4.803  0.00  0.00    +0.024 C 
ATOM     10  C   UNL     1      13.178  -5.665  -5.193  0.00  0.00    +0.105 C 
ATOM     11  N   UNL     1      12.407  -5.916  -3.973  0.00  0.00    -0.333 N 
ATOM     12  C   UNL     1      11.092  -6.488  -4.289  0.00  0.00    +0.129 C 
ENDBRANCH   1   2
BRANCH   1  17
ATOM     13  C   UNL     1      13.966  -3.748   4.080  0.00  0.00    -0.096 C 
ATOM     14  N   UNL     1      13.498  -3.403   2.731  0.00  0.00    +0.379 N 
ATOM     15  C   UNL     1      12.033  -3.293   2.694  0.00  0.00    -0.064 C 
ATOM     16  C   UNL     1      11.582  -3.011   1.259  0.00  0.00    +0.066 C 
ATOM     17  N   UNL     1      12.212  -1.772   0.784  0.00  0.00    -0.297 NA
ATOM     18  C   UNL     1      13.677  -1.882   0.821  0.00  0.00    +0.066 C 
ATOM     19  C   UNL     1      14.129  -2.163   2.256  0.00  0.00    -0.064 C 
ATOM     20  H   UNL     1      13.795  -4.217   2.053  0.00  0.00    -0.082 HD
ENDBRANCH   1  17
BRANCH   1  21
ATOM     21  C   UNL     1      10.262  -1.050  -0.510  0.00  0.00    +0.128 C 
BRANCH  21  22
ATOM     22  N   UNL     1      10.065   0.015   0.476  0.00  0.00    -0.306 N 
ATOM     23  C   UNL     1       8.847   0.572   0.632  0.00  0.00    +0.299 C 
ATOM     24  O   UNL     1       7.914   0.190  -0.043  0.00  0.00    -0.265 OA
ATOM     25  H   UNL     1      10.910   0.361   1.088  0.00  0.00    +0.149 HD
BRANCH  23  26
ATOM     26  C   UNL     1       8.646   1.659   1.638  0.00  0.00    +0.299 C 
ATOM     27  O   UNL     1       9.579   2.040   2.314  0.00  0.00    -0.265 OA
ATOM     28  N   UNL     1       7.428   2.215   1.794  0.00  0.00    -0.303 N 
ATOM     29  H   UNL     1       6.583   1.869   1.182  0.00  0.00    +0.149 HD
BRANCH  28  30
ATOM     30  C   UNL     1       7.231   3.280   2.780  0.00  0.00    +0.140 C 
BRANCH  30  31
ATOM     31  C   UNL     1       5.792   3.726   2.757  0.00  0.00    -0.027 A 
ATOM     32  C   UNL     1       4.865   3.111   3.578  0.00  0.00    +0.009 A 
ATOM     33  C   UNL     1       3.544   3.516   3.560  0.00  0.00    +0.050 A 
ATOM     34  C   UNL     1       3.144   4.541   2.718  0.00  0.00    +0.166 A 
ATOM     35  C   UNL     1       4.078   5.161   1.891  0.00  0.00    +0.167 A 
ATOM     36  C   UNL     1       5.400   4.750   1.914  0.00  0.00    +0.054 A 
ATOM     37  O   UNL     1       3.443   6.128   1.166  0.00  0.00    -0.453 OA
ATOM     38  C   UNL     1       2.200   6.369   1.851  0.00  0.00    +0.466 C 
ATOM     39  O   UNL     1       1.925   5.119   2.511  0.00  0.00    -0.453 OA
ENDBRANCH  30  31
ENDBRANCH  28  30
ENDBRANCH  23  26
ENDBRANCH  21  22
ENDBRANCH   1  21
TORSDOF 7
