REMARK  Name = ZINC20704947
REMARK  7 active torsions:
REMARK  status: ('A' for Active; 'I' for Inactive)
REMARK    1  A    between atoms: C_1  and  N_2
REMARK    2  A    between atoms: N_2  and  C_3
REMARK    3  A    between atoms: N_2  and  S_10
REMARK    4  A    between atoms: C_3  and  C_4
REMARK    5  A    between atoms: S_10  and  C_13
REMARK    6  A    between atoms: C_26  and  C_29
REMARK    7  A    between atoms: C_33  and  N_35
REMARK                            x       y       z     vdW  Elec       q    Type
REMARK                         _______ _______ _______ _____ _____    ______ ____
ROOT
ATOM      1  C   UNL     1      -1.565  -2.130   1.095  0.00  0.00    +0.106 A 
ATOM      2  C   UNL     1      -1.927  -1.029   1.849  0.00  0.00    +0.030 A 
ATOM      3  C   UNL     1      -3.192  -0.963   2.398  0.00  0.00    +0.025 A 
ATOM      4  C   UNL     1      -4.091  -2.004   2.202  0.00  0.00    +0.031 A 
ATOM      5  C   UNL     1      -3.730  -3.112   1.451  0.00  0.00    -0.018 A 
ATOM      6  C   UNL     1      -2.457  -3.165   0.899  0.00  0.00    +0.034 A 
ATOM      7  C   UNL     1      -4.664  -4.255   1.211  0.00  0.00    +0.049 C 
ATOM      8  C   UNL     1      -4.293  -5.456   2.049  0.00  0.00    -0.023 C 
ATOM      9  C   UNL     1      -5.373  -6.082   2.449  0.00  0.00    -0.030 C 
ATOM     10  C   UNL     1      -6.614  -5.385   1.927  0.00  0.00    +0.033 C 
ATOM     11  C   UNL     1      -6.117  -3.942   1.621  0.00  0.00    +0.029 C 
ATOM     12  C   UNL     1      -6.130  -3.148   2.931  0.00  0.00    +0.105 C 
ATOM     13  N   UNL     1      -5.370  -1.908   2.743  0.00  0.00    -0.336 N 
ATOM     14  H   UNL     1      -5.815  -0.942   3.026  0.00  0.00    +0.147 HD
ENDROOT
BRANCH  12  15
ATOM     15  C   UNL     1      -5.494  -3.968   4.024  0.00  0.00    -0.025 A 
ATOM     16  C   UNL     1      -4.132  -3.886   4.246  0.00  0.00    +0.005 A 
ATOM     17  C   UNL     1      -3.549  -4.634   5.252  0.00  0.00    +0.003 A 
ATOM     18  C   UNL     1      -4.327  -5.473   6.028  0.00  0.00    +0.033 A 
ATOM     19  C   UNL     1      -5.688  -5.559   5.803  0.00  0.00    +0.127 A 
ATOM     20  C   UNL     1      -6.271  -4.807   4.801  0.00  0.00    +0.038 A 
BRANCH  19  21
ATOM     21  N   UNL     1      -6.520  -6.457   6.634  0.00  0.00    +0.056 N 
ATOM     22  O   UNL     1      -7.720  -6.534   6.435  0.00  0.00    -0.126 OA
ATOM     23  O   UNL     1      -6.006  -7.120   7.517  0.00  0.00    -0.126 OA
ENDBRANCH  19  21
ENDBRANCH  12  15
BRANCH   1  24
ATOM     24  S   UNL     1       0.046  -2.217   0.387  0.00  0.00    +0.061 S 
ATOM     25  O   UNL     1       0.329  -3.595   0.189  0.00  0.00    -0.153 OA
ATOM     26  O   UNL     1       0.880  -1.373   1.170  0.00  0.00    -0.153 OA
BRANCH  24  28
ATOM     27  C   UNL     1       0.199  -0.095  -1.283  0.00  0.00    +0.132 C 
ATOM     28  N   UNL     1      -0.042  -1.531  -1.118  0.00  0.00    -0.175 NA
BRANCH  28  29
ATOM     29  C   UNL     1      -0.362  -2.359  -2.283  0.00  0.00    +0.144 C 
BRANCH  29  30
ATOM     30  C   UNL     1       0.915  -2.798  -2.953  0.00  0.00    -0.032 A 
ATOM     31  C   UNL     1       1.472  -2.023  -3.953  0.00  0.00    +0.005 A 
ATOM     32  C   UNL     1       2.646  -2.423  -4.564  0.00  0.00    +0.000 A 
ATOM     33  C   UNL     1       3.257  -3.603  -4.181  0.00  0.00    +0.000 A 
ATOM     34  C   UNL     1       2.697  -4.380  -3.185  0.00  0.00    +0.000 A 
ATOM     35  C   UNL     1       1.526  -3.978  -2.571  0.00  0.00    +0.005 A 
ENDBRANCH  29  30
ENDBRANCH  28  29
ENDBRANCH  24  28
ENDBRANCH   1  24
TORSDOF 6
