REMARK  Name = ZINC09065152
REMARK  8 active torsions:
REMARK  status: ('A' for Active; 'I' for Inactive)
REMARK    1  A    between atoms: C_4  and  C_7
REMARK    2  A    between atoms: N_9  and  C_10
REMARK    3  A    between atoms: C_10  and  C_12
REMARK    4  A    between atoms: C_10  and  C_24
REMARK    5  A    between atoms: N_26  and  N_27
REMARK    6  A    between atoms: C_28  and  C_29
REMARK    7  A    between atoms: C_33  and  O_35
REMARK    8  A    between atoms: O_35  and  C_36
REMARK                            x       y       z     vdW  Elec       q    Type
REMARK                         _______ _______ _______ _____ _____    ______ ____
ROOT
ATOM      1  C   UNL     1       4.384  -4.248  -2.509  0.00  0.00    +0.212 C 
ENDROOT
BRANCH   1   2
ATOM      2  C   UNL     1       4.921  -4.746  -3.826  0.00  0.00    +0.099 A 
ATOM      3  C   UNL     1       6.365  -4.853  -4.033  0.00  0.00    +0.013 A 
ATOM      4  C   UNL     1       7.280  -4.506  -3.038  0.00  0.00    +0.010 A 
ATOM      5  C   UNL     1       8.620  -4.624  -3.279  0.00  0.00    +0.001 A 
ATOM      6  C   UNL     1       9.087  -5.085  -4.503  0.00  0.00    +0.001 A 
ATOM      7  C   UNL     1       8.207  -5.435  -5.505  0.00  0.00    +0.014 A 
ATOM      8  C   UNL     1       6.836  -5.324  -5.280  0.00  0.00    +0.050 A 
ATOM      9  C   UNL     1       5.848  -5.681  -6.306  0.00  0.00    +0.272 A 
ATOM     10  O   UNL     1       6.205  -6.092  -7.395  0.00  0.00    -0.266 OA
ATOM     11  N   UNL     1       4.536  -5.547  -6.018  0.00  0.00    -0.242 N 
ATOM     12  H   UNL     1       3.879  -5.782  -6.691  0.00  0.00    +0.192 HD
ATOM     13  N   UNL     1       4.101  -5.085  -4.776  0.00  0.00    -0.173 NA
ENDBRANCH   1   2
BRANCH   1  16
ATOM     14  C   UNL     1       2.917  -2.395  -3.102  0.00  0.00    +0.245 C 
ATOM     15  O   UNL     1       3.905  -1.711  -3.288  0.00  0.00    -0.270 OA
ATOM     16  N   UNL     1       3.049  -3.678  -2.710  0.00  0.00    -0.295 N 
ATOM     17  H   UNL     1       2.261  -4.223  -2.561  0.00  0.00    +0.150 HD
BRANCH  14  21
ATOM     18  C   UNL     1      -0.952  -0.741  -3.685  0.00  0.00    +0.000 A 
ATOM     19  C   UNL     1       0.170   0.040  -3.898  0.00  0.00    +0.001 A 
ATOM     20  C   UNL     1       1.429  -0.491  -3.710  0.00  0.00    +0.013 A 
ATOM     21  C   UNL     1       1.570  -1.819  -3.304  0.00  0.00    +0.037 A 
ATOM     22  C   UNL     1       0.434  -2.602  -3.092  0.00  0.00    +0.013 A 
ATOM     23  C   UNL     1      -0.819  -2.058  -3.283  0.00  0.00    +0.001 A 
ENDBRANCH  14  21
ENDBRANCH   1  16
BRANCH   1  24
ATOM     24  C   UNL     1       4.298  -5.395  -1.535  0.00  0.00    +0.259 C 
ATOM     25  O   UNL     1       3.228  -5.706  -1.056  0.00  0.00    -0.272 OA
ATOM     26  N   UNL     1       5.411  -6.076  -1.197  0.00  0.00    -0.205 N 
ATOM     27  H   UNL     1       6.267  -5.827  -1.580  0.00  0.00    +0.177 HD
BRANCH  26  28
ATOM     28  N   UNL     1       5.332  -7.142  -0.292  0.00  0.00    -0.188 NA
ATOM     29  C   UNL     1       6.403  -7.798   0.034  0.00  0.00    +0.138 C 
BRANCH  29  30
ATOM     30  C   UNL     1       6.319  -8.920   0.987  0.00  0.00    -0.002 A 
ATOM     31  C   UNL     1       5.087  -9.284   1.536  0.00  0.00    +0.010 A 
ATOM     32  C   UNL     1       5.013 -10.335   2.427  0.00  0.00    +0.004 A 
ATOM     33  C   UNL     1       6.155 -11.030   2.780  0.00  0.00    +0.046 A 
ATOM     34  C   UNL     1       7.384 -10.676   2.240  0.00  0.00    +0.129 A 
ATOM     35  C   UNL     1       7.470  -9.627   1.340  0.00  0.00    +0.055 A 
BRANCH  34  36
ATOM     36  O   UNL     1       8.503 -11.363   2.592  0.00  0.00    -0.456 OA
BRANCH  36  37
ATOM     37  C   UNL     1       9.687 -10.976   2.047  0.00  0.00    +0.128 A 
ATOM     38  C   UNL     1      10.466 -10.022   2.686  0.00  0.00    +0.046 A 
ATOM     39  C   UNL     1      11.669  -9.630   2.130  0.00  0.00    +0.004 A 
ATOM     40  C   UNL     1      12.096 -10.187   0.939  0.00  0.00    +0.000 A 
ATOM     41  C   UNL     1      11.320 -11.138   0.301  0.00  0.00    +0.004 A 
ATOM     42  C   UNL     1      10.120 -11.538   0.855  0.00  0.00    +0.046 A 
ENDBRANCH  36  37
ENDBRANCH  34  36
ENDBRANCH  29  30
ENDBRANCH  26  28
ENDBRANCH   1  24
TORSDOF 8
