REMARK  Name = ZINC38682693
REMARK  11 active torsions:
REMARK  status: ('A' for Active; 'I' for Inactive)
REMARK    1  A    between atoms: C_1  and  C_2
REMARK    2  A    between atoms: C_2  and  C_3
REMARK    3  A    between atoms: C_3  and  C_4
REMARK    4  A    between atoms: C_4  and  O_5
REMARK    5  A    between atoms: O_5  and  C_6
REMARK    6  A    between atoms: C_11  and  C_12
REMARK    7  A    between atoms: C_17  and  O_26
REMARK    8  A    between atoms: C_21  and  N_25
REMARK    9  A    between atoms: C_22  and  C_23
REMARK   10  A    between atoms: O_26  and  C_27
REMARK   11  A    between atoms: C_27  and  C_29
REMARK                            x       y       z     vdW  Elec       q    Type
REMARK                         _______ _______ _______ _____ _____    ______ ____
ROOT
ATOM      1  C   UNL     1       2.738  -3.365  -4.724  0.00  0.00    +0.101 C 
ATOM      2  C   UNL     1       4.218  -3.616  -4.844  0.00  0.00    +0.008 A 
ATOM      3  C   UNL     1       5.082  -3.044  -3.927  0.00  0.00    +0.012 A 
ATOM      4  C   UNL     1       6.442  -3.263  -4.022  0.00  0.00    +0.047 A 
ATOM      5  C   UNL     1       6.947  -4.059  -5.040  0.00  0.00    +0.135 A 
ATOM      6  C   UNL     1       6.085  -4.633  -5.960  0.00  0.00    +0.093 A 
ATOM      7  C   UNL     1       4.717  -4.413  -5.863  0.00  0.00    +0.138 A 
ATOM      8  O   UNL     1       3.886  -4.982  -6.771  0.00  0.00    -0.441 OA
ATOM      9  C   UNL     1       2.647  -4.494  -6.943  0.00  0.00    +0.199 C 
ATOM     10  C   UNL     1       2.048  -3.723  -6.010  0.00  0.00    +0.098 C 
ENDROOT
BRANCH   1  16
ATOM     11  C   UNL     1       1.565  -3.600  -2.520  0.00  0.00    +0.125 A 
ATOM     12  C   UNL     1       1.046  -4.378  -1.496  0.00  0.00    +0.046 A 
ATOM     13  C   UNL     1       1.146  -5.755  -1.556  0.00  0.00    +0.004 A 
ATOM     14  C   UNL     1       1.763  -6.357  -2.637  0.00  0.00    +0.001 A 
ATOM     15  C   UNL     1       2.282  -5.584  -3.659  0.00  0.00    +0.008 A 
ATOM     16  C   UNL     1       2.179  -4.207  -3.606  0.00  0.00    +0.007 A 
BRANCH  11  17
ATOM     17  O   UNL     1       1.466  -2.246  -2.463  0.00  0.00    -0.492 OA
BRANCH  17  18
ATOM     18  C   UNL     1       0.822  -1.690  -1.316  0.00  0.00    +0.229 C 
BRANCH  18  19
ATOM     19  C   UNL     1       0.806  -0.164  -1.429  0.00  0.00    +0.041 C 
BRANCH  19  21
ATOM     20  C   UNL     1       0.101   1.957  -0.312  0.00  0.00    +0.004 C 
ATOM     21  C   UNL     1       0.116   0.431  -0.200  0.00  0.00    -0.000 C 
ENDBRANCH  19  21
ENDBRANCH  18  19
ENDBRANCH  17  18
ENDBRANCH  11  17
ENDBRANCH   1  16
BRANCH   9  22
ATOM     22  N   UNL     1       1.970  -4.788  -8.101  0.00  0.00    -0.328 N 
ATOM     23  H   UNL     1       2.388  -5.342  -8.779  0.00  0.00    +0.145 HD
ATOM     24  H   UNL     1       1.074  -4.444  -8.240  0.00  0.00    +0.145 HD
ENDBRANCH   9  22
BRANCH  10  25
ATOM     25  C   UNL     1       0.724  -3.235  -6.254  0.00  0.00    +0.101 C 
ATOM     26  N   UNL     1      -0.327  -2.848  -6.448  0.00  0.00    -0.191 NA
ENDBRANCH  10  25
BRANCH   5  27
ATOM     27  O   UNL     1       8.286  -4.275  -5.135  0.00  0.00    -0.422 OA
BRANCH  27  28
ATOM     28  C   UNL     1       8.873  -5.032  -4.187  0.00  0.00    +0.346 C 
ATOM     29  O   UNL     1       8.195  -5.583  -3.343  0.00  0.00    -0.244 OA
BRANCH  28  30
ATOM     30  C   UNL     1      10.341  -5.191  -4.174  0.00  0.00    +0.073 A 
ATOM     31  C   UNL     1      11.124  -4.553  -5.139  0.00  0.00    +0.016 A 
ATOM     32  C   UNL     1      12.495  -4.705  -5.121  0.00  0.00    +0.001 A 
ATOM     33  C   UNL     1      13.095  -5.488  -4.149  0.00  0.00    +0.001 A 
ATOM     34  C   UNL     1      12.327  -6.122  -3.191  0.00  0.00    +0.016 A 
ATOM     35  C   UNL     1      10.954  -5.974  -3.193  0.00  0.00    +0.032 A 
ATOM     36 BR   UNL     1       9.905  -6.836  -1.876  0.00  0.00    -0.049 Br
ENDBRANCH  28  30
ENDBRANCH  27  28
ENDBRANCH   5  27
TORSDOF 10
