REMARK  Name = ZINC12463822
REMARK  8 active torsions:
REMARK  status: ('A' for Active; 'I' for Inactive)
REMARK    1  A    between atoms: C_1  and  C_2
REMARK    2  A    between atoms: C_2  and  O_3
REMARK    3  A    between atoms: O_3  and  C_4
REMARK    4  A    between atoms: C_4  and  C_6
REMARK    5  A    between atoms: C_7  and  C_34
REMARK    6  A    between atoms: C_8  and  C_25
REMARK    7  A    between atoms: C_9  and  N_11
REMARK    8  A    between atoms: C_12  and  C_14
REMARK                            x       y       z     vdW  Elec       q    Type
REMARK                         _______ _______ _______ _____ _____    ______ ____
ROOT
ATOM      1  C   UNL     1       8.522   6.956   0.219  0.00  0.00    +0.101 A 
ATOM      2  C   UNL     1       7.501   7.856  -0.025  0.00  0.00    -0.018 A 
ATOM      3  C   UNL     1       6.246   7.338  -0.283  0.00  0.00    +0.039 A 
ATOM      4  C   UNL     1       6.093   5.952  -0.270  0.00  0.00    +0.083 A 
ATOM      5  S   UNL     1       7.691   5.384   0.087  0.00  0.00    -0.066 S 
ATOM      6  C   UNL     1       7.749   9.343  -0.015  0.00  0.00    +0.046 C 
ENDROOT
BRANCH   3   7
ATOM      7  C   UNL     1       5.101   8.226  -0.561  0.00  0.00    +0.112 A 
ATOM      8  N   UNL     1       3.830   7.913  -0.708  0.00  0.00    -0.239 NA
ATOM      9  C   UNL     1       2.882   8.838  -0.961  0.00  0.00    +0.079 A 
ATOM     10  C   UNL     1       1.493   8.638  -1.140  0.00  0.00    +0.029 A 
ATOM     11  C   UNL     1       0.661   9.696  -1.393  0.00  0.00    +0.002 A 
ATOM     12  C   UNL     1       1.144  10.994  -1.483  0.00  0.00    +0.001 A 
ATOM     13  C   UNL     1       2.496  11.227  -1.313  0.00  0.00    +0.017 A 
ATOM     14  C   UNL     1       3.339  10.173  -1.059  0.00  0.00    +0.040 A 
ATOM     15  S   UNL     1       5.084  10.000  -0.775  0.00  0.00    -0.067 S 
ENDBRANCH   3   7
BRANCH   4  16
ATOM     16  N   UNL     1       4.947   5.210  -0.492  0.00  0.00    -0.275 N 
ATOM     17  C   UNL     1       4.995   3.865  -0.443  0.00  0.00    +0.256 C 
ATOM     18  O   UNL     1       6.046   3.302  -0.203  0.00  0.00    -0.270 OA
ATOM     19  H   UNL     1       4.109   5.659  -0.684  0.00  0.00    +0.156 HD
BRANCH  17  20
ATOM     20  C   UNL     1       3.775   3.076  -0.680  0.00  0.00    +0.122 A 
ATOM     21  C   UNL     1       2.572   3.704  -0.955  0.00  0.00    +0.031 A 
ATOM     22  C   UNL     1       1.422   2.905  -1.176  0.00  0.00    +0.018 A 
ATOM     23  C   UNL     1       0.187   3.508  -1.457  0.00  0.00    +0.011 A 
ATOM     24  C   UNL     1      -0.916   2.733  -1.670  0.00  0.00    +0.001 A 
ATOM     25  C   UNL     1      -0.825   1.349  -1.615  0.00  0.00    +0.004 A 
ATOM     26  C   UNL     1       0.377   0.735  -1.335  0.00  0.00    +0.047 A 
ATOM     27  C   UNL     1       1.516   1.502  -1.115  0.00  0.00    +0.139 A 
ATOM     28  O   UNL     1       2.693   0.898  -0.846  0.00  0.00    -0.422 OA
ATOM     29  C   UNL     1       3.812   1.609  -0.629  0.00  0.00    +0.350 A 
ATOM     30  O   UNL     1       4.858   1.037  -0.389  0.00  0.00    -0.244 OA
ENDBRANCH  17  20
ENDBRANCH   4  16
BRANCH   1  31
ATOM     31  C   UNL     1       9.887   7.217   0.501  0.00  0.00    +0.346 C 
ATOM     32  O   UNL     1      10.289   8.365   0.553  0.00  0.00    -0.244 OA
BRANCH  31  33
ATOM     33  O   UNL     1      10.740   6.193   0.712  0.00  0.00    -0.461 OA
BRANCH  33  35
ATOM     34  C   UNL     1      12.910   5.249   1.201  0.00  0.00    +0.048 C 
ATOM     35  C   UNL     1      12.101   6.530   0.992  0.00  0.00    +0.229 C 
ENDBRANCH  33  35
ENDBRANCH  31  33
ENDBRANCH   1  31
TORSDOF 6
