REMARK  Name = ZINC59644513
REMARK  8 active torsions:
REMARK  status: ('A' for Active; 'I' for Inactive)
REMARK    1  A    between atoms: C_3  and  N_29
REMARK    2  A    between atoms: C_6  and  C_7
REMARK    3  A    between atoms: C_7  and  O_8
REMARK    4  A    between atoms: O_8  and  C_9
REMARK    5  A    between atoms: C_12  and  C_16
REMARK    6  A    between atoms: N_17  and  N_18
REMARK    7  A    between atoms: C_19  and  C_21
REMARK    8  A    between atoms: C_21  and  C_22
REMARK                            x       y       z     vdW  Elec       q    Type
REMARK                         _______ _______ _______ _____ _____    ______ ____
ROOT
ATOM      1  C   UNL     1      -2.874  -1.700  -1.505  0.00  0.00    +0.157 A 
ATOM      2  C   UNL     1      -2.849  -3.087  -1.598  0.00  0.00    +0.085 A 
ATOM      3  C   UNL     1      -4.023  -3.789  -1.771  0.00  0.00    +0.033 A 
ATOM      4  C   UNL     1      -5.239  -3.105  -1.853  0.00  0.00    -0.002 A 
ATOM      5  C   UNL     1      -5.259  -1.711  -1.759  0.00  0.00    +0.033 A 
ATOM      6  C   UNL     1      -4.081  -1.016  -1.581  0.00  0.00    +0.085 A 
ATOM      7 CL   UNL     1      -4.106   0.715  -1.458  0.00  0.00    -0.080 Cl
ATOM      8 CL   UNL     1      -1.338  -3.935  -1.497  0.00  0.00    -0.080 Cl
ENDROOT
BRANCH   4   9
ATOM      9  C   UNL     1      -6.496  -3.852  -2.038  0.00  0.00    +0.138 C 
ATOM     10  N   UNL     1      -7.624  -3.215  -2.114  0.00  0.00    -0.188 NA
BRANCH  10  11
ATOM     11  N   UNL     1      -8.819  -3.924  -2.290  0.00  0.00    -0.207 N 
ATOM     12  C   UNL     1      -9.991  -3.263  -2.368  0.00  0.00    +0.238 C 
ATOM     13  O   UNL     1     -10.011  -2.053  -2.287  0.00  0.00    -0.274 OA
ATOM     14  H   UNL     1      -8.804  -4.892  -2.355  0.00  0.00    +0.177 HD
BRANCH  12  15
ATOM     15  C   UNL     1     -11.276  -4.026  -2.558  0.00  0.00    +0.153 C 
BRANCH  15  16
ATOM     16  C   UNL     1     -12.431  -3.060  -2.614  0.00  0.00    +0.059 A 
ATOM     17  C   UNL     1     -13.296  -3.051  -3.656  0.00  0.00    +0.072 A 
ATOM     18  S   UNL     1     -14.400  -1.737  -3.162  0.00  0.00    -0.061 S 
ATOM     19  C   UNL     1     -13.656  -1.343  -1.705  0.00  0.00    +0.156 A 
ATOM     20  N   UNL     1     -12.648  -2.187  -1.645  0.00  0.00    -0.230 NA
ATOM     21  N   UNL     1     -14.020  -0.370  -0.787  0.00  0.00    -0.338 N 
ATOM     22  H   UNL     1     -14.797   0.187  -0.954  0.00  0.00    +0.144 HD
ATOM     23  H   UNL     1     -13.499  -0.246   0.021  0.00  0.00    +0.144 HD
ENDBRANCH  15  16
ENDBRANCH  12  15
ENDBRANCH  10  11
ENDBRANCH   4   9
BRANCH   1  24
ATOM     24  O   UNL     1      -1.715  -1.012  -1.334  0.00  0.00    -0.484 OA
BRANCH  24  25
ATOM     25  C   UNL     1      -1.293  -0.775   0.010  0.00  0.00    +0.264 C 
BRANCH  25  31
ATOM     26  C   UNL     1      -0.017   1.378   0.010  0.00  0.00    +0.009 A 
ATOM     27  C   UNL     1       1.171   2.086   0.002  0.00  0.00    +0.033 A 
ATOM     28  C   UNL     1       2.377   1.411  -0.013  0.00  0.00    +0.126 A 
ATOM     29  C   UNL     1       2.396   0.029  -0.020  0.00  0.00    +0.033 A 
ATOM     30  C   UNL     1       1.208  -0.679  -0.012  0.00  0.00    +0.009 A 
ATOM     31  C   UNL     1       0.002  -0.004   0.002  0.00  0.00    -0.010 A 
BRANCH  28  32
ATOM     32  N   UNL     1       3.649   2.168  -0.022  0.00  0.00    +0.056 N 
ATOM     33  O   UNL     1       3.633   3.377  -0.016  0.00  0.00    -0.126 OA
ATOM     34  O   UNL     1       4.704   1.578  -0.035  0.00  0.00    -0.126 OA
ENDBRANCH  28  32
ENDBRANCH  25  31
ENDBRANCH  24  25
ENDBRANCH   1  24
TORSDOF 8
