REMARK  Name = ZINC67020101
REMARK  7 active torsions:
REMARK  status: ('A' for Active; 'I' for Inactive)
REMARK    1  A    between atoms: C_1  and  C_2
REMARK    2  A    between atoms: C_6  and  N_11
REMARK    3  A    between atoms: C_7  and  C_8
REMARK    4  A    between atoms: C_12  and  C_14
REMARK    5  A    between atoms: C_14  and  C_15
REMARK    6  A    between atoms: C_16  and  C_27
REMARK    7  A    between atoms: C_25  and  C_26
REMARK                            x       y       z     vdW  Elec       q    Type
REMARK                         _______ _______ _______ _____ _____    ______ ____
ROOT
ATOM      1  N   UNL     1       0.052  -2.828   2.384  0.00  0.00    -0.285 N 
ATOM      2  C   UNL     1      -0.032  -4.173   2.365  0.00  0.00    +0.222 C 
ATOM      3  O   UNL     1      -0.029  -4.766   1.307  0.00  0.00    -0.275 OA
ATOM      4  H   UNL     1       0.116  -2.358   3.230  0.00  0.00    +0.155 HD
ENDROOT
BRANCH   1  10
ATOM      5  C   UNL     1      -1.231   1.202  -0.166  0.00  0.00    +0.044 C 
ATOM      6  C   UNL     1      -0.570  -0.149  -0.083  0.00  0.00    -0.037 A 
ATOM      7  C   UNL     1       0.038  -0.689  -1.196  0.00  0.00    +0.004 A 
ATOM      8  C   UNL     1       0.648  -1.931  -1.127  0.00  0.00    +0.002 A 
ATOM      9  C   UNL     1       0.654  -2.641   0.057  0.00  0.00    +0.024 A 
ATOM     10  C   UNL     1       0.047  -2.113   1.188  0.00  0.00    +0.046 A 
ATOM     11  C   UNL     1      -0.567  -0.853   1.123  0.00  0.00    +0.061 A 
BRANCH  11  12
ATOM     12  C   UNL     1      -1.210  -0.278   2.319  0.00  0.00    +0.244 C 
ATOM     13  O   UNL     1      -2.384  -0.502   2.545  0.00  0.00    -0.270 OA
ATOM     14  N   UNL     1      -0.498   0.496   3.162  0.00  0.00    -0.325 N 
ATOM     15  H   UNL     1       0.439   0.675   2.981  0.00  0.00    +0.145 HD
ATOM     16  H   UNL     1      -0.921   0.874   3.948  0.00  0.00    +0.145 HD
ENDBRANCH  11  12
ENDBRANCH   1  10
BRANCH   2  17
ATOM     17  C   UNL     1      -0.129  -4.940   3.658  0.00  0.00    +0.134 C 
BRANCH  17  18
ATOM     18  C   UNL     1      -0.210  -6.415   3.363  0.00  0.00    +0.003 A 
ATOM     19  C   UNL     1      -1.442  -7.010   3.070  0.00  0.00    +0.046 A 
ATOM     20  N   UNL     1      -1.511  -8.298   2.812  0.00  0.00    -0.233 NA
ATOM     21  C   UNL     1      -0.410  -9.060   2.825  0.00  0.00    +0.158 A 
ATOM     22  C   UNL     1      -0.214 -10.419   2.592  0.00  0.00    +0.119 A 
ATOM     23  C   UNL     1       1.147 -10.683   2.738  0.00  0.00    +0.267 A 
ATOM     24  O   UNL     1       1.682 -11.771   2.606  0.00  0.00    -0.266 OA
ATOM     25  N   UNL     1       1.771  -9.530   3.050  0.00  0.00    -0.258 N 
ATOM     26  H   UNL     1       2.722  -9.425   3.207  0.00  0.00    +0.191 HD
ATOM     27  N   UNL     1       0.814  -8.510   3.108  0.00  0.00    -0.238 N 
ATOM     28  C   UNL     1       0.914  -7.180   3.372  0.00  0.00    +0.045 A 
ATOM     29  C   UNL     1       2.254  -6.562   3.678  0.00  0.00    +0.066 C 
ATOM     30  C   UNL     1      -2.695  -6.172   3.050  0.00  0.00    +0.066 C 
ENDBRANCH  17  18
ENDBRANCH   2  17
TORSDOF 4
