REMARK  Name = ZINC02435761
REMARK  8 active torsions:
REMARK  status: ('A' for Active; 'I' for Inactive)
REMARK    1  A    between atoms: C_1  and  C_2
REMARK    2  A    between atoms: N_8  and  C_9
REMARK    3  A    between atoms: C_9  and  C_10
REMARK    4  A    between atoms: C_19  and  C_29
REMARK    5  A    between atoms: C_21  and  C_25
REMARK    6  A    between atoms: C_22  and  N_24
REMARK    7  A    between atoms: C_25  and  O_27
REMARK    8  A    between atoms: O_27  and  C_28
REMARK                            x       y       z     vdW  Elec       q    Type
REMARK                         _______ _______ _______ _____ _____    ______ ____
ROOT
ATOM      1  C   UNL     1       2.138   1.175  -0.354  0.00  0.00    +0.064 C 
ATOM      2  C   UNL     1       1.006   2.139  -0.112  0.00  0.00    +0.023 A 
ATOM      3  C   UNL     1      -0.224   1.662   0.177  0.00  0.00    +0.068 A 
ATOM      4  C   UNL     1      -1.289   2.559   0.399  0.00  0.00    +0.141 A 
ATOM      5  C   UNL     1      -1.047   3.915   0.324  0.00  0.00    +0.071 A 
ATOM      6  C   UNL     1       0.245   4.363   0.021  0.00  0.00    +0.259 A 
ATOM      7  O   UNL     1       0.474   5.561  -0.053  0.00  0.00    -0.267 OA
ATOM      8  N   UNL     1       1.236   3.476  -0.189  0.00  0.00    -0.308 N 
ATOM      9  C   UNL     1      -2.152   4.908   0.557  0.00  0.00    +0.100 C 
ATOM     10  C   UNL     1      -3.317   4.240   1.226  0.00  0.00    +0.105 C 
ATOM     11  C   UNL     1      -3.433   2.888   1.255  0.00  0.00    +0.195 C 
ATOM     12  O   UNL     1      -2.521   2.085   0.682  0.00  0.00    -0.441 OA
ENDROOT
BRANCH   9  13
ATOM     13  C   UNL     1      -2.607   5.468  -0.766  0.00  0.00    -0.034 A 
ATOM     14  C   UNL     1      -3.108   4.623  -1.739  0.00  0.00    +0.004 A 
ATOM     15  C   UNL     1      -3.531   5.137  -2.950  0.00  0.00    +0.002 A 
ATOM     16  C   UNL     1      -3.442   6.495  -3.194  0.00  0.00    +0.020 A 
ATOM     17  C   UNL     1      -2.936   7.340  -2.223  0.00  0.00    +0.041 A 
ATOM     18  C   UNL     1      -2.518   6.826  -1.008  0.00  0.00    +0.024 A 
ATOM     19 CL   UNL     1      -2.824   9.045  -2.529  0.00  0.00    -0.084 Cl
ENDBRANCH   9  13
BRANCH  11  20
ATOM     20  N   UNL     1      -4.511   2.326   1.884  0.00  0.00    -0.329 N 
ATOM     21  H   UNL     1      -4.655   1.368   1.837  0.00  0.00    +0.145 HD
ATOM     22  H   UNL     1      -5.131   2.886   2.377  0.00  0.00    +0.145 HD
ENDBRANCH  11  20
BRANCH  10  23
ATOM     23  C   UNL     1      -4.301   5.028   1.843  0.00  0.00    +0.341 C 
ATOM     24  O   UNL     1      -4.093   5.514   2.940  0.00  0.00    -0.245 OA
BRANCH  23  25
ATOM     25  O   UNL     1      -5.478   5.249   1.219  0.00  0.00    -0.465 OA
ATOM     26  C   UNL     1      -6.434   6.061   1.904  0.00  0.00    +0.280 C 
ENDBRANCH  23  25
ENDBRANCH  10  23
BRANCH   8  27
ATOM     27  C   UNL     1       2.582   3.959  -0.505  0.00  0.00    +0.160 C 
BRANCH  27  28
ATOM     28  C   UNL     1       2.691   4.208  -1.987  0.00  0.00    -0.024 A 
ATOM     29  C   UNL     1       2.257   5.409  -2.518  0.00  0.00    +0.009 A 
ATOM     30  C   UNL     1       2.356   5.643  -3.877  0.00  0.00    +0.050 A 
ATOM     31  C   UNL     1       2.889   4.673  -4.711  0.00  0.00    +0.166 A 
ATOM     32  C   UNL     1       3.326   3.464  -4.175  0.00  0.00    +0.167 A 
ATOM     33  C   UNL     1       3.230   3.239  -2.812  0.00  0.00    +0.055 A 
ATOM     34  O   UNL     1       3.805   2.685  -5.189  0.00  0.00    -0.453 OA
ATOM     35  C   UNL     1       3.282   3.265  -6.399  0.00  0.00    +0.466 C 
ATOM     36  O   UNL     1       3.094   4.652  -6.060  0.00  0.00    -0.453 OA
ENDBRANCH  27  28
ENDBRANCH   8  27
TORSDOF 6
