REMARK  Name = ZINC01933970
REMARK  11 active torsions:
REMARK  status: ('A' for Active; 'I' for Inactive)
REMARK    1  A    between atoms: C_1  and  C_2
REMARK    2  A    between atoms: C_5  and  O_8
REMARK    3  A    between atoms: O_8  and  C_9
REMARK    4  A    between atoms: C_15  and  O_31
REMARK    5  A    between atoms: C_16  and  C_24
REMARK    6  A    between atoms: C_19  and  C_20
REMARK    7  A    between atoms: C_24  and  N_54
REMARK    8  A    between atoms: C_25  and  C_26
REMARK    9  A    between atoms: C_25  and  N_54
REMARK   10  A    between atoms: C_28  and  C_29
REMARK   11  A    between atoms: C_28  and  N_54
REMARK                            x       y       z     vdW  Elec       q    Type
REMARK                         _______ _______ _______ _____ _____    ______ ____
ROOT
ATOM      1  C   UNL     1      -1.536   3.247  -0.506  0.00  0.00    +0.222 A 
ATOM      2  C   UNL     1      -1.335   3.870   0.758  0.00  0.00    +0.235 A 
ATOM      3  O   UNL     1      -1.303   3.220   1.789  0.00  0.00    -0.283 OA
ATOM      4  C   UNL     1      -1.159   5.333   0.768  0.00  0.00    +0.068 A 
ATOM      5  C   UNL     1      -0.951   6.032   1.958  0.00  0.00    +0.019 A 
ATOM      6  C   UNL     1      -0.798   7.389   1.927  0.00  0.00    +0.046 A 
ATOM      7  C   UNL     1      -0.849   8.077   0.717  0.00  0.00    +0.122 A 
ATOM      8  C   UNL     1      -1.055   7.398  -0.472  0.00  0.00    +0.020 A 
ATOM      9  C   UNL     1      -1.212   6.019  -0.458  0.00  0.00    +0.144 A 
ATOM     10  O   UNL     1      -1.414   5.333  -1.601  0.00  0.00    -0.447 OA
ATOM     11  C   UNL     1      -1.570   4.002  -1.622  0.00  0.00    +0.254 A 
ENDROOT
BRANCH  11  12
ATOM     12  C   UNL     1      -1.791   3.322  -2.948  0.00  0.00    +0.454 C 
ATOM     13  F   UNL     1      -3.163   3.261  -3.218  0.00  0.00    -0.163 F 
ATOM     14  F   UNL     1      -1.149   4.048  -3.958  0.00  0.00    -0.163 F 
ATOM     15  F   UNL     1      -1.267   2.026  -2.901  0.00  0.00    -0.163 F 
ENDBRANCH  11  12
BRANCH   7  16
ATOM     16  O   UNL     1      -0.695   9.426   0.703  0.00  0.00    -0.506 OA
ATOM     17  H   UNL     1      -1.510   9.917   0.878  0.00  0.00    +0.292 HD
ENDBRANCH   7  16
BRANCH   1  18
ATOM     18  O   UNL     1      -1.700   1.898  -0.587  0.00  0.00    -0.448 OA
BRANCH  18  23
ATOM     19  C   UNL     1       2.892  -1.286  -1.291  0.00  0.00    +0.044 C 
ATOM     20  C   UNL     1       1.664  -0.434  -1.101  0.00  0.00    -0.050 A 
ATOM     21  C   UNL     1       0.418  -1.029  -1.014  0.00  0.00    +0.007 A 
ATOM     22  C   UNL     1      -0.710  -0.250  -0.840  0.00  0.00    +0.046 A 
ATOM     23  C   UNL     1      -0.592   1.130  -0.753  0.00  0.00    +0.129 A 
ATOM     24  C   UNL     1       0.659   1.724  -0.840  0.00  0.00    +0.046 A 
ATOM     25  C   UNL     1       1.784   0.941  -1.015  0.00  0.00    +0.007 A 
ENDBRANCH  18  23
ENDBRANCH   1  18
BRANCH   8  26
ATOM     26  C   UNL     1      -1.109   8.153  -1.775  0.00  0.00    -0.035 C 
BRANCH  26  27
ATOM     27  N   UNL     1      -2.525   8.362  -2.143  0.00  0.00    +0.387 N 
ATOM     28  H   UNL     1      -3.043   7.489  -1.987  0.00  0.00    -0.080 HD
BRANCH  27  29
ATOM     29  C   UNL     1      -3.113   9.427  -1.303  0.00  0.00    -0.051 C 
BRANCH  29  30
ATOM     30  C   UNL     1      -2.433  10.745  -1.568  0.00  0.00    -0.053 C 
ATOM     31  C   UNL     1      -3.141  11.786  -1.930  0.00  0.00    +0.002 C 
ENDBRANCH  29  30
ENDBRANCH  27  29
BRANCH  27  32
ATOM     32  C   UNL     1      -2.626   8.732  -3.571  0.00  0.00    -0.051 C 
BRANCH  32  33
ATOM     33  C   UNL     1      -4.061   8.588  -4.008  0.00  0.00    -0.053 C 
ATOM     34  C   UNL     1      -4.678   9.597  -4.572  0.00  0.00    +0.002 C 
ENDBRANCH  32  33
ENDBRANCH  27  32
ENDBRANCH  26  27
ENDBRANCH   8  26
TORSDOF 10
