REMARK  Name = ZINC10064462
REMARK  12 active torsions:
REMARK  status: ('A' for Active; 'I' for Inactive)
REMARK    1  A    between atoms: C_1  and  C_2
REMARK    2  A    between atoms: C_4  and  C_31
REMARK    3  A    between atoms: C_5  and  C_9
REMARK    4  A    between atoms: C_6  and  C_8
REMARK    5  A    between atoms: C_9  and  C_10
REMARK    6  A    between atoms: C_10  and  N_12
REMARK    7  A    between atoms: N_14  and  C_26
REMARK    8  A    between atoms: C_18  and  S_22
REMARK    9  A    between atoms: S_22  and  N_25
REMARK   10  A    between atoms: C_26  and  C_27
REMARK   11  A    between atoms: C_27  and  O_29
REMARK   12  A    between atoms: O_29  and  C_30
REMARK                            x       y       z     vdW  Elec       q    Type
REMARK                         _______ _______ _______ _____ _____    ______ ____
ROOT
ATOM      1  N   UNL     1       3.696   2.642   2.718  0.00  0.00    -0.156 NA
ATOM      2  C   UNL     1       4.047   3.643   1.915  0.00  0.00    +0.167 A 
ATOM      3  N   UNL     1       5.285   3.954   1.446  0.00  0.00    -0.310 N 
ATOM      4  C   UNL     1       5.457   5.040   0.610  0.00  0.00    +0.058 A 
ATOM      5  C   UNL     1       6.644   5.511   0.026  0.00  0.00    +0.029 A 
ATOM      6  C   UNL     1       6.637   6.621  -0.784  0.00  0.00    +0.030 A 
ATOM      7  C   UNL     1       5.465   7.309  -1.050  0.00  0.00    +0.106 A 
ATOM      8  C   UNL     1       4.280   6.867  -0.488  0.00  0.00    +0.045 A 
ATOM      9  C   UNL     1       4.286   5.756   0.323  0.00  0.00    +0.041 A 
ATOM     10  S   UNL     1       3.038   4.871   1.222  0.00  0.00    -0.052 S 
ENDROOT
BRANCH   7  11
ATOM     11  S   UNL     1       5.481   8.729  -2.092  0.00  0.00    +0.056 S 
ATOM     12  O   UNL     1       4.345   9.505  -1.739  0.00  0.00    -0.153 OA
ATOM     13  O   UNL     1       6.803   9.250  -2.048  0.00  0.00    -0.153 OA
BRANCH  11  14
ATOM     14  N   UNL     1       5.231   8.202  -3.642  0.00  0.00    -0.204 NA
ATOM     15  H   UNL     1       5.111   7.256  -3.819  0.00  0.00    +0.144 HD
ATOM     16  H   UNL     1       5.206   8.839  -4.373  0.00  0.00    +0.144 HD
ENDBRANCH  11  14
ENDBRANCH   7  11
BRANCH   1  17
ATOM     17  C   UNL     1       2.426   2.495   3.081  0.00  0.00    +0.243 C 
ATOM     18  O   UNL     1       1.585   3.276   2.679  0.00  0.00    -0.273 OA
BRANCH  17  19
ATOM     19  C   UNL     1       2.028   1.361   3.990  0.00  0.00    +0.133 C 
BRANCH  19  24
ATOM     20  C   UNL     1      -3.662   1.585   4.971  0.00  0.00    +0.044 C 
ATOM     21  C   UNL     1      -2.179   1.527   4.715  0.00  0.00    -0.050 A 
ATOM     22  C   UNL     1      -1.306   2.198   5.551  0.00  0.00    +0.007 A 
ATOM     23  C   UNL     1       0.055   2.144   5.317  0.00  0.00    -0.046 A 
ATOM     24  C   UNL     1       0.544   1.419   4.246  0.00  0.00    -0.033 A 
ATOM     25  C   UNL     1      -0.329   0.749   3.409  0.00  0.00    -0.046 A 
ATOM     26  C   UNL     1      -1.690   0.807   3.641  0.00  0.00    +0.007 A 
ATOM     27  C   UNL     1       0.204  -0.041   2.242  0.00  0.00    +0.044 C 
ATOM     28  C   UNL     1       1.006   2.875   6.229  0.00  0.00    +0.044 C 
ENDBRANCH  19  24
ENDBRANCH  17  19
ENDBRANCH   1  17
BRANCH   3  29
ATOM     29  C   UNL     1       6.437   3.132   1.825  0.00  0.00    +0.244 C 
BRANCH  29  30
ATOM     30  C   UNL     1       6.334   2.763   3.282  0.00  0.00    +0.327 C 
ATOM     31  O   UNL     1       5.492   3.279   3.978  0.00  0.00    -0.249 OA
BRANCH  30  32
ATOM     32  O   UNL     1       7.179   1.862   3.808  0.00  0.00    -0.467 OA
ATOM     33  C   UNL     1       7.022   1.555   5.218  0.00  0.00    +0.280 C 
ENDBRANCH  30  32
ENDBRANCH  29  30
ENDBRANCH   3  29
TORSDOF 8
