REMARK  Name = ZINC40707807
REMARK  5 active torsions:
REMARK  status: ('A' for Active; 'I' for Inactive)
REMARK    1  A    between atoms: C_1  and  C_2
REMARK    2  A    between atoms: C_2  and  C_3
REMARK    3  A    between atoms: C_2  and  C_4
REMARK    4  A    between atoms: C_5  and  N_22
REMARK    5  A    between atoms: C_7  and  C_12
REMARK                            x       y       z     vdW  Elec       q    Type
REMARK                         _______ _______ _______ _____ _____    ______ ____
ROOT
ATOM      1  C   UNL     1      -1.412  -0.526   0.013  0.00  0.00    +0.085 A 
ATOM      2  C   UNL     1      -1.971  -1.311  -0.930  0.00  0.00    +0.125 A 
ATOM      3  N   UNL     1      -3.284  -1.565  -0.543  0.00  0.00    -0.274 N 
ATOM      4  C   UNL     1      -4.383  -2.264  -1.014  0.00  0.00    +0.064 A 
ATOM      5  C   UNL     1      -5.535  -2.267  -0.318  0.00  0.00    +0.075 A 
ATOM      6  S   UNL     1      -5.120  -1.251   1.091  0.00  0.00    -0.057 S 
ATOM      7  C   UNL     1      -3.437  -0.895   0.646  0.00  0.00    +0.179 A 
ATOM      8  N   UNL     1      -2.331  -0.292   0.968  0.00  0.00    -0.224 NA
ENDROOT
BRANCH   4   9
ATOM      9  C   UNL     1      -4.292  -3.008  -2.289  0.00  0.00    +0.003 A 
ATOM     10  C   UNL     1      -3.436  -4.105  -2.398  0.00  0.00    +0.014 A 
ATOM     11  C   UNL     1      -3.352  -4.797  -3.588  0.00  0.00    +0.050 A 
ATOM     12  C   UNL     1      -4.117  -4.408  -4.680  0.00  0.00    +0.162 A 
ATOM     13  C   UNL     1      -4.974  -3.317  -4.576  0.00  0.00    +0.163 A 
ATOM     14  C   UNL     1      -5.065  -2.620  -3.383  0.00  0.00    +0.059 A 
ATOM     15  O   UNL     1      -5.736  -2.928  -5.635  0.00  0.00    -0.485 OA
ATOM     16  C   UNL     1      -5.349  -3.419  -6.922  0.00  0.00    +0.270 C 
ATOM     17  C   UNL     1      -5.068  -4.923  -6.798  0.00  0.00    +0.270 C 
ATOM     18  O   UNL     1      -4.014  -5.104  -5.846  0.00  0.00    -0.485 OA
ENDBRANCH   4   9
BRANCH   1  20
ATOM     19  C   UNL     1      -0.019   1.526   0.010  0.00  0.00    +0.014 C 
ATOM     20  C   UNL     1       0.002  -0.004   0.002  0.00  0.00    +0.035 C 
ATOM     21  C   UNL     1       0.742  -0.511   1.242  0.00  0.00    +0.014 C 
ENDBRANCH   1  20
BRANCH   2  22
ATOM     22  N   UNL     1      -1.343  -1.785  -2.091  0.00  0.00    -0.343 N 
ATOM     23  H   UNL     1      -0.420  -1.551  -2.273  0.00  0.00    +0.144 HD
ATOM     24  H   UNL     1      -1.833  -2.348  -2.711  0.00  0.00    +0.144 HD
ENDBRANCH   2  22
TORSDOF 3
