REMARK  Name = ZINC35955672
REMARK  5 active torsions:
REMARK  status: ('A' for Active; 'I' for Inactive)
REMARK    1  A    between atoms: C_1  and  C_2
REMARK    2  A    between atoms: C_2  and  C_4
REMARK    3  A    between atoms: C_2  and  N_10
REMARK    4  A    between atoms: C_11  and  C_13
REMARK    5  A    between atoms: N_28  and  C_29
REMARK                            x       y       z     vdW  Elec       q    Type
REMARK                         _______ _______ _______ _____ _____    ______ ____
ROOT
ATOM      1  C   UNL     1      -3.147  -1.265  -1.401  0.00  0.00    +0.092 C 
ATOM      2  C   UNL     1      -3.915  -0.291  -0.505  0.00  0.00    +0.016 C 
ATOM      3  C   UNL     1      -5.359  -0.773  -0.344  0.00  0.00    +0.020 C 
ATOM      4  C   UNL     1      -6.038  -0.806  -1.716  0.00  0.00    +0.108 C 
ATOM      5  N   UNL     1      -5.226  -1.625  -2.626  0.00  0.00    -0.302 N 
ATOM      6  C   UNL     1      -3.801  -1.304  -2.786  0.00  0.00    +0.120 C 
ATOM      7  C   UNL     1      -5.791  -2.676  -3.318  0.00  0.00    +0.177 A 
ATOM      8  N   UNL     1      -5.788  -3.925  -2.923  0.00  0.00    -0.327 N 
ATOM      9  C   UNL     1      -6.430  -4.695  -3.841  0.00  0.00    +0.065 A 
ATOM     10  C   UNL     1      -6.710  -6.062  -3.920  0.00  0.00    +0.028 A 
ATOM     11  C   UNL     1      -7.396  -6.558  -5.005  0.00  0.00    +0.002 A 
ATOM     12  C   UNL     1      -7.812  -5.711  -6.022  0.00  0.00    +0.002 A 
ATOM     13  C   UNL     1      -7.543  -4.359  -5.959  0.00  0.00    +0.028 A 
ATOM     14  C   UNL     1      -6.854  -3.842  -4.873  0.00  0.00    +0.068 A 
ATOM     15  N   UNL     1      -6.441  -2.569  -4.514  0.00  0.00    -0.310 N 
ATOM     16  H   UNL     1      -5.389  -4.250  -2.101  0.00  0.00    +0.169 HD
ENDROOT
BRANCH  15  17
ATOM     17  C   UNL     1      -6.659  -1.338  -5.277  0.00  0.00    +0.090 C 
ATOM     18  C   UNL     1      -8.161  -1.106  -5.453  0.00  0.00    +0.025 C 
ATOM     19  C   UNL     1      -8.389   0.180  -6.250  0.00  0.00    +0.002 C 
ATOM     20  C   UNL     1      -7.729   0.052  -7.624  0.00  0.00    +0.000 C 
ATOM     21  C   UNL     1      -6.226  -0.180  -7.449  0.00  0.00    +0.002 C 
ATOM     22  C   UNL     1      -5.999  -1.466  -6.652  0.00  0.00    +0.025 C 
ENDBRANCH  15  17
BRANCH   1  24
ATOM     23  N   UNL     1      -0.942  -0.695  -0.436  0.00  0.00    -0.308 N 
ATOM     24  C   UNL     1      -1.718  -0.807  -1.533  0.00  0.00    +0.218 C 
ATOM     25  O   UNL     1      -1.265  -0.539  -2.626  0.00  0.00    -0.275 OA
ATOM     26  H   UNL     1      -1.304  -0.909   0.438  0.00  0.00    +0.149 HD
BRANCH  23  28
ATOM     27  C   UNL     1       0.494   1.280  -0.574  0.00  0.00    +0.033 C 
ATOM     28  C   UNL     1       0.448  -0.250  -0.565  0.00  0.00    +0.100 C 
BRANCH  28  29
ATOM     29  C   UNL     1       1.251  -0.769   0.600  0.00  0.00    -0.027 A 
ATOM     30  C   UNL     1       0.701  -0.784   1.868  0.00  0.00    +0.005 A 
ATOM     31  C   UNL     1       1.438  -1.261   2.936  0.00  0.00    +0.000 A 
ATOM     32  C   UNL     1       2.725  -1.723   2.736  0.00  0.00    +0.000 A 
ATOM     33  C   UNL     1       3.275  -1.709   1.467  0.00  0.00    +0.000 A 
ATOM     34  C   UNL     1       2.537  -1.236   0.399  0.00  0.00    +0.005 A 
ENDBRANCH  28  29
ENDBRANCH  23  28
ENDBRANCH   1  24
TORSDOF 4
