REMARK  Name = ZINC64656595
REMARK  3 active torsions:
REMARK  status: ('A' for Active; 'I' for Inactive)
REMARK    1  A    between atoms: C_4  and  S_7
REMARK    2  A    between atoms: S_7  and  C_10
REMARK    3  A    between atoms: C_19  and  C_21
REMARK                            x       y       z     vdW  Elec       q    Type
REMARK                         _______ _______ _______ _____ _____    ______ ____
ROOT
ATOM      1  C   UNL     1       4.451  -1.228   1.597  0.00  0.00    +0.122 A 
ATOM      2  C   UNL     1       4.592  -2.523   1.970  0.00  0.00    +0.074 A 
ATOM      3  S   UNL     1       5.116  -2.367   3.671  0.00  0.00    -0.097 S 
ATOM      4  C   UNL     1       5.105  -0.601   3.764  0.00  0.00    +0.021 A 
ATOM      5  C   UNL     1       4.721  -0.212   2.509  0.00  0.00    +0.070 A 
ATOM      6  N   UNL     1       4.610   1.184   2.243  0.00  0.00    -0.283 N 
ATOM      7  C   UNL     1       5.093   2.055   3.146  0.00  0.00    +0.218 C 
ATOM      8  O   UNL     1       4.837   3.233   3.006  0.00  0.00    -0.275 OA
ATOM      9  C   UNL     1       5.934   1.641   4.319  0.00  0.00    +0.109 C 
ATOM     10  C   UNL     1       5.424   0.310   4.902  0.00  0.00    +0.066 C 
ATOM     11  H   UNL     1       4.195   1.499   1.425  0.00  0.00    +0.155 HD
ENDROOT
BRANCH  10  12
ATOM     12  C   UNL     1       6.501  -0.305   5.758  0.00  0.00    -0.036 A 
ATOM     13  C   UNL     1       7.739  -0.590   5.212  0.00  0.00    +0.004 A 
ATOM     14  C   UNL     1       8.728  -1.154   5.996  0.00  0.00    +0.003 A 
ATOM     15  C   UNL     1       8.480  -1.433   7.327  0.00  0.00    +0.038 A 
ATOM     16  C   UNL     1       7.241  -1.148   7.875  0.00  0.00    +0.124 A 
ATOM     17  C   UNL     1       6.253  -0.577   7.090  0.00  0.00    +0.042 A 
ATOM     18  F   UNL     1       6.998  -1.421   9.175  0.00  0.00    -0.205 F 
ENDBRANCH  10  12
BRANCH   1  19
ATOM     19  S   UNL     1       3.934  -0.832  -0.041  0.00  0.00    +0.027 S 
ATOM     20  O   UNL     1       2.897   0.132   0.083  0.00  0.00    -0.164 OA
ATOM     21  O   UNL     1       3.749  -2.067  -0.719  0.00  0.00    -0.164 OA
BRANCH  19  25
ATOM     22  C   UNL     1       7.400   1.253  -2.073  0.00  0.00    +0.000 A 
ATOM     23  C   UNL     1       7.349  -0.128  -2.036  0.00  0.00    +0.002 A 
ATOM     24  C   UNL     1       6.291  -0.765  -1.416  0.00  0.00    +0.027 A 
ATOM     25  C   UNL     1       5.284  -0.020  -0.831  0.00  0.00    +0.094 A 
ATOM     26  C   UNL     1       5.335   1.361  -0.866  0.00  0.00    +0.027 A 
ATOM     27  C   UNL     1       6.393   1.997  -1.488  0.00  0.00    +0.002 A 
ENDBRANCH  19  25
ENDBRANCH   1  19
TORSDOF 3
