REMARK  Name = ZINC36598821
REMARK  14 active torsions:
REMARK  status: ('A' for Active; 'I' for Inactive)
REMARK    1  A    between atoms: C_1  and  C_2
REMARK    2  A    between atoms: C_5  and  C_7
REMARK    3  A    between atoms: C_7  and  N_8
REMARK    4  A    between atoms: N_8  and  C_9
REMARK    5  A    between atoms: C_9  and  C_11
REMARK    6  A    between atoms: C_9  and  C_20
REMARK    7  A    between atoms: C_14  and  O_19
REMARK    8  A    between atoms: C_15  and  O_17
REMARK    9  A    between atoms: O_17  and  C_18
REMARK   10  A    between atoms: N_22  and  C_23
REMARK   11  A    between atoms: C_29  and  C_31
REMARK   12  A    between atoms: C_31  and  C_32
REMARK   13  A    between atoms: C_32  and  C_34
REMARK   14  A    between atoms: C_32  and  C_35
REMARK                            x       y       z     vdW  Elec       q    Type
REMARK                         _______ _______ _______ _____ _____    ______ ____
ROOT
ATOM      1  C   UNL     1       3.138  -3.221  -2.016  0.00  0.00    +0.193 C 
ENDROOT
BRANCH   1   2
ATOM      2  C   UNL     1       4.346  -3.767  -1.299  0.00  0.00    -0.015 A 
ATOM      3  C   UNL     1       4.392  -3.753   0.082  0.00  0.00    +0.010 A 
ATOM      4  C   UNL     1       5.498  -4.253   0.745  0.00  0.00    +0.049 A 
ATOM      5  C   UNL     1       6.563  -4.768   0.024  0.00  0.00    +0.158 A 
ATOM      6  C   UNL     1       6.516  -4.782  -1.367  0.00  0.00    +0.162 A 
ATOM      7  C   UNL     1       5.403  -4.284  -2.025  0.00  0.00    +0.055 A 
BRANCH   6   8
ATOM      8  O   UNL     1       7.559  -5.287  -2.079  0.00  0.00    -0.491 OA
ATOM      9  C   UNL     1       7.442  -5.268  -3.503  0.00  0.00    +0.277 C 
ENDBRANCH   6   8
BRANCH   5  10
ATOM     10  O   UNL     1       7.652  -5.259   0.674  0.00  0.00    -0.503 OA
ATOM     11  H   UNL     1       7.594  -6.202   0.883  0.00  0.00    +0.292 HD
ENDBRANCH   5  10
ENDBRANCH   1   2
BRANCH   1  12
ATOM     12  C   UNL     1       3.151  -1.716  -1.950  0.00  0.00    +0.238 C 
ATOM     13  O   UNL     1       2.280  -1.127  -1.346  0.00  0.00    -0.273 OA
ATOM     14  N   UNL     1       4.132  -1.023  -2.563  0.00  0.00    -0.311 N 
ATOM     15  H   UNL     1       4.829  -1.494  -3.047  0.00  0.00    +0.149 HD
BRANCH  14  16
ATOM     16  C   UNL     1       4.146   0.440  -2.499  0.00  0.00    +0.073 C 
ATOM     17  C   UNL     1       3.254   1.007  -3.606  0.00  0.00    +0.022 C 
ATOM     18  C   UNL     1       3.269   2.536  -3.539  0.00  0.00    +0.002 C 
ATOM     19  C   UNL     1       4.700   3.041  -3.727  0.00  0.00    +0.000 C 
ATOM     20  C   UNL     1       5.591   2.474  -2.621  0.00  0.00    +0.002 C 
ATOM     21  C   UNL     1       5.577   0.946  -2.688  0.00  0.00    +0.022 C 
ENDBRANCH  14  16
ENDBRANCH   1  12
BRANCH   1  22
ATOM     22  N   UNL     1       1.921  -3.727  -1.377  0.00  0.00    -0.279 N 
ATOM     23  C   UNL     1       1.502  -4.984  -1.623  0.00  0.00    +0.217 C 
ATOM     24  O   UNL     1       2.133  -5.697  -2.374  0.00  0.00    -0.276 OA
BRANCH  22  25
ATOM     25  C   UNL     1       1.158  -2.866  -0.469  0.00  0.00    +0.183 C 
BRANCH  25  30
ATOM     26  C   UNL     1      -1.332   0.728  -2.984  0.00  0.00    +0.086 C 
ATOM     27  C   UNL     1      -1.007  -0.592  -2.334  0.00  0.00    +0.102 A 
ATOM     28  C   UNL     1      -1.809  -1.671  -2.300  0.00  0.00    +0.045 A 
ATOM     29  C   UNL     1      -1.111  -2.679  -1.595  0.00  0.00    +0.046 A 
ATOM     30  C   UNL     1       0.076  -2.155  -1.241  0.00  0.00    +0.122 A 
ATOM     31  O   UNL     1       0.137  -0.893  -1.696  0.00  0.00    -0.463 OA
ENDBRANCH  25  30
ENDBRANCH  22  25
BRANCH  23  32
ATOM     32  C   UNL     1       0.250  -5.504  -0.965  0.00  0.00    +0.104 C 
BRANCH  32  33
ATOM     33  C   UNL     1       0.001  -6.947  -1.411  0.00  0.00    +0.025 C 
ATOM     34  C   UNL     1      -0.290  -6.973  -2.912  0.00  0.00    +0.013 C 
BRANCH  33  35
ATOM     35  C   UNL     1      -1.179  -7.508  -0.660  0.00  0.00    -0.044 A 
ATOM     36  C   UNL     1      -2.420  -6.909  -0.775  0.00  0.00    +0.004 A 
ATOM     37  C   UNL     1      -3.502  -7.423  -0.087  0.00  0.00    +0.000 A 
ATOM     38  C   UNL     1      -3.345  -8.537   0.716  0.00  0.00    +0.000 A 
ATOM     39  C   UNL     1      -2.104  -9.137   0.831  0.00  0.00    +0.000 A 
ATOM     40  C   UNL     1      -1.022  -8.624   0.139  0.00  0.00    +0.004 A 
ENDBRANCH  33  35
ENDBRANCH  32  33
ENDBRANCH  23  32
ENDBRANCH   1  22
TORSDOF 11
