REMARK  Name = ZINC37792066
REMARK  7 active torsions:
REMARK  status: ('A' for Active; 'I' for Inactive)
REMARK    1  A    between atoms: C_1  and  C_2
REMARK    2  A    between atoms: C_2  and  C_21
REMARK    3  A    between atoms: C_4  and  N_10
REMARK    4  A    between atoms: C_6  and  C_8
REMARK    5  A    between atoms: C_6  and  C_9
REMARK    6  A    between atoms: C_11  and  C_13
REMARK    7  A    between atoms: C_16  and  C_18
REMARK                            x       y       z     vdW  Elec       q    Type
REMARK                         _______ _______ _______ _____ _____    ______ ____
ROOT
ATOM      1  C   UNL     1      -1.518  -2.675  -0.879  0.00  0.00    -0.010 C 
ATOM      2  C   UNL     1      -0.588  -3.892  -0.926  0.00  0.00    -0.072 C 
ATOM      3  C   UNL     1       0.331  -3.793  -2.139  0.00  0.00    +0.009 C 
ATOM      4  C   UNL     1       1.416  -2.743  -1.900  0.00  0.00    +0.070 C 
ATOM      5  C   UNL     1       2.224  -3.164  -0.673  0.00  0.00    +0.009 C 
ATOM      6  C   UNL     1       1.320  -3.260   0.552  0.00  0.00    -0.072 C 
ATOM      7  N   UNL     1       0.128  -4.059   0.326  0.00  0.00    +0.386 N 
ATOM      8  C   UNL     1       0.963  -1.853   1.043  0.00  0.00    -0.010 C 
ATOM      9  C   UNL     1       2.135  -3.939   1.676  0.00  0.00    -0.010 C 
ATOM     10  C   UNL     1      -1.483  -5.138  -1.125  0.00  0.00    -0.010 C 
ATOM     11  H   UNL     1      -0.525  -3.885   1.096  0.00  0.00    -0.084 HD
ATOM     12  H   UNL     1       0.383  -5.047   0.420  0.00  0.00    -0.084 HD
ENDROOT
BRANCH   4  13
ATOM     13  N   UNL     1       2.304  -2.690  -3.069  0.00  0.00    -0.312 N 
ATOM     14  C   UNL     1       2.995  -1.565  -3.339  0.00  0.00    +0.217 C 
ATOM     15  O   UNL     1       2.884  -0.597  -2.617  0.00  0.00    -0.275 OA
ATOM     16  H   UNL     1       2.392  -3.464  -3.646  0.00  0.00    +0.149 HD
BRANCH  14  17
ATOM     17  C   UNL     1       3.905  -1.510  -4.539  0.00  0.00    +0.090 C 
ATOM     18  C   UNL     1       5.051  -0.496  -4.510  0.00  0.00    +0.029 C 
ATOM     19  C   UNL     1       5.346  -1.990  -4.354  0.00  0.00    +0.115 C 
BRANCH  19  20
ATOM     20  C   UNL     1       5.746  -2.482  -2.987  0.00  0.00    +0.360 C 
ATOM     21  O   UNL     1       6.003  -3.661  -2.814  0.00  0.00    -0.246 OA
ATOM     22  O   UNL     1       5.813  -1.700  -2.053  0.00  0.00    -0.246 OA
ENDBRANCH  19  20
ENDBRANCH  14  17
ENDBRANCH   4  13
TORSDOF 3
