REMARK  Name = ZINC02126015
REMARK  7 active torsions:
REMARK  status: ('A' for Active; 'I' for Inactive)
REMARK    1  A    between atoms: C_1  and  C_2
REMARK    2  A    between atoms: C_7  and  C_20
REMARK    3  A    between atoms: C_12  and  C_13
REMARK    4  A    between atoms: C_13  and  C_14
REMARK    5  A    between atoms: C_24  and  C_25
REMARK    6  A    between atoms: C_24  and  N_59
REMARK    7  A    between atoms: C_25  and  C_26
REMARK                            x       y       z     vdW  Elec       q    Type
REMARK                         _______ _______ _______ _____ _____    ______ ____
ROOT
ATOM      1  C   UNL     1     -10.167   1.540  -1.223  0.00  0.00    +0.045 C 
ATOM      2  C   UNL     1     -10.062   0.109  -0.763  0.00  0.00    -0.030 A 
ATOM      3  C   UNL     1      -8.810  -0.421  -0.216  0.00  0.00    +0.021 A 
ATOM      4  C   UNL     1      -7.675   0.389  -0.107  0.00  0.00    +0.017 A 
ATOM      5  C   UNL     1      -6.516  -0.123   0.407  0.00  0.00    -0.021 A 
ATOM      6  C   UNL     1      -6.461  -1.451   0.824  0.00  0.00    +0.125 A 
ATOM      7  C   UNL     1      -7.578  -2.267   0.720  0.00  0.00    +0.034 A 
ATOM      8  C   UNL     1      -8.762  -1.764   0.200  0.00  0.00    +0.146 A 
ATOM      9  O   UNL     1      -9.850  -2.553   0.098  0.00  0.00    -0.422 OA
ATOM     10  C   UNL     1     -10.991  -2.066  -0.400  0.00  0.00    +0.341 A 
ATOM     11  O   UNL     1     -11.956  -2.805  -0.478  0.00  0.00    -0.245 OA
ATOM     12  C   UNL     1     -11.125  -0.734  -0.840  0.00  0.00    +0.045 A 
ATOM     13  C   UNL     1      -7.505  -3.703   1.171  0.00  0.00    +0.051 C 
ATOM     14  O   UNL     1      -5.315  -1.969   1.339  0.00  0.00    -0.509 OA
ATOM     15  C   UNL     1      -4.107  -1.241   1.102  0.00  0.00    +0.157 C 
ATOM     16  C   UNL     1      -5.304   0.768   0.512  0.00  0.00    -0.034 C 
ATOM     17  N   UNL     1      -4.348   0.171   1.463  0.00  0.00    +0.405 N 
ATOM     18  H   UNL     1      -4.745   0.212   2.409  0.00  0.00    -0.076 HD
ENDROOT
BRANCH  12  19
ATOM     19  C   UNL     1     -12.440  -0.247  -1.391  0.00  0.00    +0.077 C 
BRANCH  19  20
ATOM     20  C   UNL     1     -12.475  -0.474  -2.881  0.00  0.00    -0.043 A 
ATOM     21  C   UNL     1     -12.020   0.508  -3.741  0.00  0.00    +0.004 A 
ATOM     22  C   UNL     1     -12.048   0.297  -5.107  0.00  0.00    +0.000 A 
ATOM     23  C   UNL     1     -12.539  -0.891  -5.613  0.00  0.00    +0.000 A 
ATOM     24  C   UNL     1     -12.999  -1.871  -4.753  0.00  0.00    +0.000 A 
ATOM     25  C   UNL     1     -12.966  -1.663  -3.387  0.00  0.00    +0.004 A 
ENDBRANCH  19  20
ENDBRANCH  12  19
BRANCH  17  26
ATOM     26  C   UNL     1      -3.074   0.925   1.442  0.00  0.00    -0.069 C 
BRANCH  26  27
ATOM     27  C   UNL     1      -2.514   0.979   0.019  0.00  0.00    +0.018 C 
BRANCH  27  28
ATOM     28  C   UNL     1      -1.219   1.750   0.017  0.00  0.00    -0.031 A 
ATOM     29  C   UNL     1      -0.013   1.076   0.008  0.00  0.00    +0.006 A 
ATOM     30  C   UNL     1       1.175   1.783   0.000  0.00  0.00    +0.020 A 
ATOM     31  C   UNL     1       1.157   3.166   0.008  0.00  0.00    +0.042 A 
ATOM     32  C   UNL     1      -0.050   3.842   0.023  0.00  0.00    +0.040 A 
ATOM     33  C   UNL     1      -1.238   3.134   0.031  0.00  0.00    +0.045 A 
ATOM     34 CL   UNL     1      -2.754   3.981   0.049  0.00  0.00    -0.083 Cl
ATOM     35 CL   UNL     1       2.648   4.054  -0.001  0.00  0.00    -0.083 Cl
ENDBRANCH  27  28
ENDBRANCH  26  27
ENDBRANCH  17  26
TORSDOF 5
