REMARK  Name = ZINC09090425
REMARK  4 active torsions:
REMARK  status: ('A' for Active; 'I' for Inactive)
REMARK    1  A    between atoms: C_9  and  N_22
REMARK    2  A    between atoms: C_10  and  N_13
REMARK    3  A    between atoms: C_14  and  C_16
REMARK    4  A    between atoms: N_22  and  C_23
REMARK                            x       y       z     vdW  Elec       q    Type
REMARK                         _______ _______ _______ _____ _____    ______ ____
ROOT
ATOM      1  C   UNL     1       2.708   5.793   0.629  0.00  0.00    +0.001 A 
ATOM      2  C   UNL     1       3.678   4.829   0.434  0.00  0.00    +0.001 A 
ATOM      3  C   UNL     1       3.321   3.500   0.257  0.00  0.00    +0.012 A 
ATOM      4  C   UNL     1       1.981   3.136   0.276  0.00  0.00    +0.034 A 
ATOM      5  C   UNL     1       0.994   4.118   0.474  0.00  0.00    +0.034 A 
ATOM      6  C   UNL     1       1.366   5.445   0.651  0.00  0.00    +0.012 A 
ATOM      7  C   UNL     1      -0.432   3.723   0.493  0.00  0.00    +0.209 C 
ATOM      8  O   UNL     1      -1.295   4.562   0.663  0.00  0.00    -0.285 OA
ATOM      9  C   UNL     1      -0.803   2.309   0.298  0.00  0.00    +0.101 C 
ATOM     10  C   UNL     1       0.153   1.361   0.111  0.00  0.00    +0.106 C 
ATOM     11  C   UNL     1       1.578   1.724   0.088  0.00  0.00    +0.210 C 
ATOM     12  O   UNL     1       2.422   0.867  -0.084  0.00  0.00    -0.285 OA
ENDROOT
BRANCH  10  13
ATOM     13  N   UNL     1      -0.222   0.031  -0.066  0.00  0.00    -0.274 N 
ATOM     14  C   UNL     1       0.243  -0.917   0.771  0.00  0.00    +0.284 C 
ATOM     15  O   UNL     1       0.916  -0.602   1.735  0.00  0.00    -0.266 OA
ATOM     16  H   UNL     1      -0.898  -0.245  -0.889  0.00  0.00    +0.155 HD
BRANCH  14  17
ATOM     17  C   UNL     1      -0.060  -2.328   0.520  0.00  0.00    +0.191 A 
ATOM     18  C   UNL     1       0.347  -3.385   1.284  0.00  0.00    +0.056 A 
ATOM     19  C   UNL     1      -0.168  -4.542   0.680  0.00  0.00    +0.058 A 
ATOM     20  C   UNL     1      -0.860  -4.146  -0.414  0.00  0.00    +0.171 A 
ATOM     21  O   UNL     1      -0.796  -2.812  -0.504  0.00  0.00    -0.444 OA
ATOM     22 BR   UNL     1      -1.771  -5.289  -1.613  0.00  0.00    -0.008 Br
ENDBRANCH  14  17
ENDBRANCH  10  13
BRANCH   9  23
ATOM     23  N   UNL     1      -2.141   1.942   0.311  0.00  0.00    -0.335 N 
ATOM     24  H   UNL     1      -2.421   0.880   0.257  0.00  0.00    +0.147 HD
BRANCH  23  25
ATOM     25  C   UNL     1      -3.182   2.970   0.397  0.00  0.00    +0.093 C 
ATOM     26  C   UNL     1      -4.498   2.426  -0.183  0.00  0.00    +0.046 C 
ATOM     27  C   UNL     1      -5.668   3.369   0.189  0.00  0.00    +0.168 C 
ATOM     28  S   UNL     1      -5.095   4.119   1.768  0.00  0.00    -0.029 S 
ATOM     29  O   UNL     1      -4.944   5.520   1.586  0.00  0.00    -0.174 OA
ATOM     30  O   UNL     1      -5.906   3.636   2.830  0.00  0.00    -0.174 OA
ATOM     31  C   UNL     1      -3.427   3.346   1.886  0.00  0.00    +0.188 C 
ENDBRANCH  23  25
ENDBRANCH   9  23
TORSDOF 4
