REMARK  Name = ZINC67445287
REMARK  6 active torsions:
REMARK  status: ('A' for Active; 'I' for Inactive)
REMARK    1  A    between atoms: C_1  and  C_2
REMARK    2  A    between atoms: C_8  and  N_10
REMARK    3  A    between atoms: C_14  and  C_16
REMARK    4  A    between atoms: C_16  and  N_17
REMARK    5  A    between atoms: C_21  and  C_23
REMARK    6  A    between atoms: N_27  and  C_28
REMARK                            x       y       z     vdW  Elec       q    Type
REMARK                         _______ _______ _______ _____ _____    ______ ____
ROOT
ATOM      1  N   UNL     1       2.116  -0.004   1.231  0.00  0.00    -0.296 N 
ATOM      2  C   UNL     1       2.795   0.128   2.388  0.00  0.00    +0.306 C 
ATOM      3  O   UNL     1       2.267  -0.174   3.440  0.00  0.00    -0.252 OA
ATOM      4  N   UNL     1       4.059   0.594   2.379  0.00  0.00    -0.242 N 
ATOM      5  C   UNL     1       4.738   0.726   3.536  0.00  0.00    +0.204 C 
ATOM      6  O   UNL     1       4.211   0.424   4.585  0.00  0.00    -0.277 OA
ATOM      7  H   UNL     1       2.538   0.237   0.392  0.00  0.00    +0.151 HD
ATOM      8  H   UNL     1       4.481   0.835   1.539  0.00  0.00    +0.159 HD
ENDROOT
BRANCH   1  15
ATOM      9  C   UNL     1      -0.019   1.526   0.010  0.00  0.00    +0.009 C 
ATOM     10  C   UNL     1       0.002  -0.004   0.002  0.00  0.00    +0.006 C 
ATOM     11  C   UNL     1       0.718  -0.497  -1.257  0.00  0.00    +0.005 C 
ATOM     12  C   UNL     1       0.739  -2.027  -1.265  0.00  0.00    +0.000 C 
ATOM     13  C   UNL     1       1.479  -2.534  -0.026  0.00  0.00    +0.002 C 
ATOM     14  C   UNL     1       0.763  -2.041   1.233  0.00  0.00    +0.022 C 
ATOM     15  C   UNL     1       0.742  -0.511   1.242  0.00  0.00    +0.077 C 
ENDBRANCH   1  15
BRANCH   5  16
ATOM     16  C   UNL     1       6.152   1.247   3.525  0.00  0.00    +0.020 C 
BRANCH  16  17
ATOM     17  N   UNL     1       6.666   1.296   4.900  0.00  0.00    +0.391 N 
ATOM     18  C   UNL     1       6.781  -0.076   5.437  0.00  0.00    -0.077 C 
ATOM     19  C   UNL     1       8.258  -0.475   5.191  0.00  0.00    -0.020 C 
ATOM     20  C   UNL     1       8.992   0.866   5.454  0.00  0.00    -0.011 C 
ATOM     21  C   UNL     1       8.003   1.917   4.908  0.00  0.00    -0.020 C 
ATOM     22  H   UNL     1       6.039   1.834   5.479  0.00  0.00    -0.080 HD
BRANCH  21  23
ATOM     23  C   UNL     1       8.000   3.131   5.801  0.00  0.00    +0.005 A 
ATOM     24  C   UNL     1       6.923   3.648   6.428  0.00  0.00    +0.021 A 
ATOM     25  C   UNL     1       7.359   4.773   7.155  0.00  0.00    +0.019 A 
ATOM     26  C   UNL     1       8.685   4.901   6.946  0.00  0.00    +0.085 A 
ATOM     27  N   UNL     1       9.085   3.892   6.120  0.00  0.00    -0.355 N 
ATOM     28  C   UNL     1      10.454   3.666   5.650  0.00  0.00    +0.148 C 
ENDBRANCH  21  23
ENDBRANCH  16  17
ENDBRANCH   5  16
TORSDOF 4
