REMARK  Name = ZINC06653346
REMARK  7 active torsions:
REMARK  status: ('A' for Active; 'I' for Inactive)
REMARK    1  A    between atoms: C_1  and  C_2
REMARK    2  A    between atoms: C_15  and  C_17
REMARK    3  A    between atoms: C_17  and  C_19
REMARK    4  A    between atoms: C_17  and  N_20
REMARK    5  A    between atoms: N_20  and  C_21
REMARK    6  A    between atoms: C_24  and  N_27
REMARK    7  A    between atoms: C_28  and  C_30
REMARK                            x       y       z     vdW  Elec       q    Type
REMARK                         _______ _______ _______ _____ _____    ______ ____
ROOT
ATOM      1  C   UNL     1       3.086   2.478  -1.502  0.00  0.00    +0.008 C 
ATOM      2  C   UNL     1       1.772   1.737  -1.246  0.00  0.00    -0.009 C 
ATOM      3  C   UNL     1       1.130   2.253   0.043  0.00  0.00    +0.008 C 
ATOM      4  C   UNL     1      -0.291   1.703   0.173  0.00  0.00    +0.037 C 
ATOM      5  C   UNL     1      -0.248   0.184   0.025  0.00  0.00    -0.023 A 
ATOM      6  C   UNL     1       0.820  -0.421  -0.546  0.00  0.00    -0.004 A 
ATOM      7  S   UNL     1       0.445  -2.156  -0.508  0.00  0.00    -0.073 S 
ATOM      8  C   UNL     1      -1.137  -2.066   0.270  0.00  0.00    +0.116 A 
ATOM      9  C   UNL     1      -1.323  -0.681   0.476  0.00  0.00    +0.075 A 
ATOM     10  C   UNL     1      -2.548  -0.275   1.105  0.00  0.00    +0.260 A 
ATOM     11  O   UNL     1      -2.806   0.895   1.328  0.00  0.00    -0.267 OA
ATOM     12  N   UNL     1      -3.398  -1.276   1.435  0.00  0.00    -0.309 N 
ATOM     13  H   UNL     1      -4.264  -1.039   1.876  0.00  0.00    +0.170 HD
ATOM     14  C   UNL     1      -3.131  -2.582   1.197  0.00  0.00    +0.131 A 
ATOM     15  N   UNL     1      -2.022  -2.993   0.623  0.00  0.00    -0.225 NA
ATOM     16  C   UNL     1       2.050   0.235  -1.091  0.00  0.00    +0.046 C 
ENDROOT
BRANCH  14  17
ATOM     17  C   UNL     1      -4.152  -3.612   1.607  0.00  0.00    +0.133 C 
ATOM     18  C   UNL     1      -4.473  -3.447   3.094  0.00  0.00    +0.036 C 
BRANCH  17  19
ATOM     19  N   UNL     1      -3.616  -4.954   1.369  0.00  0.00    -0.334 N 
ATOM     20  H   UNL     1      -2.656  -5.097   1.354  0.00  0.00    +0.147 HD
BRANCH  19  21
ATOM     21  C   UNL     1      -4.487  -6.029   1.162  0.00  0.00    +0.028 A 
ATOM     22  C   UNL     1      -5.860  -5.825   1.189  0.00  0.00    +0.025 A 
ATOM     23  C   UNL     1      -6.720  -6.885   0.978  0.00  0.00    +0.025 A 
ATOM     24  C   UNL     1      -6.211  -8.157   0.753  0.00  0.00    +0.033 A 
ATOM     25  C   UNL     1      -4.838  -8.362   0.733  0.00  0.00    +0.025 A 
ATOM     26  C   UNL     1      -3.978  -7.301   0.937  0.00  0.00    +0.025 A 
BRANCH  24  27
ATOM     27  N   UNL     1      -7.083  -9.234   0.546  0.00  0.00    -0.286 N 
ATOM     28  C   UNL     1      -6.748 -10.466   0.977  0.00  0.00    +0.214 C 
ATOM     29  O   UNL     1      -5.736 -10.626   1.627  0.00  0.00    -0.276 OA
ATOM     30  C   UNL     1      -7.628 -11.645   0.650  0.00  0.00    +0.109 C 
ATOM     31  H   UNL     1      -7.929  -9.093   0.092  0.00  0.00    +0.155 HD
ENDBRANCH  24  27
ENDBRANCH  19  21
ENDBRANCH  17  19
ENDBRANCH  14  17
TORSDOF 4
