REMARK  Name = ZINC35069812
REMARK  11 active torsions:
REMARK  status: ('A' for Active; 'I' for Inactive)
REMARK    1  A    between atoms: C_1  and  C_2
REMARK    2  A    between atoms: C_2  and  C_3
REMARK    3  A    between atoms: C_3  and  N_4
REMARK    4  A    between atoms: N_4  and  C_5
REMARK    5  A    between atoms: C_5  and  C_7
REMARK    6  A    between atoms: C_5  and  C_8
REMARK    7  A    between atoms: N_18  and  C_19
REMARK    8  A    between atoms: C_22  and  C_26
REMARK    9  A    between atoms: C_23  and  C_25
REMARK   10  A    between atoms: N_29  and  C_30
REMARK   11  A    between atoms: C_30  and  C_31
REMARK                            x       y       z     vdW  Elec       q    Type
REMARK                         _______ _______ _______ _____ _____    ______ ____
ROOT
ATOM      1  C   UNL     1       2.882  -2.055   1.766  0.00  0.00    +0.138 A 
ATOM      2  N   UNL     1       2.996  -0.763   1.825  0.00  0.00    -0.231 NA
ATOM      3  C   UNL     1       4.187  -0.165   2.081  0.00  0.00    +0.078 A 
ATOM      4  C   UNL     1       4.310   1.224   2.145  0.00  0.00    +0.028 A 
ATOM      5  C   UNL     1       5.538   1.788   2.409  0.00  0.00    +0.002 A 
ATOM      6  C   UNL     1       6.658   0.993   2.612  0.00  0.00    +0.001 A 
ATOM      7  C   UNL     1       6.561  -0.380   2.554  0.00  0.00    +0.015 A 
ATOM      8  C   UNL     1       5.328  -0.972   2.289  0.00  0.00    +0.065 A 
ATOM      9  C   UNL     1       5.165  -2.431   2.217  0.00  0.00    +0.266 A 
ATOM     10  O   UNL     1       6.108  -3.182   2.386  0.00  0.00    -0.267 OA
ATOM     11  N   UNL     1       3.925  -2.907   1.959  0.00  0.00    -0.263 N 
ENDROOT
BRANCH  11  12
ATOM     12  C   UNL     1       3.714  -4.290   1.884  0.00  0.00    +0.051 A 
ATOM     13  C   UNL     1       3.802  -4.942   0.661  0.00  0.00    +0.026 A 
ATOM     14  C   UNL     1       3.594  -6.306   0.590  0.00  0.00    +0.005 A 
ATOM     15  C   UNL     1       3.299  -7.021   1.736  0.00  0.00    -0.047 A 
ATOM     16  C   UNL     1       3.210  -6.375   2.955  0.00  0.00    -0.046 A 
ATOM     17  C   UNL     1       3.422  -5.013   3.033  0.00  0.00    +0.030 A 
ATOM     18  C   UNL     1       2.886  -7.159   4.201  0.00  0.00    +0.044 C 
ATOM     19  C   UNL     1       3.073  -8.509   1.655  0.00  0.00    +0.044 C 
ENDBRANCH  11  12
BRANCH   1  20
ATOM     20  C   UNL     1       1.524  -2.640   1.476  0.00  0.00    +0.141 C 
ATOM     21  C   UNL     1       0.972  -2.033   0.185  0.00  0.00    +0.036 C 
BRANCH  20  22
ATOM     22  N   UNL     1       0.615  -2.339   2.585  0.00  0.00    -0.276 N 
ATOM     23  C   UNL     1       0.040  -3.343   3.276  0.00  0.00    +0.303 C 
ATOM     24  O   UNL     1       0.276  -4.498   2.980  0.00  0.00    -0.253 OA
ATOM     25  N   UNL     1      -0.796  -3.066   4.296  0.00  0.00    -0.295 N 
ATOM     26  H   UNL     1      -0.984  -2.144   4.533  0.00  0.00    +0.151 HD
BRANCH  22  27
ATOM     27  C   UNL     1       0.332  -0.947   2.942  0.00  0.00    +0.110 C 
BRANCH  27  29
ATOM     28  C   UNL     1      -1.178   0.999   2.524  0.00  0.00    +0.005 C 
ATOM     29  C   UNL     1      -0.882  -0.455   2.151  0.00  0.00    +0.016 C 
ENDBRANCH  27  29
ENDBRANCH  22  27
BRANCH  25  30
ATOM     30  C   UNL     1      -1.421  -4.157   5.048  0.00  0.00    +0.141 C 
BRANCH  30  31
ATOM     31  C   UNL     1      -2.303  -3.583   6.127  0.00  0.00    -0.030 A 
ATOM     32  C   UNL     1      -1.781  -3.321   7.380  0.00  0.00    +0.005 A 
ATOM     33  C   UNL     1      -2.590  -2.795   8.370  0.00  0.00    +0.000 A 
ATOM     34  C   UNL     1      -3.921  -2.530   8.106  0.00  0.00    +0.000 A 
ATOM     35  C   UNL     1      -4.442  -2.791   6.853  0.00  0.00    +0.000 A 
ATOM     36  C   UNL     1      -3.632  -3.314   5.862  0.00  0.00    +0.005 A 
ENDBRANCH  30  31
ENDBRANCH  25  30
ENDBRANCH  20  22
ENDBRANCH   1  20
TORSDOF 7
