REMARK  Name = ZINC19701950
REMARK  4 active torsions:
REMARK  status: ('A' for Active; 'I' for Inactive)
REMARK    1  A    between atoms: C_1  and  C_2
REMARK    2  A    between atoms: C_4  and  O_5
REMARK    3  A    between atoms: N_13  and  C_14
REMARK    4  A    between atoms: C_14  and  S_15
REMARK                            x       y       z     vdW  Elec       q    Type
REMARK                         _______ _______ _______ _____ _____    ______ ____
ROOT
ATOM      1  C   UNL     1      -4.802  -3.109   3.239  0.00  0.00    +0.045 C 
ATOM      2  C   UNL     1      -4.471  -1.736   3.766  0.00  0.00    -0.033 A 
ATOM      3  C   UNL     1      -5.079  -1.252   4.881  0.00  0.00    +0.091 A 
ATOM      4  C   UNL     1      -4.753   0.035   5.354  0.00  0.00    +0.285 A 
ATOM      5  O   UNL     1      -3.850   0.808   4.731  0.00  0.00    -0.425 OA
ATOM      6  C   UNL     1      -3.210   0.387   3.619  0.00  0.00    +0.141 A 
ATOM      7  C   UNL     1      -3.487  -0.888   3.091  0.00  0.00    +0.021 A 
ATOM      8  C   UNL     1      -2.826  -1.330   1.939  0.00  0.00    +0.014 A 
ATOM      9  C   UNL     1      -1.916  -0.519   1.326  0.00  0.00    +0.026 A 
ATOM     10  C   UNL     1      -1.633   0.744   1.847  0.00  0.00    +0.040 A 
ATOM     11  C   UNL     1      -2.279   1.197   2.988  0.00  0.00    +0.072 A 
ATOM     12  N   UNL     1      -0.698   1.558   1.213  0.00  0.00    -0.364 N 
ATOM     13  H   UNL     1      -0.475   2.557   1.618  0.00  0.00    +0.161 HD
ENDROOT
BRANCH   4  14
ATOM     14  O   UNL     1      -5.306   0.457   6.354  0.00  0.00    -0.480 OA
ATOM     15  H   UNL     1      -5.062   1.460   6.736  0.00  0.00    +0.295 HD
ENDBRANCH   4  14
BRANCH  12  16
ATOM     16  C   UNL     1      -0.013   1.086   0.008  0.00  0.00    +0.316 C 
BRANCH  16  17
ATOM     17  S   UNL     1      -0.890   1.687  -1.462  0.00  0.00    +0.128 S 
ATOM     18  O   UNL     1      -2.163   1.063  -1.561  0.00  0.00    -0.143 OA
ATOM     19  O   UNL     1      -0.765   3.099  -1.563  0.00  0.00    -0.143 OA
ATOM     20  O   UNL     1      -0.098   1.141  -2.641  0.00  0.00    -0.046 OA
ENDBRANCH  16  17
ENDBRANCH  12  16
TORSDOF 3
