REMARK  Name = ZINC36066289
REMARK  8 active torsions:
REMARK  status: ('A' for Active; 'I' for Inactive)
REMARK    1  A    between atoms: C_1  and  C_2
REMARK    2  A    between atoms: C_8  and  N_10
REMARK    3  A    between atoms: C_11  and  C_36
REMARK    4  A    between atoms: C_19  and  C_25
REMARK    5  A    between atoms: N_27  and  C_28
REMARK    6  A    between atoms: C_31  and  O_34
REMARK    7  A    between atoms: O_34  and  C_35
REMARK    8  A    between atoms: N_38  and  C_39
REMARK                            x       y       z     vdW  Elec       q    Type
REMARK                         _______ _______ _______ _____ _____    ______ ____
ROOT
ATOM      1  N   UNL     1       1.872   0.336   1.199  0.00  0.00    -0.283 N 
ATOM      2  C   UNL     1       2.692   1.348   1.938  0.00  0.00    +0.199 C 
ATOM      3  C   UNL     1       3.599   1.857   0.860  0.00  0.00    +0.127 C 
ATOM      4  C   UNL     1       2.878   2.723  -0.156  0.00  0.00    +0.009 C 
ATOM      5  C   UNL     1       3.802   3.100  -1.028  0.00  0.00    +0.004 C 
ATOM      6  C   UNL     1       5.088   2.402  -0.568  0.00  0.00    +0.155 C 
ATOM      7  O   UNL     1       4.901   2.389   0.909  0.00  0.00    -0.358 OA
ATOM      8  C   UNL     1       4.814   0.901  -0.970  0.00  0.00    +0.123 C 
ATOM      9  C   UNL     1       3.925   0.461   0.193  0.00  0.00    +0.128 C 
ATOM     10  C   UNL     1       2.572  -0.115   0.105  0.00  0.00    +0.224 C 
ATOM     11  O   UNL     1       2.154  -0.846  -0.767  0.00  0.00    -0.275 OA
ENDROOT
BRANCH   1  18
ATOM     12  C   UNL     1      -0.472   1.489  -0.051  0.00  0.00    +0.009 C 
ATOM     13  C   UNL     1      -0.415   0.026   0.392  0.00  0.00    +0.006 C 
ATOM     14  C   UNL     1      -1.816  -0.440   0.796  0.00  0.00    +0.005 C 
ATOM     15  C   UNL     1      -1.759  -1.903   1.239  0.00  0.00    +0.000 C 
ATOM     16  C   UNL     1      -0.812  -2.038   2.433  0.00  0.00    +0.002 C 
ATOM     17  C   UNL     1       0.589  -1.573   2.029  0.00  0.00    +0.023 C 
ATOM     18  C   UNL     1       0.532  -0.109   1.586  0.00  0.00    +0.080 C 
ENDBRANCH   1  18
BRANCH   8  19
ATOM     19  C   UNL     1       4.092   0.818  -2.290  0.00  0.00    +0.224 C 
ATOM     20  O   UNL     1       2.990   0.313  -2.347  0.00  0.00    -0.275 OA
ATOM     21  N   UNL     1       4.670   1.304  -3.406  0.00  0.00    -0.285 N 
ATOM     22  H   UNL     1       5.517   1.772  -3.349  0.00  0.00    +0.155 HD
BRANCH  21  23
ATOM     23  C   UNL     1       4.045   1.134  -4.649  0.00  0.00    +0.034 A 
ATOM     24  C   UNL     1       4.176   2.107  -5.631  0.00  0.00    +0.027 A 
ATOM     25  C   UNL     1       3.561   1.938  -6.856  0.00  0.00    +0.047 A 
ATOM     26  C   UNL     1       2.812   0.797  -7.105  0.00  0.00    +0.120 A 
ATOM     27  C   UNL     1       2.681  -0.175  -6.124  0.00  0.00    +0.047 A 
ATOM     28  C   UNL     1       3.300  -0.010  -4.901  0.00  0.00    +0.027 A 
BRANCH  26  29
ATOM     29  O   UNL     1       2.207   0.632  -8.311  0.00  0.00    -0.495 OA
ATOM     30  C   UNL     1       1.452  -0.566  -8.499  0.00  0.00    +0.277 C 
ENDBRANCH  26  29
ENDBRANCH  21  23
ENDBRANCH   8  19
BRANCH   2  31
ATOM     31  C   UNL     1       1.823   2.454   2.479  0.00  0.00    +0.237 C 
ATOM     32  O   UNL     1       0.781   2.733   1.924  0.00  0.00    -0.274 OA
ATOM     33  N   UNL     1       2.203   3.133   3.579  0.00  0.00    -0.311 N 
ATOM     34  H   UNL     1       3.037   2.909   4.022  0.00  0.00    +0.149 HD
BRANCH  33  35
ATOM     35  C   UNL     1       1.359   4.208   4.105  0.00  0.00    +0.073 C 
ATOM     36  C   UNL     1       1.676   5.511   3.370  0.00  0.00    +0.022 C 
ATOM     37  C   UNL     1       0.793   6.634   3.919  0.00  0.00    +0.002 C 
ATOM     38  C   UNL     1       1.067   6.812   5.414  0.00  0.00    +0.000 C 
ATOM     39  C   UNL     1       0.750   5.509   6.149  0.00  0.00    +0.002 C 
ATOM     40  C   UNL     1       1.632   4.386   5.600  0.00  0.00    +0.022 C 
ENDBRANCH  33  35
ENDBRANCH   2  31
TORSDOF 6
