REMARK  Name = ZINC39482176
REMARK  7 active torsions:
REMARK  status: ('A' for Active; 'I' for Inactive)
REMARK    1  A    between atoms: C_1  and  C_2
REMARK    2  A    between atoms: C_2  and  O_3
REMARK    3  A    between atoms: O_3  and  S_4
REMARK    4  A    between atoms: S_4  and  N_7
REMARK    5  A    between atoms: N_7  and  C_8
REMARK    6  A    between atoms: C_11  and  C_22
REMARK    7  A    between atoms: C_13  and  N_14
REMARK                            x       y       z     vdW  Elec       q    Type
REMARK                         _______ _______ _______ _____ _____    ______ ____
ROOT
ATOM      1  C   UNL     1      -0.983  -3.888  -1.898  0.00  0.00    +0.097 A 
ATOM      2  C   UNL     1       0.051  -4.794  -1.707  0.00  0.00    +0.029 A 
ATOM      3  C   UNL     1      -0.172  -6.145  -1.883  0.00  0.00    +0.010 A 
ATOM      4  C   UNL     1      -1.435  -6.603  -2.252  0.00  0.00    -0.016 A 
ATOM      5  C   UNL     1      -2.475  -5.695  -2.444  0.00  0.00    +0.033 A 
ATOM      6  C   UNL     1      -2.252  -4.341  -2.263  0.00  0.00    +0.055 A 
ENDROOT
BRANCH   6   7
ATOM      7  N   UNL     1      -3.296  -3.427  -2.450  0.00  0.00    -0.325 N 
ATOM      8  C   UNL     1      -3.551  -2.831  -3.770  0.00  0.00    +0.120 C 
ATOM      9  C   UNL     1      -3.630  -1.309  -3.611  0.00  0.00    +0.101 C 
ATOM     10  N   UNL     1      -4.622  -0.979  -2.579  0.00  0.00    -0.302 NA
ATOM     11  C   UNL     1      -4.222  -1.506  -1.267  0.00  0.00    +0.135 C 
ATOM     12  C   UNL     1      -4.170  -3.041  -1.332  0.00  0.00    +0.134 C 
ATOM     13  I   UNL     1      -5.662  -0.896   0.226  0.00  0.00    -0.063 I 
ATOM     14  H   UNL     1      -4.780   0.016  -2.535  0.00  0.00    +0.123 HD
ENDBRANCH   6   7
BRANCH   4  15
ATOM     15  C   UNL     1      -1.673  -8.055  -2.440  0.00  0.00    -0.018 A 
ATOM     16  C   UNL     1      -2.934  -8.514  -2.815  0.00  0.00    +0.008 A 
ATOM     17  C   UNL     1      -3.149  -9.866  -2.989  0.00  0.00    +0.001 A 
ATOM     18  C   UNL     1      -2.116 -10.765  -2.792  0.00  0.00    +0.000 A 
ATOM     19  C   UNL     1      -0.862 -10.314  -2.420  0.00  0.00    +0.001 A 
ATOM     20  C   UNL     1      -0.634  -8.964  -2.249  0.00  0.00    +0.008 A 
ENDBRANCH   4  15
BRANCH   1  21
ATOM     21  N   UNL     1      -0.754  -2.519  -1.719  0.00  0.00    -0.075 NA
BRANCH  21  22
ATOM     22  S   UNL     1       0.751  -1.981  -1.287  0.00  0.00    +0.186 S 
ATOM     23  O   UNL     1       1.613  -2.262  -2.381  0.00  0.00    -0.125 OA
ATOM     24  O   UNL     1       0.997  -2.473   0.023  0.00  0.00    -0.125 OA
BRANCH  22  25
ATOM     25  O   UNL     1       0.671  -0.465  -1.174  0.00  0.00    -0.221 OA
BRANCH  25  27
ATOM     26  C   UNL     1      -0.019   1.526   0.010  0.00  0.00    +0.036 C 
ATOM     27  C   UNL     1       0.002  -0.004   0.002  0.00  0.00    +0.192 C 
ENDBRANCH  25  27
ENDBRANCH  22  25
ENDBRANCH  21  22
ENDBRANCH   1  21
TORSDOF 6
