REMARK  Name = ZINC64928270
REMARK  11 active torsions:
REMARK  status: ('A' for Active; 'I' for Inactive)
REMARK    1  A    between atoms: C_1  and  C_2
REMARK    2  A    between atoms: C_2  and  C_3
REMARK    3  A    between atoms: C_6  and  C_9
REMARK    4  A    between atoms: C_9  and  N_10
REMARK    5  A    between atoms: C_11  and  C_13
REMARK    6  A    between atoms: C_13  and  C_14
REMARK    7  A    between atoms: N_24  and  S_25
REMARK    8  A    between atoms: S_25  and  C_28
REMARK    9  A    between atoms: C_30  and  C_38
REMARK   10  A    between atoms: C_33  and  N_34
REMARK   11  A    between atoms: C_35  and  C_37
REMARK                            x       y       z     vdW  Elec       q    Type
REMARK                         _______ _______ _______ _____ _____    ______ ____
ROOT
ATOM      1  C   UNL     1       5.152  -0.256  -9.165  0.00  0.00    +0.119 C 
ATOM      2  C   UNL     1       5.718   0.867  -9.998  0.00  0.00    -0.025 A 
ATOM      3  C   UNL     1       4.901   1.424 -10.974  0.00  0.00    +0.005 A 
ATOM      4  C   UNL     1       5.359   2.461 -11.761  0.00  0.00    +0.000 A 
ATOM      5  C   UNL     1       6.639   2.949 -11.576  0.00  0.00    +0.000 A 
ATOM      6  C   UNL     1       7.452   2.393 -10.610  0.00  0.00    +0.004 A 
ATOM      7  C   UNL     1       6.996   1.345  -9.820  0.00  0.00    -0.041 A 
ATOM      8  C   UNL     1       7.949   0.771  -8.805  0.00  0.00    +0.052 C 
ATOM      9  C   UNL     1       7.192  -0.002  -7.725  0.00  0.00    +0.115 C 
ATOM     10  N   UNL     1       6.228  -0.888  -8.395  0.00  0.00    -0.168 NA
ENDROOT
BRANCH  10  11
ATOM     11  S   UNL     1       6.353  -2.536  -8.282  0.00  0.00    +0.063 S 
ATOM     12  O   UNL     1       6.600  -2.831  -6.914  0.00  0.00    -0.153 OA
ATOM     13  O   UNL     1       5.246  -3.076  -8.990  0.00  0.00    -0.153 OA
BRANCH  11  14
ATOM     14  C   UNL     1       7.799  -3.011  -9.169  0.00  0.00    +0.127 A 
ATOM     15  C   UNL     1       8.857  -3.600  -8.503  0.00  0.00    +0.033 A 
ATOM     16  C   UNL     1       9.992  -3.973  -9.199  0.00  0.00    -0.048 A 
ATOM     17  C   UNL     1      10.072  -3.758 -10.563  0.00  0.00    +0.005 A 
ATOM     18  C   UNL     1       9.018  -3.171 -11.234  0.00  0.00    +0.025 A 
ATOM     19  C   UNL     1       7.875  -2.799 -10.539  0.00  0.00    +0.060 A 
ATOM     20  C   UNL     1      11.144  -4.614  -8.470  0.00  0.00    +0.044 C 
BRANCH  19  21
ATOM     21  N   UNL     1       6.803  -2.208 -11.217  0.00  0.00    -0.284 N 
ATOM     22  C   UNL     1       6.532  -2.563 -12.489  0.00  0.00    +0.214 C 
ATOM     23  O   UNL     1       7.158  -3.459 -13.015  0.00  0.00    -0.276 OA
ATOM     24  C   UNL     1       5.452  -1.846 -13.258  0.00  0.00    +0.109 C 
ATOM     25  H   UNL     1       6.255  -1.543 -10.772  0.00  0.00    +0.155 HD
ENDBRANCH  19  21
ENDBRANCH  11  14
ENDBRANCH  10  11
BRANCH   1  26
ATOM     26  C   UNL     1       4.099   0.302  -8.206  0.00  0.00    +0.121 C 
BRANCH  26  28
ATOM     27  N   UNL     1       2.549  -0.581  -6.493  0.00  0.00    -0.311 N 
ATOM     28  C   UNL     1       3.416  -0.836  -7.493  0.00  0.00    +0.215 C 
ATOM     29  O   UNL     1       3.645  -1.981  -7.819  0.00  0.00    -0.276 OA
ATOM     30  H   UNL     1       2.365   0.335  -6.232  0.00  0.00    +0.149 HD
BRANCH  27  31
ATOM     31  C   UNL     1       1.884  -1.687  -5.800  0.00  0.00    +0.139 C 
BRANCH  31  35
ATOM     32  C   UNL     1      -0.699  -0.129  -2.775  0.00  0.00    -0.048 A 
ATOM     33  C   UNL     1      -1.179  -0.335  -4.055  0.00  0.00    +0.004 A 
ATOM     34  C   UNL     1      -0.343  -0.839  -5.034  0.00  0.00    +0.005 A 
ATOM     35  C   UNL     1       0.973  -1.136  -4.733  0.00  0.00    -0.030 A 
ATOM     36  C   UNL     1       1.454  -0.929  -3.453  0.00  0.00    +0.005 A 
ATOM     37  C   UNL     1       0.619  -0.421  -2.475  0.00  0.00    +0.004 A 
BRANCH  32  39
ATOM     38  C   UNL     1      -1.537   1.949  -1.713  0.00  0.00    +0.009 C 
ATOM     39  C   UNL     1      -1.610   0.421  -1.708  0.00  0.00    +0.032 C 
ENDBRANCH  32  39
ENDBRANCH  31  35
ENDBRANCH  27  31
ENDBRANCH  26  28
ENDBRANCH   1  26
TORSDOF 8
