REMARK  Name = ZINC58377590
REMARK  9 active torsions:
REMARK  status: ('A' for Active; 'I' for Inactive)
REMARK    1  A    between atoms: C_1  and  C_2
REMARK    2  A    between atoms: N_7  and  C_9
REMARK    3  A    between atoms: C_9  and  C_10
REMARK    4  A    between atoms: C_9  and  C_11
REMARK    5  A    between atoms: C_9  and  C_12
REMARK    6  A    between atoms: C_12  and  N_13
REMARK    7  A    between atoms: N_16  and  N_17
REMARK    8  A    between atoms: C_18  and  C_20
REMARK    9  A    between atoms: C_23  and  C_26
REMARK                            x       y       z     vdW  Elec       q    Type
REMARK                         _______ _______ _______ _____ _____    ______ ____
ROOT
ATOM      1  N   UNL     1       2.186  -4.461   1.142  0.00  0.00    -0.300 N 
ATOM      2  C   UNL     1       2.321  -5.782   0.914  0.00  0.00    +0.316 C 
ATOM      3  O   UNL     1       1.924  -6.584   1.738  0.00  0.00    -0.251 OA
ATOM      4  N   UNL     1       2.894  -6.215  -0.226  0.00  0.00    -0.218 N 
ATOM      5  H   UNL     1       2.502  -3.821   0.485  0.00  0.00    +0.150 HD
ATOM      6  H   UNL     1       2.991  -7.166  -0.390  0.00  0.00    +0.174 HD
ENDROOT
BRANCH   4   7
ATOM      7  N   UNL     1       3.351  -5.290  -1.175  0.00  0.00    -0.229 N 
ATOM      8  C   UNL     1       3.925  -5.723  -2.315  0.00  0.00    +0.260 C 
ATOM      9  O   UNL     1       4.046  -6.914  -2.520  0.00  0.00    -0.269 OA
ATOM     10  H   UNL     1       3.254  -4.339  -1.011  0.00  0.00    +0.173 HD
BRANCH   8  11
ATOM     11  C   UNL     1       4.407  -4.747  -3.316  0.00  0.00    +0.038 A 
ATOM     12  C   UNL     1       4.272  -3.377  -3.078  0.00  0.00    +0.014 A 
ATOM     13  C   UNL     1       4.721  -2.469  -4.010  0.00  0.00    +0.019 A 
ATOM     14  C   UNL     1       5.311  -2.917  -5.194  0.00  0.00    +0.052 A 
ATOM     15  C   UNL     1       5.445  -4.286  -5.433  0.00  0.00    +0.019 A 
ATOM     16  C   UNL     1       5.001  -5.195  -4.498  0.00  0.00    +0.014 A 
BRANCH  14  17
ATOM     17  C   UNL     1       5.777  -1.972  -6.164  0.00  0.00    +0.099 C 
ATOM     18  N   UNL     1       6.147  -1.222  -6.934  0.00  0.00    -0.191 NA
ENDBRANCH  14  17
ENDBRANCH   8  11
ENDBRANCH   4   7
BRANCH   1  19
ATOM     19  C   UNL     1       1.562  -3.991   2.382  0.00  0.00    +0.093 C 
BRANCH  19  20
ATOM     20  C   UNL     1       1.534  -2.461   2.390  0.00  0.00    -0.055 C 
ATOM     21  C   UNL     1       2.963  -1.924   2.303  0.00  0.00    -0.008 C 
ATOM     22  C   UNL     1       0.882  -1.970   3.685  0.00  0.00    -0.008 C 
BRANCH  20  28
ATOM     23  C   UNL     1      -0.019   1.526   0.010  0.00  0.00    +0.005 C 
ATOM     24  C   UNL     1       0.002  -0.004   0.002  0.00  0.00    -0.031 C 
ATOM     25  C   UNL     1      -1.434  -0.535   0.015  0.00  0.00    -0.001 C 
ATOM     26  C   UNL     1      -1.402  -2.064   0.086  0.00  0.00    -0.018 C 
ATOM     27  C   UNL     1      -0.613  -2.496   1.324  0.00  0.00    -0.078 C 
ATOM     28  N   UNL     1       0.758  -1.980   1.239  0.00  0.00    +0.384 N 
ATOM     29  C   UNL     1       0.740  -0.512   1.242  0.00  0.00    -0.075 C 
ATOM     30  H   UNL     1       1.188  -2.307   0.386  0.00  0.00    -0.081 HD
ENDBRANCH  20  28
ENDBRANCH  19  20
ENDBRANCH   1  19
TORSDOF 6
