REMARK  Name = ZINC64138792
REMARK  2 active torsions:
REMARK  status: ('A' for Active; 'I' for Inactive)
REMARK    1  A    between atoms: C_6  and  C_7
REMARK    2  A    between atoms: C_8  and  C_12
REMARK                            x       y       z     vdW  Elec       q    Type
REMARK                         _______ _______ _______ _____ _____    ______ ____
ROOT
ATOM      1  C   UNL     1      -0.249  -3.109  -0.222  0.00  0.00    +0.195 C 
ATOM      2  N   UNL     1      -0.353  -3.817  -1.517  0.00  0.00    -0.297 N 
ATOM      3  C   UNL     1      -1.283  -4.837  -1.623  0.00  0.00    +0.155 C 
ATOM      4  N   UNL     1      -1.380  -5.751  -0.580  0.00  0.00    -0.285 N 
ATOM      5  C   UNL     1      -1.415  -5.185   0.780  0.00  0.00    +0.255 C 
ATOM      6  N   UNL     1      -0.368  -4.140   0.816  0.00  0.00    -0.272 N 
ATOM      7  C   UNL     1       0.430  -4.375   1.934  0.00  0.00    +0.059 A 
ATOM      8  C   UNL     1       1.447  -3.618   2.507  0.00  0.00    +0.074 A 
ATOM      9  C   UNL     1       2.113  -4.086   3.625  0.00  0.00    +0.164 A 
ATOM     10  C   UNL     1       1.768  -5.308   4.182  0.00  0.00    +0.164 A 
ATOM     11  C   UNL     1       0.752  -6.064   3.623  0.00  0.00    +0.074 A 
ATOM     12  C   UNL     1       0.076  -5.599   2.501  0.00  0.00    +0.055 A 
ATOM     13  N   UNL     1      -1.017  -6.173   1.782  0.00  0.00    -0.309 N 
ATOM     14  O   UNL     1       2.435  -5.759   5.285  0.00  0.00    -0.488 OA
ATOM     15  C   UNL     1       3.803  -6.119   5.085  0.00  0.00    +0.232 C 
ATOM     16  C   UNL     1       4.702  -4.897   5.180  0.00  0.00    +0.082 C 
ATOM     17  C   UNL     1       4.432  -3.893   4.070  0.00  0.00    +0.232 C 
ATOM     18  O   UNL     1       3.116  -3.349   4.187  0.00  0.00    -0.488 OA
ATOM     19  N   UNL     1      -2.048  -4.939  -2.673  0.00  0.00    -0.375 N 
ATOM     20  H   UNL     1       0.210  -3.573  -2.268  0.00  0.00    +0.151 HD
ATOM     21  H   UNL     1      -1.418  -7.045   1.922  0.00  0.00    +0.149 HD
ATOM     22  H   UNL     1      -1.970  -4.294  -3.394  0.00  0.00    +0.158 HD
ATOM     23  H   UNL     1      -1.422  -6.707  -0.739  0.00  0.00    +0.152 HD
ATOM     24  H   UNL     1      -2.695  -5.659  -2.734  0.00  0.00    +0.158 HD
ENDROOT
BRANCH   1  26
ATOM     25  C   UNL     1      -1.270  -0.767   0.028  0.00  0.00    +0.097 C 
ATOM     26  C   UNL     1      -1.366  -2.106  -0.087  0.00  0.00    +0.019 C 
ATOM     27  C   UNL     1      -2.861  -2.369  -0.048  0.00  0.00    +0.202 C 
ATOM     28  N   UNL     1      -3.435  -1.021   0.095  0.00  0.00    -0.182 NA
ATOM     29  N   UNL     1      -2.506  -0.211   0.134  0.00  0.00    -0.154 NA
BRANCH  25  35
ATOM     30  C   UNL     1       0.987  -0.273  -0.909  0.00  0.00    +0.011 A 
ATOM     31  C   UNL     1       2.170   0.437  -0.892  0.00  0.00    +0.020 A 
ATOM     32  C   UNL     1       2.382   1.411   0.069  0.00  0.00    +0.041 A 
ATOM     33  C   UNL     1       1.409   1.678   1.016  0.00  0.00    +0.020 A 
ATOM     34  C   UNL     1       0.222   0.974   1.007  0.00  0.00    +0.011 A 
ATOM     35  C   UNL     1       0.004  -0.007   0.042  0.00  0.00    +0.002 A 
ATOM     36 CL   UNL     1       3.873   2.300   0.085  0.00  0.00    -0.084 Cl
ENDBRANCH  25  35
ENDBRANCH   1  26
TORSDOF 2
