REMARK  Name = ZINC59384185
REMARK  6 active torsions:
REMARK  status: ('A' for Active; 'I' for Inactive)
REMARK    1  A    between atoms: C_1  and  C_2
REMARK    2  A    between atoms: C_3  and  C_19
REMARK    3  A    between atoms: C_4  and  C_10
REMARK    4  A    between atoms: C_14  and  N_16
REMARK    5  A    between atoms: N_21  and  N_22
REMARK    6  A    between atoms: C_23  and  C_24
REMARK                            x       y       z     vdW  Elec       q    Type
REMARK                         _______ _______ _______ _____ _____    ______ ____
ROOT
ATOM      1  C   UNL     1      -0.041   1.493   0.084  0.00  0.00    +0.061 C 
ATOM      2  C   UNL     1      -0.011  -0.013   0.026  0.00  0.00    +0.017 C 
ATOM      3  C   UNL     1      -1.172  -0.701   0.031  0.00  0.00    +0.057 C 
ATOM      4  C   UNL     1      -1.095  -2.214  -0.029  0.00  0.00    +0.139 C 
ATOM      5  N   UNL     1       0.249  -2.812  -0.088  0.00  0.00    -0.315 N 
ATOM      6  C   UNL     1       1.317  -1.991  -0.085  0.00  0.00    +0.135 C 
ATOM      7  S   UNL     1       2.886  -2.672  -0.154  0.00  0.00    -0.019 S 
ATOM      8  N   UNL     1       1.192  -0.658  -0.036  0.00  0.00    -0.300 N 
ATOM      9  H   UNL     1       0.362  -3.775  -0.127  0.00  0.00    +0.149 HD
ATOM     10  H   UNL     1       2.000  -0.122  -0.041  0.00  0.00    +0.154 HD
ENDROOT
BRANCH   4  11
ATOM     11  C   UNL     1      -1.794  -2.763   1.188  0.00  0.00    -0.020 A 
ATOM     12  C   UNL     1      -1.187  -2.685   2.428  0.00  0.00    +0.006 A 
ATOM     13  C   UNL     1      -1.828  -3.188   3.544  0.00  0.00    +0.003 A 
ATOM     14  C   UNL     1      -3.077  -3.769   3.421  0.00  0.00    +0.033 A 
ATOM     15  C   UNL     1      -3.684  -3.846   2.182  0.00  0.00    +0.127 A 
ATOM     16  C   UNL     1      -3.045  -3.339   1.066  0.00  0.00    +0.038 A 
BRANCH  15  17
ATOM     17  N   UNL     1      -5.021  -4.468   2.050  0.00  0.00    +0.056 N 
ATOM     18  O   UNL     1      -5.581  -4.910   3.026  0.00  0.00    -0.126 OA
ATOM     19  O   UNL     1      -5.552  -4.536   0.966  0.00  0.00    -0.126 OA
ENDBRANCH  15  17
ENDBRANCH   4  11
BRANCH   3  20
ATOM     20  C   UNL     1      -2.419  -0.033   0.091  0.00  0.00    +0.263 C 
ATOM     21  O   UNL     1      -3.079   0.117  -0.922  0.00  0.00    -0.269 OA
ATOM     22  N   UNL     1      -2.876   0.437   1.268  0.00  0.00    -0.203 N 
ATOM     23  H   UNL     1      -2.318   0.385   2.061  0.00  0.00    +0.178 HD
BRANCH  22  24
ATOM     24  N   UNL     1      -4.155   1.002   1.348  0.00  0.00    -0.187 NA
ATOM     25  C   UNL     1      -4.595   1.455   2.482  0.00  0.00    +0.139 C 
BRANCH  25  26
ATOM     26  C   UNL     1      -5.942   2.049   2.566  0.00  0.00    +0.013 A 
ATOM     27  C   UNL     1      -6.416   2.543   3.784  0.00  0.00    +0.012 A 
ATOM     28  C   UNL     1      -7.676   3.098   3.856  0.00  0.00    +0.021 A 
ATOM     29  C   UNL     1      -8.473   3.166   2.724  0.00  0.00    +0.042 A 
ATOM     30  C   UNL     1      -8.010   2.679   1.514  0.00  0.00    +0.040 A 
ATOM     31  C   UNL     1      -6.748   2.126   1.427  0.00  0.00    +0.051 A 
ATOM     32 CL   UNL     1      -6.166   1.522  -0.093  0.00  0.00    -0.083 Cl
ATOM     33 CL   UNL     1     -10.058   3.866   2.824  0.00  0.00    -0.083 Cl
ENDBRANCH  25  26
ENDBRANCH  22  24
ENDBRANCH   3  20
TORSDOF 5
