REMARK  Name = ZINC04024381
REMARK  15 active torsions:
REMARK  status: ('A' for Active; 'I' for Inactive)
REMARK    1  A    between atoms: C_1  and  C_2
REMARK    2  A    between atoms: C_19  and  C_21
REMARK    3  A    between atoms: C_21  and  N_67
REMARK    4  A    between atoms: C_22  and  N_67
REMARK    5  A    between atoms: C_23  and  C_24
REMARK    6  A    between atoms: C_23  and  N_67
REMARK    7  A    between atoms: C_24  and  C_26
REMARK    8  A    between atoms: C_24  and  O_37
REMARK    9  A    between atoms: C_26  and  C_28
REMARK   10  A    between atoms: C_26  and  O_36
REMARK   11  A    between atoms: C_28  and  C_30
REMARK   12  A    between atoms: C_28  and  O_35
REMARK   13  A    between atoms: C_30  and  C_32
REMARK   14  A    between atoms: C_30  and  O_34
REMARK   15  A    between atoms: C_32  and  O_33
REMARK                            x       y       z     vdW  Elec       q    Type
REMARK                         _______ _______ _______ _____ _____    ______ ____
ROOT
ATOM      1  C   UNL     1      -0.078  -0.384   5.057  0.00  0.00    -0.096 C 
ATOM      2  N   UNL     1       0.033   1.086   4.953  0.00  0.00    +0.380 N 
ATOM      3  H   UNL     1       1.023   1.340   4.855  0.00  0.00    -0.082 HD
ENDROOT
BRANCH   2   4
ATOM      4  C   UNL     1      -0.506   1.721   6.173  0.00  0.00    -0.064 C 
BRANCH   4  20
ATOM      5  C   UNL     1       2.615   2.319  10.778  0.00  0.00    +0.012 C 
ATOM      6  C   UNL     1       1.248   2.910  11.127  0.00  0.00    -0.022 C 
ATOM      7  C   UNL     1       1.308   3.566  12.506  0.00  0.00    +0.007 C 
ATOM      8  C   UNL     1       1.780   2.544  13.542  0.00  0.00    +0.005 C 
ATOM      9  C   UNL     1       0.761   1.405  13.643  0.00  0.00    +0.030 C 
ATOM     10  C   UNL     1       0.532   0.836  12.260  0.00  0.00    -0.073 C 
ATOM     11  C   UNL     1       0.625  -0.452  12.037  0.00  0.00    +0.008 C 
ATOM     12  C   UNL     1       0.192   1.795  11.144  0.00  0.00    +0.021 C 
ATOM     13  C   UNL     1       0.242   1.075   9.800  0.00  0.00    +0.016 C 
ATOM     14  C   UNL     1      -0.128   2.030   8.663  0.00  0.00    +0.042 C 
ATOM     15  C   UNL     1       0.740   3.303   8.703  0.00  0.00    +0.181 C 
ATOM     16  C   UNL     1       0.827   3.913  10.081  0.00  0.00    +0.052 C 
ATOM     17  O   UNL     1       2.027   2.853   8.192  0.00  0.00    -0.461 OA
ATOM     18  C   UNL     1       1.776   2.018   7.159  0.00  0.00    +0.309 C 
ATOM     19  O   UNL     1       2.520   1.810   6.230  0.00  0.00    -0.251 OA
ATOM     20  C   UNL     1       0.410   1.385   7.351  0.00  0.00    +0.088 C 
ENDBRANCH   4  20
ENDBRANCH   2   4
BRANCH   2  21
ATOM     21  C   UNL     1      -0.705   1.566   3.765  0.00  0.00    -0.045 C 
BRANCH  21  22
ATOM     22  C   UNL     1       0.011   1.072   2.506  0.00  0.00    +0.129 C 
BRANCH  22  23
ATOM     23  O   UNL     1       1.352   1.567   2.496  0.00  0.00    -0.391 OA
ATOM     24  H   UNL     1       1.415   2.532   2.501  0.00  0.00    +0.210 HD
ENDBRANCH  22  23
BRANCH  22  25
ATOM     25  C   UNL     1      -0.729   1.579   1.267  0.00  0.00    +0.172 C 
BRANCH  25  26
ATOM     26  O   UNL     1      -2.070   1.085   1.277  0.00  0.00    -0.387 OA
ATOM     27  H   UNL     1      -2.133   0.120   1.272  0.00  0.00    +0.210 HD
ENDBRANCH  25  26
BRANCH  25  28
ATOM     28  C   UNL     1      -0.013   1.086   0.008  0.00  0.00    +0.176 C 
BRANCH  28  29
ATOM     29  O   UNL     1       1.328   1.580  -0.002  0.00  0.00    -0.387 OA
ATOM     30  H   UNL     1       1.391   2.545   0.002  0.00  0.00    +0.210 HD
ENDBRANCH  28  29
BRANCH  28  31
ATOM     31  C   UNL     1      -0.753   1.593  -1.232  0.00  0.00    +0.171 C 
BRANCH  31  32
ATOM     32  O   UNL     1      -2.093   1.098  -1.221  0.00  0.00    -0.387 OA
ATOM     33  H   UNL     1      -2.157   0.133  -1.226  0.00  0.00    +0.210 HD
ENDBRANCH  31  32
BRANCH  31  34
ATOM     34  C   UNL     1      -0.037   1.099  -2.490  0.00  0.00    +0.189 C 
BRANCH  34  35
ATOM     35  O   UNL     1      -0.658   1.667  -3.645  0.00  0.00    -0.392 OA
ATOM     36  H   UNL     1      -0.254   1.397  -4.482  0.00  0.00    +0.210 HD
ENDBRANCH  34  35
ENDBRANCH  31  34
ENDBRANCH  28  31
ENDBRANCH  25  28
ENDBRANCH  22  25
ENDBRANCH  21  22
ENDBRANCH   2  21
TORSDOF 13
