REMARK  Name = ZINC35523151
REMARK  6 active torsions:
REMARK  status: ('A' for Active; 'I' for Inactive)
REMARK    1  A    between atoms: C_1  and  O_2
REMARK    2  A    between atoms: O_2  and  C_3
REMARK    3  A    between atoms: C_8  and  N_9
REMARK    4  A    between atoms: C_15  and  C_17
REMARK    5  A    between atoms: C_17  and  N_18
REMARK    6  A    between atoms: C_26  and  C_28
REMARK                            x       y       z     vdW  Elec       q    Type
REMARK                         _______ _______ _______ _____ _____    ______ ____
ROOT
ATOM      1  N   UNL     1      -1.087  -7.098   4.185  0.00  0.00    +0.395 N 
ATOM      2  C   UNL     1      -2.179  -6.274   4.720  0.00  0.00    -0.055 C 
ATOM      3  C   UNL     1      -3.211  -7.168   5.419  0.00  0.00    +0.103 C 
ATOM      4  N   UNL     1      -2.497  -8.036   6.362  0.00  0.00    -0.353 N 
ATOM      5  C   UNL     1      -3.007  -8.758   7.391  0.00  0.00    +0.086 A 
ATOM      6  C   UNL     1      -1.988  -9.405   7.997  0.00  0.00    +0.019 A 
ATOM      7  C   UNL     1      -0.802  -9.068   7.310  0.00  0.00    +0.021 A 
ATOM      8  C   UNL     1      -1.141  -8.233   6.316  0.00  0.00    +0.009 A 
ATOM      9  C   UNL     1      -0.243  -7.591   5.287  0.00  0.00    +0.011 C 
ATOM     10  H   UNL     1      -1.475  -7.883   3.684  0.00  0.00    -0.080 HD
ENDROOT
BRANCH   9  11
ATOM     11  C   UNL     1       0.738  -8.607   4.762  0.00  0.00    -0.054 A 
ATOM     12  C   UNL     1       0.337  -9.527   3.811  0.00  0.00    +0.004 A 
ATOM     13  C   UNL     1       1.235 -10.460   3.329  0.00  0.00    +0.021 A 
ATOM     14  C   UNL     1       2.537 -10.473   3.797  0.00  0.00    +0.059 A 
ATOM     15  C   UNL     1       2.938  -9.552   4.749  0.00  0.00    +0.059 A 
ATOM     16  C   UNL     1       2.039  -8.616   5.227  0.00  0.00    +0.023 A 
ATOM     17 CL   UNL     1       4.571  -9.568   5.339  0.00  0.00    -0.082 Cl
ATOM     18 CL   UNL     1       3.665 -11.646   3.192  0.00  0.00    -0.082 Cl
ENDBRANCH   9  11
BRANCH   1  19
ATOM     19  C   UNL     1      -0.270  -6.290   3.269  0.00  0.00    +0.020 C 
BRANCH  19  26
ATOM     20  N   UNL     1       0.097  -2.777  -0.113  0.00  0.00    -0.324 N 
ATOM     21  C   UNL     1      -1.305  -3.210  -0.195  0.00  0.00    +0.124 C 
ATOM     22  C   UNL     1      -1.355  -4.737  -0.068  0.00  0.00    +0.126 C 
ATOM     23  N   UNL     1      -0.556  -5.138   1.100  0.00  0.00    -0.300 N 
ATOM     24  C   UNL     1       0.846  -4.705   1.181  0.00  0.00    +0.126 C 
ATOM     25  C   UNL     1       0.896  -3.182   1.051  0.00  0.00    +0.124 C 
ATOM     26  C   UNL     1      -1.101  -5.888   2.078  0.00  0.00    +0.199 C 
ATOM     27  O   UNL     1      -2.259  -6.239   2.000  0.00  0.00    -0.278 OA
BRANCH  20  33
ATOM     28  C   UNL     1       0.606  -0.608  -1.057  0.00  0.00    +0.141 A 
ATOM     29  C   UNL     1       1.173   0.158  -2.062  0.00  0.00    +0.047 A 
ATOM     30  C   UNL     1       1.786  -0.457  -3.138  0.00  0.00    +0.004 A 
ATOM     31  C   UNL     1       1.837  -1.836  -3.214  0.00  0.00    +0.002 A 
ATOM     32  C   UNL     1       1.274  -2.608  -2.214  0.00  0.00    +0.027 A 
ATOM     33  C   UNL     1       0.662  -1.998  -1.129  0.00  0.00    +0.072 A 
BRANCH  28  35
ATOM     34  C   UNL     1      -0.017   1.425   0.010  0.00  0.00    +0.277 C 
ATOM     35  O   UNL     1       0.002  -0.004   0.002  0.00  0.00    -0.493 OA
ENDBRANCH  28  35
ENDBRANCH  20  33
ENDBRANCH  19  26
ENDBRANCH   1  19
TORSDOF 5
