REMARK  Name = ZINC48192331
REMARK  9 active torsions:
REMARK  status: ('A' for Active; 'I' for Inactive)
REMARK    1  A    between atoms: C_1  and  C_2
REMARK    2  A    between atoms: C_2  and  C_4
REMARK    3  A    between atoms: C_2  and  N_22
REMARK    4  A    between atoms: C_4  and  N_5
REMARK    5  A    between atoms: N_8  and  C_9
REMARK    6  A    between atoms: C_9  and  C_11
REMARK    7  A    between atoms: C_9  and  C_12
REMARK    8  A    between atoms: C_16  and  S_18
REMARK    9  A    between atoms: S_18  and  N_21
REMARK                            x       y       z     vdW  Elec       q    Type
REMARK                         _______ _______ _______ _____ _____    ______ ____
ROOT
ATOM      1  N   UNL     1       0.565  -1.769   1.599  0.00  0.00    -0.298 N 
ATOM      2  C   UNL     1       1.037  -2.277   2.754  0.00  0.00    +0.300 C 
ATOM      3  O   UNL     1       1.597  -1.552   3.554  0.00  0.00    -0.253 OA
ATOM      4  N   UNL     1       0.887  -3.589   3.024  0.00  0.00    -0.293 N 
ATOM      5  H   UNL     1       0.118  -2.347   0.961  0.00  0.00    +0.150 HD
ATOM      6  H   UNL     1       0.440  -4.167   2.386  0.00  0.00    +0.151 HD
ENDROOT
BRANCH   4   7
ATOM      7  C   UNL     1       1.399  -4.142   4.280  0.00  0.00    +0.102 C 
ATOM      8  C   UNL     1       0.359  -3.946   5.385  0.00  0.00    +0.033 C 
BRANCH   7   9
ATOM      9  C   UNL     1       1.676  -5.613   4.106  0.00  0.00    -0.026 A 
ATOM     10  C   UNL     1       0.807  -6.398   3.372  0.00  0.00    +0.005 A 
ATOM     11  C   UNL     1       1.061  -7.747   3.212  0.00  0.00    +0.002 A 
ATOM     12  C   UNL     1       2.185  -8.311   3.786  0.00  0.00    +0.028 A 
ATOM     13  C   UNL     1       3.054  -7.527   4.519  0.00  0.00    +0.105 A 
ATOM     14  C   UNL     1       2.803  -6.176   4.676  0.00  0.00    +0.034 A 
BRANCH  13  15
ATOM     15  S   UNL     1       4.487  -8.246   5.252  0.00  0.00    +0.056 S 
ATOM     16  O   UNL     1       4.849  -7.410   6.342  0.00  0.00    -0.153 OA
ATOM     17  O   UNL     1       4.208  -9.630   5.413  0.00  0.00    -0.153 OA
BRANCH  15  18
ATOM     18  N   UNL     1       5.711  -8.136   4.143  0.00  0.00    -0.204 NA
ATOM     19  H   UNL     1       6.630  -8.055   4.441  0.00  0.00    +0.144 HD
ATOM     20  H   UNL     1       5.510  -8.152   3.194  0.00  0.00    +0.144 HD
ENDBRANCH  15  18
ENDBRANCH  13  15
ENDBRANCH   7   9
ENDBRANCH   4   7
BRANCH   1  21
ATOM     21  C   UNL     1       0.728  -0.343   1.305  0.00  0.00    +0.124 C 
BRANCH  21  23
ATOM     22  C   UNL     1       0.094   1.502  -0.256  0.00  0.00    +0.026 C 
ATOM     23  C   UNL     1      -0.004  -0.002   0.006  0.00  0.00    +0.071 C 
BRANCH  23  24
ATOM     24  N   UNL     1      -1.417  -0.388   0.124  0.00  0.00    -0.294 NA
ATOM     25  C   UNL     1      -2.091  -0.325  -1.181  0.00  0.00    +0.113 C 
ATOM     26  C   UNL     1      -3.541  -0.790  -1.023  0.00  0.00    +0.175 C 
ATOM     27  O   UNL     1      -4.191   0.018  -0.038  0.00  0.00    -0.377 OA
ATOM     28  C   UNL     1      -3.561  -0.020   1.245  0.00  0.00    +0.175 C 
ATOM     29  C   UNL     1      -2.111   0.453   1.110  0.00  0.00    +0.113 C 
ENDBRANCH  23  24
ENDBRANCH  21  23
ENDBRANCH   1  21
TORSDOF 7
