REMARK  Name = ZINC36660463
REMARK  9 active torsions:
REMARK  status: ('A' for Active; 'I' for Inactive)
REMARK    1  A    between atoms: C_1  and  N_2
REMARK    2  A    between atoms: N_2  and  C_3
REMARK    3  A    between atoms: N_2  and  C_4
REMARK    4  A    between atoms: C_4  and  C_5
REMARK    5  A    between atoms: C_5  and  C_6
REMARK    6  A    between atoms: C_6  and  N_7
REMARK    7  A    between atoms: C_18  and  C_20
REMARK    8  A    between atoms: N_25  and  S_26
REMARK    9  A    between atoms: S_26  and  C_29
REMARK                            x       y       z     vdW  Elec       q    Type
REMARK                         _______ _______ _______ _____ _____    ______ ____
ROOT
ATOM      1  N   UNL     1      -2.417  -3.962  -0.419  0.00  0.00    -0.249 N 
ATOM      2  C   UNL     1      -2.032  -4.863   0.562  0.00  0.00    +0.168 A 
ATOM      3  N   UNL     1      -1.789  -4.643   1.832  0.00  0.00    -0.221 NA
ATOM      4  C   UNL     1      -1.419  -5.626   2.682  0.00  0.00    +0.115 A 
ATOM      5  C   UNL     1      -1.128  -5.524   4.064  0.00  0.00    +0.150 A 
ATOM      6  C   UNL     1      -0.763  -6.632   4.786  0.00  0.00    +0.040 A 
ATOM      7  C   UNL     1      -0.666  -7.883   4.194  0.00  0.00    +0.004 A 
ATOM      8  C   UNL     1      -0.943  -8.018   2.847  0.00  0.00    +0.017 A 
ATOM      9  C   UNL     1      -1.309  -6.915   2.115  0.00  0.00    +0.044 A 
ATOM     10  S   UNL     1      -1.750  -6.622   0.419  0.00  0.00    -0.052 S 
ATOM     11  F   UNL     1      -1.210  -4.323   4.677  0.00  0.00    -0.203 F 
ATOM     12  C   UNL     1      -2.477  -4.353  -1.707  0.00  0.00    +0.240 C 
ATOM     13  O   UNL     1      -2.887  -3.588  -2.554  0.00  0.00    -0.273 OA
ENDROOT
BRANCH  12  14
ATOM     14  C   UNL     1      -2.035  -5.741  -2.095  0.00  0.00    +0.166 C 
ATOM     15  C   UNL     1      -3.199  -6.736  -1.902  0.00  0.00    +0.031 C 
ATOM     16  C   UNL     1      -3.798  -6.850  -3.328  0.00  0.00    +0.019 C 
ATOM     17  C   UNL     1      -2.528  -6.748  -4.208  0.00  0.00    +0.110 C 
ATOM     18  N   UNL     1      -1.665  -5.768  -3.517  0.00  0.00    -0.165 NA
BRANCH  18  19
ATOM     19  S   UNL     1      -0.480  -4.852  -4.224  0.00  0.00    +0.062 S 
ATOM     20  O   UNL     1      -0.810  -4.754  -5.603  0.00  0.00    -0.153 OA
ATOM     21  O   UNL     1      -0.305  -3.708  -3.399  0.00  0.00    -0.153 OA
BRANCH  19  22
ATOM     22  C   UNL     1       1.018  -5.775  -4.130  0.00  0.00    +0.106 A 
ATOM     23  C   UNL     1       1.846  -5.638  -3.031  0.00  0.00    +0.030 A 
ATOM     24  C   UNL     1       3.021  -6.362  -2.957  0.00  0.00    +0.022 A 
ATOM     25  C   UNL     1       3.369  -7.223  -3.982  0.00  0.00    +0.041 A 
ATOM     26  C   UNL     1       2.540  -7.359  -5.081  0.00  0.00    +0.022 A 
ATOM     27  C   UNL     1       1.363  -6.640  -5.152  0.00  0.00    +0.030 A 
ATOM     28 CL   UNL     1       4.845  -8.132  -3.889  0.00  0.00    -0.084 Cl
ENDBRANCH  19  22
ENDBRANCH  18  19
ENDBRANCH  12  14
BRANCH   1  29
ATOM     29  C   UNL     1      -2.758  -2.585  -0.055  0.00  0.00    +0.114 C 
BRANCH  29  30
ATOM     30  C   UNL     1      -1.509  -1.706  -0.157  0.00  0.00    +0.001 C 
BRANCH  30  31
ATOM     31  C   UNL     1      -1.884  -0.252   0.135  0.00  0.00    -0.078 C 
BRANCH  31  33
ATOM     32  C   UNL     1      -1.064   2.002   0.198  0.00  0.00    -0.097 C 
ATOM     33  N   UNL     1      -0.685   0.592   0.036  0.00  0.00    +0.376 N 
ATOM     34  C   UNL     1       0.266   0.216   1.091  0.00  0.00    -0.097 C 
ATOM     35  H   UNL     1      -0.255   0.461  -0.867  0.00  0.00    -0.083 HD
ENDBRANCH  31  33
ENDBRANCH  30  31
ENDBRANCH  29  30
ENDBRANCH   1  29
TORSDOF 7
