REMARK  Name = ZINC33645152
REMARK  12 active torsions:
REMARK  status: ('A' for Active; 'I' for Inactive)
REMARK    1  A    between atoms: C_1  and  C_2
REMARK    2  A    between atoms: C_7  and  N_8
REMARK    3  A    between atoms: N_11  and  C_12
REMARK    4  A    between atoms: N_11  and  O_40
REMARK    5  A    between atoms: C_14  and  C_38
REMARK    6  A    between atoms: C_14  and  C_39
REMARK    7  A    between atoms: N_15  and  C_26
REMARK    8  A    between atoms: N_18  and  C_19
REMARK    9  A    between atoms: C_24  and  C_25
REMARK   10  A    between atoms: C_26  and  C_27
REMARK   11  A    between atoms: N_29  and  N_30
REMARK   12  A    between atoms: C_31  and  C_32
REMARK                            x       y       z     vdW  Elec       q    Type
REMARK                         _______ _______ _______ _____ _____    ______ ____
ROOT
ATOM      1  C   UNL     1      -4.951   1.283  -1.373  0.00  0.00    +0.224 C 
ATOM      2  C   UNL     1      -5.827   0.705  -2.502  0.00  0.00    +0.071 C 
ATOM      3  N   UNL     1      -6.462   1.890  -3.098  0.00  0.00    -0.268 N 
ATOM      4  C   UNL     1      -6.046   2.985  -2.449  0.00  0.00    +0.312 C 
ATOM      5  O   UNL     1      -6.416   4.107  -2.737  0.00  0.00    -0.252 OA
ATOM      6  N   UNL     1      -5.186   2.733  -1.453  0.00  0.00    -0.232 N 
ATOM      7  C   UNL     1      -4.961  -0.018  -3.536  0.00  0.00    +0.035 C 
ATOM      8  C   UNL     1      -6.883  -0.243  -1.930  0.00  0.00    +0.035 C 
ENDROOT
BRANCH   6   9
ATOM      9  C   UNL     1      -4.603   3.696  -0.622  0.00  0.00    +0.043 A 
ATOM     10  C   UNL     1      -3.462   4.372  -1.034  0.00  0.00    +0.024 A 
ATOM     11  C   UNL     1      -2.889   5.322  -0.211  0.00  0.00    +0.002 A 
ATOM     12  C   UNL     1      -3.450   5.599   1.022  0.00  0.00    +0.000 A 
ATOM     13  C   UNL     1      -4.585   4.927   1.436  0.00  0.00    +0.005 A 
ATOM     14  C   UNL     1      -5.167   3.981   0.615  0.00  0.00    -0.029 A 
ATOM     15  C   UNL     1      -6.408   3.253   1.063  0.00  0.00    +0.045 C 
ENDBRANCH   6   9
BRANCH   1  19
ATOM     16  N   UNL     1      -1.638   1.139  -2.956  0.00  0.00    -0.267 N 
ATOM     17  C   UNL     1      -2.902   1.509  -2.673  0.00  0.00    +0.331 C 
ATOM     18  O   UNL     1      -3.470   2.322  -3.376  0.00  0.00    -0.250 OA
ATOM     19  N   UNL     1      -3.538   0.977  -1.610  0.00  0.00    -0.144 N 
ATOM     20  H   UNL     1      -1.141   0.368  -2.348  0.00  0.00    +0.156 HD
BRANCH  16  27
ATOM     21  C   UNL     1       1.201   0.949  -3.012  0.00  0.00    +0.045 C 
ATOM     22  C   UNL     1       0.429   1.666  -4.089  0.00  0.00    -0.029 A 
ATOM     23  C   UNL     1       1.098   2.256  -5.144  0.00  0.00    +0.005 A 
ATOM     24  C   UNL     1       0.391   2.915  -6.132  0.00  0.00    +0.000 A 
ATOM     25  C   UNL     1      -0.989   2.986  -6.069  0.00  0.00    +0.002 A 
ATOM     26  C   UNL     1      -1.664   2.398  -5.017  0.00  0.00    +0.023 A 
ATOM     27  C   UNL     1      -0.956   1.736  -4.022  0.00  0.00    +0.038 A 
ENDBRANCH  16  27
BRANCH  19  28
ATOM     28  O   UNL     1      -2.841   0.122  -0.723  0.00  0.00    -0.289 OA
ATOM     29  H   UNL     1      -3.360  -0.312   0.145  0.00  0.00    +0.242 HD
ENDBRANCH  19  28
ENDBRANCH   1  19
BRANCH   3  30
ATOM     30  C   UNL     1      -7.399   1.875  -4.223  0.00  0.00    +0.207 C 
BRANCH  30  31
ATOM     31  C   UNL     1      -8.807   1.744  -3.702  0.00  0.00    +0.250 C 
ATOM     32  O   UNL     1      -9.008   1.671  -2.508  0.00  0.00    -0.272 OA
ATOM     33  N   UNL     1      -9.844   1.709  -4.562  0.00  0.00    -0.206 N 
ATOM     34  H   UNL     1      -9.662   1.775  -5.645  0.00  0.00    +0.177 HD
BRANCH  33  35
ATOM     35  N   UNL     1     -11.153   1.587  -4.078  0.00  0.00    -0.188 NA
ATOM     36  C   UNL     1     -12.140   1.434  -4.906  0.00  0.00    +0.138 C 
BRANCH  36  37
ATOM     37  C   UNL     1     -11.915   0.778  -6.208  0.00  0.00    -0.005 A 
ATOM     38  C   UNL     1     -12.882   0.862  -7.212  0.00  0.00    +0.009 A 
ATOM     39  C   UNL     1     -12.662   0.251  -8.430  0.00  0.00    +0.001 A 
ATOM     40  C   UNL     1     -11.492  -0.452  -8.653  0.00  0.00    +0.000 A 
ATOM     41  C   UNL     1     -10.532  -0.543  -7.661  0.00  0.00    +0.001 A 
ATOM     42  C   UNL     1     -10.736   0.067  -6.441  0.00  0.00    +0.009 A 
ENDBRANCH  36  37
ENDBRANCH  33  35
ENDBRANCH  30  31
ENDBRANCH   3  30
TORSDOF 8
