REMARK  Name = ZINC12275077
REMARK  4 active torsions:
REMARK  status: ('A' for Active; 'I' for Inactive)
REMARK    1  A    between atoms: C_5  and  C_7
REMARK    2  A    between atoms: C_14  and  C_15
REMARK    3  A    between atoms: C_19  and  C_20
REMARK    4  A    between atoms: C_19  and  O_27
REMARK                            x       y       z     vdW  Elec       q    Type
REMARK                         _______ _______ _______ _____ _____    ______ ____
ROOT
ATOM      1  C   UNL     1       1.233  -2.186  -0.022  0.00  0.00    +0.073 C 
ATOM      2  C   UNL     1       1.942  -2.674  -1.282  0.00  0.00    +0.110 C 
ATOM      3  C   UNL     1       2.266  -4.140  -1.197  0.00  0.00    +0.224 C 
ATOM      4  O   UNL     1       2.137  -4.856  -2.167  0.00  0.00    -0.275 OA
ATOM      5  N   UNL     1       2.708  -4.654  -0.007  0.00  0.00    -0.231 N 
ATOM      6  C   UNL     1       2.594  -3.878   1.138  0.00  0.00    +0.087 C 
ATOM      7  C   UNL     1       1.959  -2.683   1.208  0.00  0.00    +0.065 C 
ATOM      8  S   UNL     1       3.383  -4.775   2.444  0.00  0.00    -0.104 S 
ATOM      9  C   UNL     1       3.837  -6.296   1.526  0.00  0.00    +0.136 C 
ATOM     10  C   UNL     1       3.288  -5.978   0.124  0.00  0.00    +0.175 C 
ENDROOT
BRANCH   1  15
ATOM     11  C   UNL     1       2.377   1.412  -0.013  0.00  0.00    +0.000 A 
ATOM     12  C   UNL     1       1.171   2.087   0.002  0.00  0.00    +0.003 A 
ATOM     13  C   UNL     1      -0.017   1.381   0.010  0.00  0.00    +0.038 A 
ATOM     14  C   UNL     1       0.002  -0.004   0.002  0.00  0.00    +0.127 A 
ATOM     15  C   UNL     1       1.211  -0.679  -0.013  0.00  0.00    -0.004 A 
ATOM     16  C   UNL     1       2.397   0.030  -0.021  0.00  0.00    +0.007 A 
ATOM     17  F   UNL     1      -1.158  -0.696   0.009  0.00  0.00    -0.205 F 
ENDBRANCH   1  15
BRANCH  10  18
ATOM     18  C   UNL     1       4.413  -6.108  -0.870  0.00  0.00    +0.004 A 
ATOM     19  C   UNL     1       5.132  -4.990  -1.250  0.00  0.00    +0.011 A 
ATOM     20  C   UNL     1       6.168  -5.109  -2.157  0.00  0.00    +0.039 A 
ATOM     21  C   UNL     1       6.477  -6.346  -2.695  0.00  0.00    +0.123 A 
ATOM     22  C   UNL     1       5.753  -7.465  -2.318  0.00  0.00    +0.039 A 
ATOM     23  C   UNL     1       4.722  -7.344  -1.406  0.00  0.00    +0.011 A 
ATOM     24  F   UNL     1       7.485  -6.463  -3.587  0.00  0.00    -0.205 F 
ENDBRANCH  10  18
BRANCH   7  25
ATOM     25  C   UNL     1       1.972  -1.915   2.416  0.00  0.00    +0.098 C 
ATOM     26  N   UNL     1       1.983  -1.305   3.374  0.00  0.00    -0.191 NA
ENDBRANCH   7  25
BRANCH  10  27
ATOM     27  O   UNL     1       2.289  -6.946  -0.202  0.00  0.00    -0.366 OA
ATOM     28  H   UNL     1       2.593  -7.862  -0.140  0.00  0.00    +0.212 HD
ENDBRANCH  10  27
TORSDOF 4
