REMARK  Name = ZINC15673341
REMARK  9 active torsions:
REMARK  status: ('A' for Active; 'I' for Inactive)
REMARK    1  A    between atoms: C_1  and  C_2
REMARK    2  A    between atoms: C_2  and  C_3
REMARK    3  A    between atoms: C_12  and  C_24
REMARK    4  A    between atoms: C_12  and  C_25
REMARK    5  A    between atoms: N_13  and  C_16
REMARK    6  A    between atoms: C_16  and  C_17
REMARK    7  A    between atoms: C_17  and  N_77
REMARK    8  A    between atoms: N_27  and  C_28
REMARK    9  A    between atoms: C_31  and  C_34
REMARK                            x       y       z     vdW  Elec       q    Type
REMARK                         _______ _______ _______ _____ _____    ______ ____
ROOT
ATOM      1  C   UNL     1       3.541  -5.869   6.484  0.00  0.00    -0.008 A 
ATOM      2  C   UNL     1       2.412  -5.156   6.290  0.00  0.00    +0.037 A 
ATOM      3  C   UNL     1       2.478  -3.864   5.750  0.00  0.00    +0.057 A 
ATOM      4  C   UNL     1       3.766  -3.398   5.445  0.00  0.00    +0.038 A 
ATOM      5  S   UNL     1       4.811  -4.754   5.910  0.00  0.00    -0.092 S 
ATOM      6  C   UNL     1       3.685  -2.112   4.925  0.00  0.00    +0.048 A 
ATOM      7  C   UNL     1       2.365  -1.769   4.906  0.00  0.00    +0.106 A 
ATOM      8  N   UNL     1       1.622  -2.836   5.398  0.00  0.00    -0.333 N 
ATOM      9  C   UNL     1       0.160  -2.788   5.482  0.00  0.00    +0.157 C 
ATOM     10  C   UNL     1      -0.281  -1.335   5.681  0.00  0.00    +0.128 C 
ATOM     11  N   UNL     1       0.389  -0.419   4.765  0.00  0.00    -0.282 N 
ATOM     12  C   UNL     1       1.706  -0.531   4.473  0.00  0.00    +0.264 C 
ATOM     13  O   UNL     1       2.311   0.347   3.885  0.00  0.00    -0.268 OA
ATOM     14  C   UNL     1       0.028  -0.911   7.118  0.00  0.00    +0.043 C 
ENDROOT
BRANCH  10  15
ATOM     15  C   UNL     1      -1.769  -1.242   5.459  0.00  0.00    +0.238 C 
ATOM     16  O   UNL     1      -2.330  -2.062   4.764  0.00  0.00    -0.273 OA
ATOM     17  N   UNL     1      -2.476  -0.249   6.033  0.00  0.00    -0.311 N 
ATOM     18  H   UNL     1      -2.019   0.445   6.533  0.00  0.00    +0.149 HD
BRANCH  17  19
ATOM     19  C   UNL     1      -3.934  -0.216   5.901  0.00  0.00    +0.073 C 
ATOM     20  C   UNL     1      -4.311   0.400   4.553  0.00  0.00    +0.022 C 
ATOM     21  C   UNL     1      -5.835   0.433   4.415  0.00  0.00    +0.005 C 
ATOM     22  C   UNL     1      -6.430   1.276   5.545  0.00  0.00    -0.014 C 
ATOM     23  C   UNL     1      -6.054   0.659   6.894  0.00  0.00    +0.005 C 
ATOM     24  C   UNL     1      -4.530   0.626   7.031  0.00  0.00    +0.022 C 
ATOM     25  C   UNL     1      -7.954   1.309   5.407  0.00  0.00    +0.007 C 
ENDBRANCH  17  19
ENDBRANCH  10  15
BRANCH   1  27
ATOM     26  C   UNL     1       3.624  -8.279   5.904  0.00  0.00    +0.009 C 
ATOM     27  C   UNL     1       3.692  -7.260   7.044  0.00  0.00    +0.039 C 
ENDBRANCH   1  27
BRANCH  11  28
ATOM     28  C   UNL     1      -0.386   0.660   4.147  0.00  0.00    +0.091 C 
BRANCH  28  29
ATOM     29  C   UNL     1      -0.849   0.222   2.756  0.00  0.00    -0.060 C 
BRANCH  29  36
ATOM     30  C   UNL     1      -0.697   2.457   1.814  0.00  0.00    -0.079 C 
ATOM     31  C   UNL     1       0.010   2.302   0.496  0.00  0.00    -0.019 C 
ATOM     32  C   UNL     1      -0.817   3.015  -0.595  0.00  0.00    -0.002 C 
ATOM     33  C   UNL     1      -1.960   2.219  -1.028  0.00  0.00    -0.002 C 
ATOM     34  C   UNL     1      -2.944   1.937   0.127  0.00  0.00    -0.019 C 
ATOM     35  C   UNL     1      -2.384   0.824   0.970  0.00  0.00    -0.079 C 
ATOM     36  N   UNL     1      -1.623   1.325   2.167  0.00  0.00    +0.381 N 
ATOM     37  H   UNL     1      -2.299   1.664   2.861  0.00  0.00    -0.082 HD
ENDBRANCH  29  36
ENDBRANCH  28  29
ENDBRANCH  11  28
TORSDOF 6
