REMARK  Name = ZINC40372336
REMARK  6 active torsions:
REMARK  status: ('A' for Active; 'I' for Inactive)
REMARK    1  A    between atoms: C_1  and  C_2
REMARK    2  A    between atoms: C_5  and  C_9
REMARK    3  A    between atoms: C_6  and  O_8
REMARK    4  A    between atoms: N_11  and  C_12
REMARK    5  A    between atoms: C_12  and  C_18
REMARK    6  A    between atoms: N_19  and  O_20
REMARK                            x       y       z     vdW  Elec       q    Type
REMARK                         _______ _______ _______ _____ _____    ______ ____
ROOT
ATOM      1  C   UNL     1       0.993  -4.165  -1.446  0.00  0.00    +0.248 C 
ATOM      2  O   UNL     1       2.013  -4.668  -1.875  0.00  0.00    -0.270 OA
ATOM      3  N   UNL     1      -0.045  -4.946  -1.088  0.00  0.00    -0.299 N 
ATOM      4  H   UNL     1      -0.831  -4.551  -0.679  0.00  0.00    +0.150 HD
ENDROOT
BRANCH   1   9
ATOM      5  C   UNL     1       0.588   1.555  -0.947  0.00  0.00    +0.044 C 
ATOM      6  C   UNL     1       0.697   0.058  -1.079  0.00  0.00    -0.047 A 
ATOM      7  C   UNL     1      -0.369  -0.746  -0.711  0.00  0.00    +0.004 A 
ATOM      8  C   UNL     1      -0.281  -2.116  -0.827  0.00  0.00    +0.017 A 
ATOM      9  C   UNL     1       0.890  -2.698  -1.319  0.00  0.00    +0.078 A 
ATOM     10  C   UNL     1       1.967  -1.882  -1.691  0.00  0.00    +0.129 A 
ATOM     11  C   UNL     1       1.858  -0.504  -1.572  0.00  0.00    +0.049 A 
BRANCH  10  12
ATOM     12  O   UNL     1       3.109  -2.436  -2.169  0.00  0.00    -0.506 OA
ATOM     13  H   UNL     1       3.120  -2.548  -3.129  0.00  0.00    +0.292 HD
ENDBRANCH  10  12
ENDBRANCH   1   9
BRANCH   3  14
ATOM     14  C   UNL     1       0.014  -6.392  -1.315  0.00  0.00    +0.093 C 
ATOM     15  C   UNL     1      -1.260  -7.046  -0.776  0.00  0.00    +0.033 C 
ATOM     16  C   UNL     1      -2.476  -6.465  -1.501  0.00  0.00    +0.002 C 
ATOM     17  C   UNL     1      -2.356  -6.742  -3.001  0.00  0.00    +0.000 C 
ATOM     18  C   UNL     1      -1.081  -6.088  -3.539  0.00  0.00    +0.002 C 
ATOM     19  C   UNL     1       0.135  -6.669  -2.814  0.00  0.00    +0.033 C 
BRANCH  14  20
ATOM     20  C   UNL     1       1.212  -6.964  -0.601  0.00  0.00    +0.155 C 
ATOM     21  N   UNL     1       2.125  -7.588  -1.268  0.00  0.00    -0.075 NA
ATOM     22  N   UNL     1       1.333  -6.822   0.764  0.00  0.00    -0.342 N 
ATOM     23  H   UNL     1       0.693  -6.282   1.254  0.00  0.00    +0.144 HD
ATOM     24  H   UNL     1       2.058  -7.261   1.235  0.00  0.00    +0.144 HD
BRANCH  21  25
ATOM     25  O   UNL     1       3.250  -8.125  -0.598  0.00  0.00    -0.408 OA
ATOM     26  H   UNL     1       3.878  -8.574  -1.180  0.00  0.00    +0.328 HD
ENDBRANCH  21  25
ENDBRANCH  14  20
ENDBRANCH   3  14
TORSDOF 5
