REMARK  Name = ZINC16026354
REMARK  5 active torsions:
REMARK  status: ('A' for Active; 'I' for Inactive)
REMARK    1  A    between atoms: C_1  and  O_2
REMARK    2  A    between atoms: O_2  and  C_3
REMARK    3  A    between atoms: C_7  and  N_9
REMARK    4  A    between atoms: C_14  and  C_31
REMARK    5  A    between atoms: C_31  and  C_32
REMARK                            x       y       z     vdW  Elec       q    Type
REMARK                         _______ _______ _______ _____ _____    ______ ____
ROOT
ATOM      1  N   UNL     1       1.387  -4.026   2.213  0.00  0.00    -0.210 N 
ATOM      2  C   UNL     1       0.774  -4.814   1.323  0.00  0.00    +0.232 C 
ATOM      3  O   UNL     1       0.105  -4.428   0.389  0.00  0.00    -0.274 OA
ATOM      4  C   UNL     1       1.046  -6.262   1.663  0.00  0.00    +0.108 C 
ATOM      5  C   UNL     1      -0.266  -6.935   2.115  0.00  0.00    +0.072 C 
ATOM      6  N   UNL     1      -0.354  -6.660   3.574  0.00  0.00    -0.295 NA
ATOM      7  C   UNL     1       1.036  -6.783   4.049  0.00  0.00    +0.136 C 
ATOM      8  C   UNL     1       1.927  -6.171   2.940  0.00  0.00    +0.123 C 
ATOM      9  C   UNL     1       2.070  -4.681   3.158  0.00  0.00    +0.233 C 
ATOM     10  O   UNL     1       2.703  -4.162   4.053  0.00  0.00    -0.274 OA
ATOM     11  C   UNL     1       1.403  -8.215   4.317  0.00  0.00    +0.003 A 
ATOM     12  C   UNL     1       1.433  -9.348   3.535  0.00  0.00    +0.008 A 
ATOM     13  C   UNL     1       1.827 -10.556   4.081  0.00  0.00    +0.000 A 
ATOM     14  C   UNL     1       2.189 -10.623   5.414  0.00  0.00    +0.002 A 
ATOM     15  C   UNL     1       2.161  -9.491   6.202  0.00  0.00    +0.023 A 
ATOM     16  C   UNL     1       1.765  -8.270   5.659  0.00  0.00    +0.039 A 
ATOM     17  N   UNL     1       1.655  -7.006   6.242  0.00  0.00    -0.283 N 
ATOM     18  C   UNL     1       1.231  -6.076   5.363  0.00  0.00    +0.243 C 
ATOM     19  O   UNL     1       1.045  -4.899   5.588  0.00  0.00    -0.273 OA
ATOM     20  H   UNL     1      -0.715  -5.733   3.745  0.00  0.00    +0.124 HD
ATOM     21  H   UNL     1       1.859  -6.818   7.171  0.00  0.00    +0.155 HD
ENDROOT
BRANCH   1  26
ATOM     22  C   UNL     1       2.397  -0.507   1.810  0.00  0.00    +0.122 A 
ATOM     23  C   UNL     1       1.191   0.139   2.047  0.00  0.00    +0.046 A 
ATOM     24  C   UNL     1       0.058  -0.596   2.338  0.00  0.00    +0.005 A 
ATOM     25  C   UNL     1       0.121  -1.975   2.393  0.00  0.00    +0.024 A 
ATOM     26  C   UNL     1       1.324  -2.626   2.157  0.00  0.00    +0.047 A 
ATOM     27  C   UNL     1       2.462  -1.891   1.859  0.00  0.00    +0.069 A 
BRANCH  22  29
ATOM     28  C   UNL     1       3.370   1.638   1.490  0.00  0.00    +0.277 C 
ATOM     29  O   UNL     1       3.511   0.217   1.524  0.00  0.00    -0.495 OA
ENDBRANCH  22  29
ENDBRANCH   1  26
BRANCH   5  30
ATOM     30  C   UNL     1      -1.460  -6.321   1.382  0.00  0.00    +0.056 C 
BRANCH  30  31
ATOM     31  C   UNL     1      -2.715  -7.073   1.745  0.00  0.00    -0.021 A 
ATOM     32  C   UNL     1      -3.264  -8.088   1.059  0.00  0.00    +0.087 A 
ATOM     33  N   UNL     1      -4.397  -8.520   1.693  0.00  0.00    -0.360 N 
ATOM     34  H   UNL     1      -4.965  -9.244   1.386  0.00  0.00    +0.165 HD
ATOM     35  C   UNL     1      -4.610  -7.774   2.831  0.00  0.00    +0.047 A 
ATOM     36  C   UNL     1      -3.562  -6.840   2.917  0.00  0.00    +0.003 A 
ATOM     37  C   UNL     1      -3.514  -5.943   3.986  0.00  0.00    +0.010 A 
ATOM     38  C   UNL     1      -4.486  -5.981   4.946  0.00  0.00    +0.001 A 
ATOM     39  C   UNL     1      -5.519  -6.904   4.868  0.00  0.00    +0.002 A 
ATOM     40  C   UNL     1      -5.591  -7.792   3.817  0.00  0.00    +0.026 A 
ENDBRANCH  30  31
ENDBRANCH   5  30
TORSDOF 4
