REMARK  Name = ZINC44416970
REMARK  4 active torsions:
REMARK  status: ('A' for Active; 'I' for Inactive)
REMARK    1  A    between atoms: C_3  and  C_6
REMARK    2  A    between atoms: C_8  and  C_12
REMARK    3  A    between atoms: C_14  and  C_17
REMARK    4  A    between atoms: N_22  and  C_24
REMARK                            x       y       z     vdW  Elec       q    Type
REMARK                         _______ _______ _______ _____ _____    ______ ____
ROOT
ATOM      1  C   UNL     1       7.394   1.494  -0.077  0.00  0.00    +0.276 A 
ATOM      2  N   UNL     1       8.439   2.294  -0.067  0.00  0.00    -0.190 NA
ATOM      3  C   UNL     1       9.563   1.576  -0.094  0.00  0.00    +0.177 A 
ATOM      4  N   UNL     1       9.259   0.308  -0.121  0.00  0.00    -0.060 NA
ATOM      5  O   UNL     1       7.842   0.226  -0.106  0.00  0.00    -0.331 OA
ENDROOT
BRANCH   1   8
ATOM      6  C   UNL     1       3.743   1.892  -0.030  0.00  0.00    +0.100 A 
ATOM      7  C   UNL     1       4.894   1.086  -0.059  0.00  0.00    +0.063 A 
ATOM      8  C   UNL     1       5.982   1.913  -0.054  0.00  0.00    +0.123 A 
ATOM      9  N   UNL     1       5.521   3.199  -0.023  0.00  0.00    -0.272 N 
ATOM     10  H   UNL     1       6.067   4.001  -0.014  0.00  0.00    +0.189 HD
ATOM     11  N   UNL     1       4.122   3.156  -0.014  0.00  0.00    -0.173 NA
BRANCH   6  14
ATOM     12  C   UNL     1      -0.018   1.450  -0.005  0.00  0.00    +0.008 A 
ATOM     13  C   UNL     1       1.182   2.128  -0.004  0.00  0.00    +0.018 A 
ATOM     14  C   UNL     1       2.345   1.407  -0.026  0.00  0.00    +0.039 A 
ATOM     15  S   UNL     1       1.737  -0.271  -0.048  0.00  0.00    -0.095 S 
ATOM     16  C   UNL     1      -0.010   0.093  -0.027  0.00  0.00    +0.046 A 
ENDBRANCH   6  14
ENDBRANCH   1   8
BRANCH   3  17
ATOM     17  C   UNL     1      10.960   2.140  -0.093  0.00  0.00    +0.087 C 
ATOM     18  C   UNL     1      11.790   1.561   1.077  0.00  0.00    +0.109 C 
ATOM     19  C   UNL     1      13.178   1.395   0.500  0.00  0.00    +0.221 C 
ATOM     20  O   UNL     1      14.188   1.234   1.153  0.00  0.00    -0.275 OA
ATOM     21  N   UNL     1      13.131   1.451  -0.842  0.00  0.00    -0.271 N 
ATOM     22  C   UNL     1      11.757   1.645  -1.321  0.00  0.00    +0.125 C 
BRANCH  21  23
ATOM     23  C   UNL     1      14.249   1.339  -1.677  0.00  0.00    +0.037 A 
ATOM     24  C   UNL     1      14.087   1.295  -3.056  0.00  0.00    +0.024 A 
ATOM     25  C   UNL     1      15.193   1.186  -3.874  0.00  0.00    +0.006 A 
ATOM     26  C   UNL     1      16.464   1.120  -3.327  0.00  0.00    -0.044 A 
ATOM     27  C   UNL     1      16.628   1.163  -1.954  0.00  0.00    -0.042 A 
ATOM     28  C   UNL     1      15.523   1.278  -1.130  0.00  0.00    +0.027 A 
ATOM     29  C   UNL     1      18.100   1.074  -1.612  0.00  0.00    +0.036 C 
ATOM     30  C   UNL     1      18.779   0.534  -2.888  0.00  0.00    +0.009 C 
ATOM     31  C   UNL     1      17.815   0.999  -4.000  0.00  0.00    +0.036 C 
ENDBRANCH  21  23
ENDBRANCH   3  17
TORSDOF 4
