REMARK  Name = ZINC04647214
REMARK  8 active torsions:
REMARK  status: ('A' for Active; 'I' for Inactive)
REMARK    1  A    between atoms: C_1  and  C_2
REMARK    2  A    between atoms: C_5  and  S_8
REMARK    3  A    between atoms: S_8  and  N_11
REMARK    4  A    between atoms: N_11  and  C_12
REMARK    5  A    between atoms: C_15  and  C_18
REMARK    6  A    between atoms: C_18  and  C_20
REMARK    7  A    between atoms: C_20  and  C_21
REMARK    8  A    between atoms: C_21  and  O_32
REMARK                            x       y       z     vdW  Elec       q    Type
REMARK                         _______ _______ _______ _____ _____    ______ ____
ROOT
ATOM      1  C   UNL     1      -1.182   1.561   0.030  0.00  0.00    +0.048 A 
ATOM      2  C   UNL     1      -0.054   0.746  -0.022  0.00  0.00    +0.025 A 
ATOM      3  C   UNL     1       1.193   1.302  -0.035  0.00  0.00    +0.013 A 
ATOM      4  C   UNL     1       1.336   2.695   0.009  0.00  0.00    +0.018 A 
ATOM      5  C   UNL     1       0.199   3.511   0.067  0.00  0.00    +0.013 A 
ATOM      6  C   UNL     1      -1.044   2.946   0.080  0.00  0.00    +0.025 A 
ENDROOT
BRANCH   1   7
ATOM      7  N   UNL     1      -2.449   0.991   0.038  0.00  0.00    -0.216 N 
ATOM      8  H   UNL     1      -2.782   0.561   0.841  0.00  0.00    +0.174 HD
BRANCH   7   9
ATOM      9  S   UNL     1      -3.389   1.044  -1.324  0.00  0.00    +0.072 S 
ATOM     10  O   UNL     1      -4.584   0.337  -1.020  0.00  0.00    -0.150 OA
ATOM     11  O   UNL     1      -3.394   2.396  -1.761  0.00  0.00    -0.150 OA
BRANCH   9  16
ATOM     12  C   UNL     1      -0.540  -2.138  -5.586  0.00  0.00    +0.044 C 
ATOM     13  C   UNL     1      -1.252  -1.343  -4.521  0.00  0.00    -0.050 A 
ATOM     14  C   UNL     1      -2.192  -1.956  -3.714  0.00  0.00    +0.005 A 
ATOM     15  C   UNL     1      -2.845  -1.227  -2.738  0.00  0.00    +0.029 A 
ATOM     16  C   UNL     1      -2.557   0.115  -2.568  0.00  0.00    +0.109 A 
ATOM     17  C   UNL     1      -1.620   0.728  -3.379  0.00  0.00    +0.029 A 
ATOM     18  C   UNL     1      -0.964  -0.002  -4.352  0.00  0.00    +0.005 A 
ENDBRANCH   9  16
ENDBRANCH   7   9
ENDBRANCH   1   7
BRANCH   4  19
ATOM     19  C   UNL     1       2.674   3.298  -0.004  0.00  0.00    +0.167 C 
ATOM     20  O   UNL     1       3.658   2.590  -0.054  0.00  0.00    -0.292 OA
BRANCH  19  21
ATOM     21  C   UNL     1       2.826   4.797   0.043  0.00  0.00    +0.129 C 
BRANCH  21  22
ATOM     22  C   UNL     1       4.312   5.160   0.018  0.00  0.00    +0.175 C 
ATOM     23  C   UNL     1       4.491   6.661   0.018  0.00  0.00    +0.015 A 
ATOM     24  C   UNL     1       4.136   7.647   0.906  0.00  0.00    +0.024 A 
ATOM     25  C   UNL     1       4.438   8.970   0.629  0.00  0.00    +0.018 A 
ATOM     26  C   UNL     1       5.096   9.294  -0.545  0.00  0.00    +0.017 A 
ATOM     27  C   UNL     1       5.452   8.306  -1.440  0.00  0.00    +0.025 A 
ATOM     28  C   UNL     1       5.151   6.973  -1.167  0.00  0.00    +0.040 A 
ATOM     29  N   UNL     1       5.402   5.813  -1.901  0.00  0.00    -0.282 N 
ATOM     30  C   UNL     1       4.945   4.711  -1.282  0.00  0.00    +0.254 C 
ATOM     31  O   UNL     1       5.026   3.571  -1.689  0.00  0.00    -0.272 OA
ATOM     32 BR   UNL     1       3.955  10.330   1.851  0.00  0.00    -0.050 Br
ATOM     33  H   UNL     1       5.853   5.803  -2.760  0.00  0.00    +0.155 HD
BRANCH  22  34
ATOM     34  O   UNL     1       4.989   4.575   1.132  0.00  0.00    -0.374 OA
ATOM     35  H   UNL     1       4.931   3.610   1.165  0.00  0.00    +0.211 HD
ENDBRANCH  22  34
ENDBRANCH  21  22
ENDBRANCH  19  21
ENDBRANCH   4  19
TORSDOF 7
