REMARK  Name = ZINC11785105
REMARK  13 active torsions:
REMARK  status: ('A' for Active; 'I' for Inactive)
REMARK    1  A    between atoms: C_1  and  C_2
REMARK    2  A    between atoms: C_2  and  C_3
REMARK    3  A    between atoms: C_2  and  C_4
REMARK    4  A    between atoms: C_4  and  C_5
REMARK    5  A    between atoms: C_7  and  C_11
REMARK    6  A    between atoms: C_11  and  N_72
REMARK    7  A    between atoms: C_23  and  N_31
REMARK    8  A    between atoms: C_25  and  O_27
REMARK    9  A    between atoms: O_27  and  C_28
REMARK   10  A    between atoms: C_28  and  C_29
REMARK   11  A    between atoms: C_32  and  C_34
REMARK   12  A    between atoms: C_34  and  S_35
REMARK   13  A    between atoms: S_35  and  C_36
REMARK                            x       y       z     vdW  Elec       q    Type
REMARK                         _______ _______ _______ _____ _____    ______ ____
ROOT
ATOM      1  C   UNL     1      -2.226  -0.614   4.685  0.00  0.00    -0.077 C 
ATOM      2  C   UNL     1      -1.543  -1.286   5.880  0.00  0.00    -0.005 C 
ATOM      3  C   UNL     1      -2.537  -1.397   7.032  0.00  0.00    +0.021 C 
ATOM      4  C   UNL     1      -3.087  -0.020   7.392  0.00  0.00    -0.005 C 
ATOM      5  C   UNL     1      -3.721   0.612   6.149  0.00  0.00    -0.077 C 
ATOM      6  C   UNL     1      -1.880  -2.033   8.234  0.00  0.00    -0.034 A 
ATOM      7  C   UNL     1      -0.639  -1.808   8.808  0.00  0.00    +0.004 A 
ATOM      8  C   UNL     1      -0.248  -2.524   9.923  0.00  0.00    +0.000 A 
ATOM      9  C   UNL     1      -1.097  -3.468  10.469  0.00  0.00    +0.000 A 
ATOM     10  C   UNL     1      -2.335  -3.693   9.899  0.00  0.00    +0.006 A 
ATOM     11  C   UNL     1      -2.730  -2.977   8.782  0.00  0.00    -0.021 A 
ATOM     12  C   UNL     1      -4.015  -3.033   7.985  0.00  0.00    +0.133 C 
ATOM     13  C   UNL     1      -3.690  -2.340   6.644  0.00  0.00    +0.154 C 
ATOM     14  N   UNL     1      -2.691   0.729   5.095  0.00  0.00    +0.383 N 
ATOM     15  H   UNL     1      -1.893   1.259   5.466  0.00  0.00    -0.081 HD
ENDROOT
BRANCH  12  16
ATOM     16  N   UNL     1      -5.080  -2.310   8.685  0.00  0.00    -0.305 N 
ATOM     17  C   UNL     1      -5.824  -2.942   9.614  0.00  0.00    +0.223 C 
ATOM     18  O   UNL     1      -5.613  -4.108   9.871  0.00  0.00    -0.275 OA
ATOM     19  H   UNL     1      -5.249  -1.377   8.480  0.00  0.00    +0.149 HD
BRANCH  17  20
ATOM     20  C   UNL     1      -6.920  -2.198  10.335  0.00  0.00    +0.164 C 
BRANCH  20  21
ATOM     21  S   UNL     1      -7.732  -3.312  11.514  0.00  0.00    -0.155 S 
ATOM     22  C   UNL     1      -9.007  -2.278  12.287  0.00  0.00    +0.085 C 
ENDBRANCH  20  21
ENDBRANCH  17  20
ENDBRANCH  12  16
BRANCH  14  23
ATOM     23  C   UNL     1      -3.243   1.449   3.928  0.00  0.00    -0.021 C 
BRANCH  23  26
ATOM     24  C   UNL     1      -0.718   1.572   1.248  0.00  0.00    +0.036 A 
ATOM     25  C   UNL     1      -1.773   0.976   1.851  0.00  0.00    +0.045 A 
ATOM     26  C   UNL     1      -2.122   1.745   2.966  0.00  0.00    +0.047 A 
ATOM     27  N   UNL     1      -1.306   2.766   3.030  0.00  0.00    -0.181 NA
ATOM     28  N   UNL     1      -0.407   2.676   1.959  0.00  0.00    -0.281 N 
ATOM     29  H   UNL     1       0.333   3.317   1.757  0.00  0.00    +0.189 HD
BRANCH  24  30
ATOM     30  C   UNL     1      -0.013   1.086   0.008  0.00  0.00    +0.057 C 
BRANCH  30  32
ATOM     31  C   UNL     1      -0.666   3.119  -1.289  0.00  0.00    +0.007 C 
ATOM     32  C   UNL     1      -0.753   1.593  -1.232  0.00  0.00    -0.011 C 
ATOM     33  C   UNL     1      -0.111   0.998  -2.487  0.00  0.00    +0.007 C 
ENDBRANCH  30  32
ENDBRANCH  24  30
ENDBRANCH  23  26
ENDBRANCH  14  23
BRANCH  13  34
ATOM     34  O   UNL     1      -3.261  -3.294   5.670  0.00  0.00    -0.370 OA
BRANCH  34  35
ATOM     35  C   UNL     1      -4.295  -3.726   4.784  0.00  0.00    +0.187 C 
BRANCH  35  36
ATOM     36  C   UNL     1      -3.734  -4.724   3.804  0.00  0.00    -0.007 C 
ATOM     37  C   UNL     1      -4.394  -5.824   3.539  0.00  0.00    +0.006 C 
ENDBRANCH  35  36
ENDBRANCH  34  35
ENDBRANCH  13  34
TORSDOF 10
