REMARK  Name = ZINC58328683
REMARK  4 active torsions:
REMARK  status: ('A' for Active; 'I' for Inactive)
REMARK    1  A    between atoms: C_6  and  C_7
REMARK    2  A    between atoms: C_7  and  C_12
REMARK    3  A    between atoms: C_12  and  N_13
REMARK    4  A    between atoms: C_14  and  C_16
REMARK                            x       y       z     vdW  Elec       q    Type
REMARK                         _______ _______ _______ _____ _____    ______ ____
ROOT
ATOM      1  N   UNL     1      -2.430   0.915   1.363  0.00  0.00    -0.310 N 
ATOM      2  C   UNL     1      -3.035   1.410   2.461  0.00  0.00    +0.249 C 
ATOM      3  O   UNL     1      -3.347   0.666   3.371  0.00  0.00    -0.270 OA
ATOM      4  H   UNL     1      -2.248   1.494   0.607  0.00  0.00    +0.149 HD
ENDROOT
BRANCH   2   5
ATOM      5  C   UNL     1      -3.317   2.851   2.559  0.00  0.00    +0.102 A 
ATOM      6  C   UNL     1      -3.837   3.399   3.724  0.00  0.00    +0.031 A 
ATOM      7  C   UNL     1      -4.090   4.786   3.771  0.00  0.00    +0.037 A 
ATOM      8  C   UNL     1      -3.820   5.592   2.677  0.00  0.00    +0.030 A 
ATOM      9  N   UNL     1      -3.321   5.060   1.543  0.00  0.00    -0.325 N 
ATOM     10  H   UNL     1      -3.146   5.642   0.787  0.00  0.00    +0.169 HD
ATOM     11  C   UNL     1      -3.053   3.748   1.431  0.00  0.00    +0.261 A 
ATOM     12  O   UNL     1      -2.595   3.305   0.393  0.00  0.00    -0.267 OA
ATOM     13  C   UNL     1      -4.064   7.078   2.717  0.00  0.00    +0.054 C 
ATOM     14  C   UNL     1      -5.105   7.442   3.771  0.00  0.00    +0.014 C 
ATOM     15  C   UNL     1      -4.668   6.876   5.129  0.00  0.00    +0.080 C 
ATOM     16  C   UNL     1      -4.652   5.367   5.002  0.00  0.00    +0.165 C 
ATOM     17  O   UNL     1      -5.087   4.660   5.886  0.00  0.00    -0.292 OA
ENDBRANCH   2   5
BRANCH   1  18
ATOM     18  C   UNL     1      -2.048  -0.499   1.312  0.00  0.00    +0.116 C 
BRANCH  18  19
ATOM     19  C   UNL     1      -1.288  -0.775   0.013  0.00  0.00    +0.011 C 
ATOM     20  C   UNL     1      -2.153  -0.384  -1.198  0.00  0.00    +0.013 C 
ATOM     21  C   UNL     1      -2.361  -1.669  -2.025  0.00  0.00    +0.001 C 
ATOM     22  C   UNL     1      -2.158  -2.815  -1.002  0.00  0.00    +0.001 C 
ATOM     23  C   UNL     1      -1.001  -2.285  -0.120  0.00  0.00    +0.013 C 
BRANCH  19  29
ATOM     24  C   UNL     1       0.783   0.019  -1.145  0.00  0.00    +0.007 A 
ATOM     25  C   UNL     1       1.969   0.730  -1.162  0.00  0.00    +0.038 A 
ATOM     26  C   UNL     1       2.376   1.422  -0.034  0.00  0.00    +0.123 A 
ATOM     27  C   UNL     1       1.594   1.403   1.109  0.00  0.00    +0.038 A 
ATOM     28  C   UNL     1       0.409   0.692   1.123  0.00  0.00    +0.007 A 
ATOM     29  C   UNL     1       0.004   0.000  -0.004  0.00  0.00    -0.040 A 
ATOM     30  F   UNL     1       3.534   2.117  -0.049  0.00  0.00    -0.205 F 
ENDBRANCH  19  29
ENDBRANCH  18  19
ENDBRANCH   1  18
TORSDOF 4
