REMARK  Name = ZINC59464636
REMARK  5 active torsions:
REMARK  status: ('A' for Active; 'I' for Inactive)
REMARK    1  A    between atoms: C_1  and  C_2
REMARK    2  A    between atoms: C_2  and  C_3
REMARK    3  A    between atoms: C_3  and  C_19
REMARK    4  A    between atoms: N_4  and  N_5
REMARK    5  A    between atoms: C_10  and  C_13
REMARK                            x       y       z     vdW  Elec       q    Type
REMARK                         _______ _______ _______ _____ _____    ______ ____
ROOT
ATOM      1  N   UNL     1      -1.201  -0.538   2.371  0.00  0.00    -0.126 NA
ATOM      2  C   UNL     1      -1.865  -0.773   3.485  0.00  0.00    +0.183 C 
ATOM      3  N   UNL     1      -3.215  -0.627   3.717  0.00  0.00    -0.262 N 
ATOM      4  C   UNL     1      -3.768  -0.897   4.887  0.00  0.00    +0.236 C 
ATOM      5  O   UNL     1      -4.957  -0.766   5.084  0.00  0.00    -0.274 OA
ATOM      6  C   UNL     1      -2.818  -1.382   5.971  0.00  0.00    +0.170 C 
ATOM      7  S   UNL     1      -1.227  -1.363   5.046  0.00  0.00    -0.071 S 
ATOM      8  H   UNL     1      -3.782  -0.314   2.995  0.00  0.00    +0.157 HD
ENDROOT
BRANCH   6   9
ATOM      9  C   UNL     1      -2.790  -0.430   7.139  0.00  0.00    -0.025 A 
ATOM     10  C   UNL     1      -2.403   0.883   6.951  0.00  0.00    +0.005 A 
ATOM     11  C   UNL     1      -2.376   1.756   8.022  0.00  0.00    +0.000 A 
ATOM     12  C   UNL     1      -2.738   1.316   9.282  0.00  0.00    +0.000 A 
ATOM     13  C   UNL     1      -3.126   0.003   9.470  0.00  0.00    +0.000 A 
ATOM     14  C   UNL     1      -3.156  -0.870   8.398  0.00  0.00    +0.005 A 
ENDBRANCH   6   9
BRANCH   1  16
ATOM     15  C   UNL     1       0.731  -0.503   1.223  0.00  0.00    +0.070 C 
ATOM     16  N   UNL     1       0.073  -0.736   2.326  0.00  0.00    -0.151 NA
BRANCH  15  17
ATOM     17  C   UNL     1       2.184  -0.729   1.171  0.00  0.00    -0.002 A 
ATOM     18  C   UNL     1       2.893  -0.475  -0.007  0.00  0.00    +0.010 A 
ATOM     19  C   UNL     1       4.255  -0.688  -0.047  0.00  0.00    +0.001 A 
ATOM     20  C   UNL     1       4.920  -1.152   1.075  0.00  0.00    +0.000 A 
ATOM     21  C   UNL     1       4.225  -1.405   2.244  0.00  0.00    +0.001 A 
ATOM     22  C   UNL     1       2.864  -1.192   2.302  0.00  0.00    +0.010 A 
ENDBRANCH  15  17
BRANCH  15  24
ATOM     23  C   UNL     1      -0.019   1.526   0.010  0.00  0.00    +0.010 C 
ATOM     24  C   UNL     1       0.002  -0.004   0.002  0.00  0.00    +0.054 C 
ENDBRANCH  15  24
ENDBRANCH   1  16
TORSDOF 4
