REMARK  Name = ZINC39291878
REMARK  2 active torsions:
REMARK  status: ('A' for Active; 'I' for Inactive)
REMARK    1  A    between atoms: C_4  and  N_7
REMARK    2  A    between atoms: C_21  and  C_23
REMARK                            x       y       z     vdW  Elec       q    Type
REMARK                         _______ _______ _______ _____ _____    ______ ____
ROOT
ATOM      1  N   UNL     1       3.619  -0.648  -0.037  0.00  0.00    -0.214 N 
ATOM      2  C   UNL     1       3.889  -2.089   0.045  0.00  0.00    +0.160 C 
ATOM      3  C   UNL     1       2.912  -3.063   0.623  0.00  0.00    +0.002 A 
ATOM      4  C   UNL     1       1.522  -3.074   0.589  0.00  0.00    +0.007 A 
ATOM      5  C   UNL     1       0.807  -4.134   1.101  0.00  0.00    +0.000 A 
ATOM      6  C   UNL     1       1.453  -5.218   1.667  0.00  0.00    +0.002 A 
ATOM      7  C   UNL     1       2.836  -5.204   1.759  0.00  0.00    +0.027 A 
ATOM      8  C   UNL     1       3.538  -4.130   1.294  0.00  0.00    +0.094 A 
ATOM      9  S   UNL     1       5.262  -3.648   1.456  0.00  0.00    +0.008 S 
ATOM     10  O   UNL     1       5.947  -4.235   0.359  0.00  0.00    -0.169 OA
ATOM     11  O   UNL     1       5.629  -3.922   2.802  0.00  0.00    -0.169 OA
ATOM     12  C   UNL     1       4.997  -1.894   1.179  0.00  0.00    +0.213 C 
ATOM     13  C   UNL     1       5.809  -0.885   0.553  0.00  0.00    +0.095 C 
ATOM     14  N   UNL     1       4.953  -0.131  -0.145  0.00  0.00    -0.181 NA
ENDROOT
BRANCH  13  15
ATOM     15  C   UNL     1       7.271  -0.719   0.655  0.00  0.00    +0.018 A 
ATOM     16  C   UNL     1       8.025  -1.608   1.425  0.00  0.00    +0.012 A 
ATOM     17  C   UNL     1       9.392  -1.448   1.517  0.00  0.00    +0.021 A 
ATOM     18  C   UNL     1      10.018  -0.409   0.848  0.00  0.00    +0.042 A 
ATOM     19  C   UNL     1       9.277   0.476   0.083  0.00  0.00    +0.040 A 
ATOM     20  C   UNL     1       7.909   0.324  -0.022  0.00  0.00    +0.051 A 
ATOM     21 CL   UNL     1       6.982   1.430  -0.987  0.00  0.00    -0.083 Cl
ATOM     22 CL   UNL     1      11.738  -0.215   0.969  0.00  0.00    -0.083 Cl
ENDBRANCH  13  15
BRANCH   1  26
ATOM     23  C   UNL     1      -0.016   1.380   0.010  0.00  0.00    +0.000 A 
ATOM     24  C   UNL     1       0.997   1.760   0.871  0.00  0.00    +0.002 A 
ATOM     25  C   UNL     1       2.204   1.090   0.859  0.00  0.00    +0.025 A 
ATOM     26  C   UNL     1       2.400   0.032  -0.021  0.00  0.00    +0.052 A 
ATOM     27  C   UNL     1       1.379  -0.348  -0.885  0.00  0.00    +0.025 A 
ATOM     28  C   UNL     1       0.175   0.327  -0.867  0.00  0.00    +0.002 A 
ENDBRANCH   1  26
TORSDOF 2
