REMARK  Name = ZINC36643738
REMARK  12 active torsions:
REMARK  status: ('A' for Active; 'I' for Inactive)
REMARK    1  A    between atoms: C_1  and  C_2
REMARK    2  A    between atoms: C_4  and  C_37
REMARK    3  A    between atoms: N_11  and  C_12
REMARK    4  A    between atoms: C_12  and  C_13
REMARK    5  A    between atoms: C_13  and  C_14
REMARK    6  A    between atoms: C_14  and  N_15
REMARK    7  A    between atoms: N_15  and  C_16
REMARK    8  A    between atoms: N_15  and  C_17
REMARK    9  A    between atoms: C_18  and  C_20
REMARK   10  A    between atoms: C_23  and  S_26
REMARK   11  A    between atoms: S_26  and  N_29
REMARK   12  A    between atoms: C_33  and  C_36
REMARK                            x       y       z     vdW  Elec       q    Type
REMARK                         _______ _______ _______ _____ _____    ______ ____
ROOT
ATOM      1  C   UNL     1      -0.613   0.768  -0.827  0.00  0.00    +0.044 C 
ATOM      2  C   UNL     1      -0.548  -0.725  -0.634  0.00  0.00    -0.048 A 
ATOM      3  C   UNL     1      -0.753  -1.559  -1.724  0.00  0.00    +0.008 A 
ATOM      4  C   UNL     1      -0.695  -2.930  -1.548  0.00  0.00    -0.034 A 
ATOM      5  C   UNL     1      -0.434  -3.442  -0.302  0.00  0.00    +0.044 A 
ATOM      6  C   UNL     1      -0.220  -2.624   0.830  0.00  0.00    +0.081 A 
ATOM      7  C   UNL     1      -0.282  -1.228   0.612  0.00  0.00    +0.032 A 
ATOM      8  N   UNL     1       0.025  -3.278   1.986  0.00  0.00    -0.224 NA
ATOM      9  C   UNL     1       0.062  -4.588   2.062  0.00  0.00    +0.168 A 
ATOM     10  S   UNL     1      -0.270  -5.077   0.376  0.00  0.00    -0.052 S 
ATOM     11  N   UNL     1       0.299  -5.387   3.167  0.00  0.00    -0.246 N 
ATOM     12  C   UNL     1       0.297  -6.729   3.041  0.00  0.00    +0.252 C 
ATOM     13  O   UNL     1       0.161  -7.236   1.945  0.00  0.00    -0.270 OA
ATOM     14  C   UNL     1      -0.915  -3.854  -2.718  0.00  0.00    +0.045 C 
ENDROOT
BRANCH  12  15
ATOM     15  C   UNL     1       0.459  -7.584   4.236  0.00  0.00    +0.037 A 
ATOM     16  C   UNL     1      -0.168  -7.240   5.435  0.00  0.00    +0.015 A 
ATOM     17  C   UNL     1      -0.011  -8.042   6.546  0.00  0.00    +0.029 A 
ATOM     18  C   UNL     1       0.765  -9.185   6.474  0.00  0.00    +0.106 A 
ATOM     19  C   UNL     1       1.389  -9.532   5.289  0.00  0.00    +0.029 A 
ATOM     20  C   UNL     1       1.236  -8.742   4.169  0.00  0.00    +0.015 A 
BRANCH  18  21
ATOM     21  S   UNL     1       0.960 -10.203   7.899  0.00  0.00    +0.061 S 
ATOM     22  O   UNL     1       2.174 -10.920   7.723  0.00  0.00    -0.153 OA
ATOM     23  O   UNL     1       0.722  -9.373   9.027  0.00  0.00    -0.153 OA
BRANCH  21  24
ATOM     24  N   UNL     1      -0.259 -11.324   7.870  0.00  0.00    -0.176 NA
ATOM     25  C   UNL     1      -1.549 -11.043   8.514  0.00  0.00    +0.109 C 
ATOM     26  C   UNL     1      -1.873 -12.182   9.487  0.00  0.00    +0.017 C 
ATOM     27  C   UNL     1      -1.821 -13.516   8.739  0.00  0.00    +0.006 C 
ATOM     28  C   UNL     1      -0.411 -13.739   8.188  0.00  0.00    +0.002 C 
ATOM     29  C   UNL     1      -0.073 -12.616   7.196  0.00  0.00    +0.112 C 
ATOM     30  C   UNL     1      -0.351 -15.088   7.469  0.00  0.00    +0.009 C 
ENDBRANCH  21  24
ENDBRANCH  18  21
ENDBRANCH  12  15
BRANCH  11  31
ATOM     31  C   UNL     1       0.552  -4.775   4.474  0.00  0.00    +0.114 C 
BRANCH  31  32
ATOM     32  C   UNL     1      -0.757  -4.221   5.040  0.00  0.00    +0.001 C 
BRANCH  32  33
ATOM     33  C   UNL     1      -0.523  -3.718   6.466  0.00  0.00    -0.078 C 
BRANCH  33  34
ATOM     34  N   UNL     1      -1.780  -3.187   7.010  0.00  0.00    +0.376 N 
ATOM     35  C   UNL     1      -1.586  -2.814   8.418  0.00  0.00    -0.097 C 
ATOM     36  C   UNL     1      -2.185  -2.002   6.241  0.00  0.00    -0.097 C 
ATOM     37  H   UNL     1      -2.500  -3.892   6.945  0.00  0.00    -0.083 HD
ENDBRANCH  33  34
ENDBRANCH  32  33
ENDBRANCH  31  32
ENDBRANCH  11  31
TORSDOF 7
