REMARK  Name = ZINC31163642
REMARK  11 active torsions:
REMARK  status: ('A' for Active; 'I' for Inactive)
REMARK    1  A    between atoms: C_1  and  C_2
REMARK    2  A    between atoms: C_2  and  C_3
REMARK    3  A    between atoms: C_3  and  C_5
REMARK    4  A    between atoms: C_3  and  C_6
REMARK    5  A    between atoms: C_6  and  O_8
REMARK    6  A    between atoms: O_8  and  C_9
REMARK    7  A    between atoms: C_12  and  C_32
REMARK    8  A    between atoms: C_16  and  O_31
REMARK    9  A    between atoms: C_19  and  C_30
REMARK   10  A    between atoms: C_20  and  C_29
REMARK   11  A    between atoms: C_22  and  O_28
REMARK                            x       y       z     vdW  Elec       q    Type
REMARK                         _______ _______ _______ _____ _____    ______ ____
ROOT
ATOM      1  C   UNL     1      -1.553  -0.363  -0.222  0.00  0.00    +0.218 C 
ATOM      2  C   UNL     1      -2.257   0.057   1.041  0.00  0.00    +0.051 C 
ATOM      3  C   UNL     1      -3.401   0.695   1.196  0.00  0.00    +0.042 C 
ATOM      4  C   UNL     1      -3.611   0.974   2.623  0.00  0.00    +0.338 C 
ATOM      5  O   UNL     1      -4.588   1.526   3.089  0.00  0.00    -0.245 OA
ATOM      6  O   UNL     1      -2.559   0.527   3.338  0.00  0.00    -0.425 OA
ATOM      7  C   UNL     1      -1.666  -0.157   2.423  0.00  0.00    +0.243 C 
ATOM      8  C   UNL     1      -0.275   0.480   2.410  0.00  0.00    +0.122 C 
ATOM      9  C   UNL     1       0.504  -0.052   1.193  0.00  0.00    +0.112 C 
ATOM     10  C   UNL     1      -0.119   0.199  -0.174  0.00  0.00    +0.046 C 
ATOM     11  C   UNL     1       0.678  -0.491  -1.271  0.00  0.00    +0.027 C 
ATOM     12  C   UNL     1       0.910  -1.949  -0.982  0.00  0.00    +0.121 C 
ATOM     13  C   UNL     1       1.772  -2.179   0.241  0.00  0.00    +0.066 C 
ATOM     14  C   UNL     1       1.402  -1.259   1.395  0.00  0.00    +0.154 C 
ATOM     15  O   UNL     1       1.930   0.075   1.305  0.00  0.00    -0.364 OA
ATOM     16  C   UNL     1       2.036   0.201  -1.409  0.00  0.00    +0.011 C 
ATOM     17  C   UNL     1      -0.156   1.704  -0.446  0.00  0.00    +0.018 C 
ATOM     18  C   UNL     1      -4.345   1.077   0.085  0.00  0.00    +0.051 C 
ENDROOT
BRANCH  12  19
ATOM     19  O   UNL     1       1.545  -2.548  -2.114  0.00  0.00    -0.391 OA
ATOM     20  H   UNL     1       1.800  -3.618  -2.098  0.00  0.00    +0.210 HD
ENDBRANCH  12  19
BRANCH   7  21
ATOM     21  O   UNL     1      -1.582  -1.548   2.742  0.00  0.00    -0.352 OA
ATOM     22  H   UNL     1      -1.173  -1.866   3.712  0.00  0.00    +0.214 HD
ENDBRANCH   7  21
BRANCH   1  23
ATOM     23  O   UNL     1      -2.248   0.164  -1.383  0.00  0.00    -0.456 OA
BRANCH  23  24
ATOM     24  C   UNL     1      -3.193  -0.615  -1.932  0.00  0.00    +0.311 C 
ATOM     25  O   UNL     1      -3.432  -1.701  -1.459  0.00  0.00    -0.251 OA
BRANCH  24  26
ATOM     26  C   UNL     1      -3.958  -0.135  -3.139  0.00  0.00    +0.094 C 
ATOM     27  C   UNL     1      -4.699   1.157  -2.793  0.00  0.00    +0.019 C 
BRANCH  26  29
ATOM     28  C   UNL     1      -5.654  -0.772  -4.859  0.00  0.00    +0.004 C 
ATOM     29  C   UNL     1      -4.967  -1.204  -3.562  0.00  0.00    +0.011 C 
ENDBRANCH  26  29
ENDBRANCH  24  26
ENDBRANCH  23  24
ENDBRANCH   1  23
TORSDOF 6
