REMARK  Name = ZINC39488215
REMARK  10 active torsions:
REMARK  status: ('A' for Active; 'I' for Inactive)
REMARK    1  A    between atoms: C_1  and  C_2
REMARK    2  A    between atoms: C_2  and  C_3
REMARK    3  A    between atoms: C_2  and  S_4
REMARK    4  A    between atoms: S_4  and  N_7
REMARK    5  A    between atoms: C_9  and  C_27
REMARK    6  A    between atoms: C_9  and  C_28
REMARK    7  A    between atoms: N_10  and  C_13
REMARK    8  A    between atoms: C_13  and  C_14
REMARK    9  A    between atoms: C_14  and  C_21
REMARK   10  A    between atoms: C_33  and  O_34
REMARK                            x       y       z     vdW  Elec       q    Type
REMARK                         _______ _______ _______ _____ _____    ______ ____
ROOT
ATOM      1  N   UNL     1      -2.023  -2.326   0.618  0.00  0.00    -0.157 N 
ATOM      2  C   UNL     1      -2.294  -3.081  -0.614  0.00  0.00    +0.166 C 
ATOM      3  C   UNL     1      -2.160  -4.554  -0.182  0.00  0.00    +0.082 C 
ATOM      4  N   UNL     1      -1.828  -4.472   1.248  0.00  0.00    -0.273 N 
ATOM      5  C   UNL     1      -1.765  -3.185   1.613  0.00  0.00    +0.325 C 
ATOM      6  O   UNL     1      -1.502  -2.828   2.745  0.00  0.00    -0.251 OA
ATOM      7  C   UNL     1      -3.484  -5.295  -0.384  0.00  0.00    +0.039 C 
ENDROOT
BRANCH   3   8
ATOM      8  C   UNL     1      -1.051  -5.231  -0.945  0.00  0.00    +0.019 A 
ATOM      9  C   UNL     1       0.075  -5.674  -0.279  0.00  0.00    +0.009 A 
ATOM     10  C   UNL     1       1.093  -6.295  -0.979  0.00  0.00    +0.001 A 
ATOM     11  C   UNL     1       0.987  -6.474  -2.346  0.00  0.00    +0.004 A 
ATOM     12  C   UNL     1      -0.137  -6.032  -3.016  0.00  0.00    +0.046 A 
ATOM     13  C   UNL     1      -1.163  -5.414  -2.315  0.00  0.00    +0.122 A 
BRANCH  13  14
ATOM     14  O   UNL     1      -2.273  -4.984  -2.971  0.00  0.00    -0.506 OA
ATOM     15  H   UNL     1      -2.210  -4.076  -3.297  0.00  0.00    +0.292 HD
ENDBRANCH  13  14
ENDBRANCH   3   8
BRANCH   1  16
ATOM     16  S   UNL     1      -2.028  -0.675   0.753  0.00  0.00    +0.051 S 
ATOM     17  O   UNL     1      -2.211  -0.425   2.140  0.00  0.00    -0.155 OA
ATOM     18  O   UNL     1      -2.991  -0.237  -0.196  0.00  0.00    -0.155 OA
BRANCH  16  20
ATOM     19  C   UNL     1      -0.293   1.367   0.205  0.00  0.00    +0.033 C 
ATOM     20  C   UNL     1      -0.366  -0.161   0.239  0.00  0.00    +0.145 C 
ATOM     21  C   UNL     1       0.665  -0.699   1.234  0.00  0.00    +0.033 C 
ENDBRANCH  16  20
ENDBRANCH   1  16
BRANCH   4  22
ATOM     22  C   UNL     1      -1.596  -5.617   2.133  0.00  0.00    +0.117 C 
BRANCH  22  23
ATOM     23  C   UNL     1      -2.803  -5.801   3.055  0.00  0.00    -0.008 C 
ATOM     24  C   UNL     1      -2.481  -6.861   4.113  0.00  0.00    +0.027 C 
ATOM     25  C   UNL     1      -2.216  -8.200   3.421  0.00  0.00    +0.120 C 
ATOM     26  N   UNL     1      -3.400  -8.597   2.649  0.00  0.00    -0.145 NA
ATOM     27  C   UNL     1      -3.700  -7.618   1.597  0.00  0.00    +0.120 C 
ATOM     28  C   UNL     1      -4.010  -6.261   2.234  0.00  0.00    +0.027 C 
ATOM     29  F   UNL     1      -3.253  -9.788   2.149  0.00  0.00    -0.133 F 
BRANCH  23  30
ATOM     30  C   UNL     1      -3.128  -4.474   3.743  0.00  0.00    -0.003 C 
ATOM     31  C   UNL     1      -2.017  -4.129   4.737  0.00  0.00    +0.004 C 
ATOM     32  C   UNL     1      -2.342  -2.801   5.425  0.00  0.00    +0.000 C 
ATOM     33  C   UNL     1      -3.673  -2.925   6.170  0.00  0.00    +0.000 C 
ATOM     34  C   UNL     1      -4.784  -3.270   5.175  0.00  0.00    +0.000 C 
ATOM     35  C   UNL     1      -4.459  -4.598   4.488  0.00  0.00    +0.004 C 
ENDBRANCH  23  30
ENDBRANCH  22  23
ENDBRANCH   4  22
TORSDOF 7
