REMARK  Name = ZINC38654862
REMARK  11 active torsions:
REMARK  status: ('A' for Active; 'I' for Inactive)
REMARK    1  A    between atoms: C_1  and  C_2
REMARK    2  A    between atoms: C_4  and  O_10
REMARK    3  A    between atoms: C_6  and  C_9
REMARK    4  A    between atoms: O_10  and  C_11
REMARK    5  A    between atoms: C_11  and  C_12
REMARK    6  A    between atoms: C_12  and  O_14
REMARK    7  A    between atoms: O_14  and  C_15
REMARK    8  A    between atoms: C_22  and  N_37
REMARK    9  A    between atoms: C_23  and  C_35
REMARK   10  A    between atoms: C_24  and  C_26
REMARK   11  A    between atoms: C_29  and  N_32
REMARK                            x       y       z     vdW  Elec       q    Type
REMARK                         _______ _______ _______ _____ _____    ______ ____
ROOT
ATOM      1  C   UNL     1       0.034  -6.638  -5.131  0.00  0.00    +0.135 A 
ATOM      2  C   UNL     1       0.060  -5.833  -6.261  0.00  0.00    +0.047 A 
ATOM      3  C   UNL     1       0.027  -6.405  -7.517  0.00  0.00    +0.012 A 
ATOM      4  C   UNL     1      -0.032  -7.781  -7.656  0.00  0.00    +0.008 A 
ATOM      5  C   UNL     1      -0.058  -8.590  -6.531  0.00  0.00    +0.138 A 
ATOM      6  C   UNL     1      -0.019  -8.016  -5.266  0.00  0.00    +0.093 A 
ATOM      7  O   UNL     1      -0.116  -9.940  -6.646  0.00  0.00    -0.441 OA
ATOM      8  C   UNL     1       0.233 -10.529  -7.801  0.00  0.00    +0.199 C 
ATOM      9  C   UNL     1       0.275  -9.847  -8.970  0.00  0.00    +0.098 C 
ATOM     10  C   UNL     1      -0.069  -8.385  -9.034  0.00  0.00    +0.098 C 
ENDROOT
BRANCH  10  11
ATOM     11  C   UNL     1      -1.450  -8.222  -9.614  0.00  0.00    -0.035 A 
ATOM     12  C   UNL     1      -2.540  -8.777  -8.970  0.00  0.00    +0.007 A 
ATOM     13  C   UNL     1      -3.807  -8.628  -9.503  0.00  0.00    +0.033 A 
ATOM     14  C   UNL     1      -3.984  -7.923 -10.679  0.00  0.00    +0.126 A 
ATOM     15  C   UNL     1      -2.894  -7.367 -11.322  0.00  0.00    +0.033 A 
ATOM     16  C   UNL     1      -1.628  -7.513 -10.788  0.00  0.00    +0.007 A 
BRANCH  14  17
ATOM     17  N   UNL     1      -5.341  -7.764 -11.249  0.00  0.00    +0.056 N 
ATOM     18  O   UNL     1      -6.294  -8.250 -10.687  0.00  0.00    -0.126 OA
ATOM     19  O   UNL     1      -5.495  -7.147 -12.278  0.00  0.00    -0.126 OA
ENDBRANCH  14  17
ENDBRANCH  10  11
BRANCH   8  20
ATOM     20  N   UNL     1       0.556 -11.863  -7.797  0.00  0.00    -0.328 N 
ATOM     21  H   UNL     1       0.530 -12.366  -6.968  0.00  0.00    +0.145 HD
ATOM     22  H   UNL     1       0.810 -12.303  -8.623  0.00  0.00    +0.145 HD
ENDBRANCH   8  20
BRANCH   9  23
ATOM     23  C   UNL     1       0.656 -10.531 -10.169  0.00  0.00    +0.101 C 
ATOM     24  N   UNL     1       0.958 -11.074 -11.120  0.00  0.00    -0.191 NA
ENDBRANCH   9  23
BRANCH   1  25
ATOM     25  O   UNL     1       0.067  -6.077  -3.894  0.00  0.00    -0.423 OA
BRANCH  25  26
ATOM     26  C   UNL     1      -1.064  -5.529  -3.421  0.00  0.00    +0.350 C 
ATOM     27  O   UNL     1      -2.045  -5.465  -4.124  0.00  0.00    -0.247 OA
BRANCH  26  28
ATOM     28  C   UNL     1      -1.110  -4.993  -2.013  0.00  0.00    +0.349 C 
BRANCH  28  29
ATOM     29  O   UNL     1      -2.411  -4.465  -1.746  0.00  0.00    -0.481 OA
BRANCH  29  33
ATOM     30  C   UNL     1      -5.421  -2.299   1.427  0.00  0.00    +0.045 C 
ATOM     31  C   UNL     1      -4.074  -2.875   1.072  0.00  0.00    -0.028 A 
ATOM     32  C   UNL     1      -3.862  -3.409  -0.184  0.00  0.00    +0.050 A 
ATOM     33  C   UNL     1      -2.622  -3.939  -0.511  0.00  0.00    +0.122 A 
ATOM     34  C   UNL     1      -1.598  -3.932   0.425  0.00  0.00    +0.050 A 
ATOM     35  C   UNL     1      -1.815  -3.397   1.680  0.00  0.00    -0.028 A 
ATOM     36  C   UNL     1      -3.050  -2.864   2.002  0.00  0.00    +0.047 A 
ATOM     37 CL   UNL     1      -3.318  -2.186   3.578  0.00  0.00    -0.083 Cl
ATOM     38  C   UNL     1      -0.703  -3.388   2.697  0.00  0.00    +0.045 C 
ENDBRANCH  29  33
ENDBRANCH  28  29
ENDBRANCH  26  28
ENDBRANCH  25  26
ENDBRANCH   1  25
TORSDOF 9
