REMARK  Name = ZINC04993091
REMARK  7 active torsions:
REMARK  status: ('A' for Active; 'I' for Inactive)
REMARK    1  A    between atoms: C_1  and  C_2
REMARK    2  A    between atoms: C_2  and  O_3
REMARK    3  A    between atoms: O_3  and  C_4
REMARK    4  A    between atoms: C_7  and  C_10
REMARK    5  A    between atoms: C_13  and  C_24
REMARK    6  A    between atoms: C_19  and  N_23
REMARK    7  A    between atoms: C_20  and  C_21
REMARK                            x       y       z     vdW  Elec       q    Type
REMARK                         _______ _______ _______ _____ _____    ______ ____
ROOT
ATOM      1  C   UNL     1      -1.960  -6.215  -0.004  0.00  0.00    +0.102 C 
ATOM      2  C   UNL     1      -2.868  -6.548  -1.159  0.00  0.00    +0.054 A 
ATOM      3  C   UNL     1      -2.604  -6.513  -2.531  0.00  0.00    +0.100 A 
ATOM      4  N   UNL     1      -3.699  -6.885  -3.166  0.00  0.00    -0.171 NA
ATOM      5  N   UNL     1      -4.688  -7.168  -2.211  0.00  0.00    -0.246 N 
ATOM      6  H   UNL     1      -5.593  -7.464  -2.398  0.00  0.00    +0.192 HD
ATOM      7  C   UNL     1      -4.159  -6.956  -0.988  0.00  0.00    +0.223 A 
ATOM      8  O   UNL     1      -4.727  -7.097   0.236  0.00  0.00    -0.423 OA
ATOM      9  C   UNL     1      -3.909  -7.090   1.308  0.00  0.00    +0.200 C 
ATOM     10  C   UNL     1      -2.616  -6.696   1.267  0.00  0.00    +0.098 C 
ENDROOT
BRANCH   1  14
ATOM     11  C   UNL     1      -1.365  -1.988   0.191  0.00  0.00    +0.121 A 
ATOM     12  C   UNL     1      -0.274  -2.840   0.099  0.00  0.00    +0.046 A 
ATOM     13  C   UNL     1      -0.469  -4.206   0.036  0.00  0.00    +0.008 A 
ATOM     14  C   UNL     1      -1.750  -4.725   0.065  0.00  0.00    -0.034 A 
ATOM     15  C   UNL     1      -2.839  -3.878   0.157  0.00  0.00    +0.008 A 
ATOM     16  C   UNL     1      -2.650  -2.511   0.226  0.00  0.00    +0.046 A 
BRANCH  11  17
ATOM     17  O   UNL     1      -1.176  -0.644   0.253  0.00  0.00    -0.492 OA
BRANCH  17  19
ATOM     18  C   UNL     1       0.186   1.352   0.293  0.00  0.00    +0.048 C 
ATOM     19  C   UNL     1       0.173  -0.176   0.213  0.00  0.00    +0.225 C 
ENDBRANCH  17  19
ENDBRANCH  11  17
ENDBRANCH   1  14
BRANCH   3  20
ATOM     20  C   UNL     1      -1.318  -6.123  -3.163  0.00  0.00    +0.003 A 
ATOM     21  C   UNL     1      -1.313  -5.308  -4.293  0.00  0.00    +0.010 A 
ATOM     22  C   UNL     1      -0.115  -4.949  -4.876  0.00  0.00    +0.001 A 
ATOM     23  C   UNL     1       1.079  -5.397  -4.341  0.00  0.00    +0.000 A 
ATOM     24  C   UNL     1       1.080  -6.206  -3.220  0.00  0.00    +0.001 A 
ATOM     25  C   UNL     1      -0.112  -6.566  -2.624  0.00  0.00    +0.010 A 
ENDBRANCH   3  20
BRANCH   9  26
ATOM     26  N   UNL     1      -4.419  -7.506   2.513  0.00  0.00    -0.328 N 
ATOM     27  H   UNL     1      -5.343  -7.795   2.575  0.00  0.00    +0.145 HD
ATOM     28  H   UNL     1      -3.855  -7.512   3.302  0.00  0.00    +0.145 HD
ENDBRANCH   9  26
BRANCH  10  29
ATOM     29  C   UNL     1      -1.842  -6.737   2.471  0.00  0.00    +0.101 C 
ATOM     30  N   UNL     1      -1.228  -6.768   3.426  0.00  0.00    -0.191 NA
ENDBRANCH  10  29
TORSDOF 6
