REMARK  Name = ZINC43410668
REMARK  4 active torsions:
REMARK  status: ('A' for Active; 'I' for Inactive)
REMARK    1  A    between atoms: C_5  and  O_11
REMARK    2  A    between atoms: C_6  and  C_7
REMARK    3  A    between atoms: N_8  and  O_9
REMARK    4  A    between atoms: O_11  and  C_12
REMARK                            x       y       z     vdW  Elec       q    Type
REMARK                         _______ _______ _______ _____ _____    ______ ____
ROOT
ATOM      1  C   UNL     1      -0.024   1.391   0.148  0.00  0.00    +0.022 A 
ATOM      2  C   UNL     1       1.180   2.085   0.141  0.00  0.00    -0.025 A 
ATOM      3  C   UNL     1       2.361   1.391   0.003  0.00  0.00    +0.048 A 
ATOM      4  N   UNL     1       2.351   0.069  -0.132  0.00  0.00    -0.217 NA
ATOM      5  C   UNL     1       1.238  -0.635  -0.133  0.00  0.00    +0.226 A 
ATOM      6  C   UNL     1      -0.002   0.003   0.009  0.00  0.00    +0.079 A 
ATOM      7  C   UNL     1       3.704   2.077   0.005  0.00  0.00    +0.056 C 
ATOM      8  C   UNL     1       3.545   3.570  -0.272  0.00  0.00    +0.006 C 
ATOM      9  C   UNL     1       2.493   4.132   0.691  0.00  0.00    +0.005 C 
ATOM     10  C   UNL     1       1.127   3.583   0.285  0.00  0.00    +0.037 C 
ENDROOT
BRANCH   6  11
ATOM     11  C   UNL     1      -1.258  -0.777   0.013  0.00  0.00    +0.168 C 
ATOM     12  N   UNL     1      -2.202  -0.496  -0.839  0.00  0.00    -0.071 NA
ATOM     13  N   UNL     1      -1.431  -1.808   0.921  0.00  0.00    -0.340 N 
ATOM     14  H   UNL     1      -0.728  -2.018   1.556  0.00  0.00    +0.144 HD
ATOM     15  H   UNL     1      -2.255  -2.320   0.924  0.00  0.00    +0.144 HD
BRANCH  12  16
ATOM     16  O   UNL     1      -1.982   0.479  -1.842  0.00  0.00    -0.408 OA
ATOM     17  H   UNL     1      -2.740   0.619  -2.426  0.00  0.00    +0.328 HD
ENDBRANCH  12  16
ENDBRANCH   6  11
BRANCH   5  18
ATOM     18  O   UNL     1       1.291  -1.982  -0.274  0.00  0.00    -0.473 OA
BRANCH  18  19
ATOM     19  C   UNL     1       2.587  -2.569  -0.414  0.00  0.00    +0.175 C 
ATOM     20  C   UNL     1       2.959  -2.633  -1.897  0.00  0.00    +0.044 C 
ATOM     21  C   UNL     1       4.346  -3.261  -2.048  0.00  0.00    +0.004 C 
ATOM     22  C   UNL     1       4.332  -4.675  -1.464  0.00  0.00    +0.000 C 
ATOM     23  C   UNL     1       3.960  -4.611   0.018  0.00  0.00    +0.004 C 
ATOM     24  C   UNL     1       2.573  -3.983   0.169  0.00  0.00    +0.044 C 
ENDBRANCH  18  19
ENDBRANCH   5  18
TORSDOF 4
