REMARK  Name = ZINC49065795
REMARK  6 active torsions:
REMARK  status: ('A' for Active; 'I' for Inactive)
REMARK    1  A    between atoms: C_1  and  C_2
REMARK    2  A    between atoms: C_2  and  C_3
REMARK    3  A    between atoms: C_3  and  C_4
REMARK    4  A    between atoms: C_4  and  C_20
REMARK    5  A    between atoms: N_7  and  C_11
REMARK    6  A    between atoms: C_11  and  C_12
REMARK                            x       y       z     vdW  Elec       q    Type
REMARK                         _______ _______ _______ _____ _____    ______ ____
ROOT
ATOM      1  C   UNL     1      -1.477  -2.033   0.053  0.00  0.00    +0.110 C 
ATOM      2  C   UNL     1      -2.865  -2.583  -0.207  0.00  0.00    +0.247 C 
ATOM      3  O   UNL     1      -3.861  -2.406   0.462  0.00  0.00    -0.273 OA
ATOM      4  N   UNL     1      -2.764  -3.308  -1.339  0.00  0.00    -0.220 N 
ATOM      5  C   UNL     1      -1.517  -3.293  -1.824  0.00  0.00    +0.310 C 
ATOM      6  O   UNL     1      -1.179  -3.875  -2.836  0.00  0.00    -0.252 OA
ATOM      7  N   UNL     1      -0.679  -2.562  -1.067  0.00  0.00    -0.285 N 
ATOM      8  C   UNL     1      -0.934  -2.544   1.389  0.00  0.00    +0.041 C 
ATOM      9  H   UNL     1       0.265  -2.412  -1.227  0.00  0.00    +0.151 HD
ENDROOT
BRANCH   1  10
ATOM     10  C   UNL     1      -1.491  -0.503   0.029  0.00  0.00    +0.035 C 
BRANCH  10  12
ATOM     11  C   UNL     1      -0.067   1.550   0.037  0.00  0.00    +0.004 C 
ATOM     12  C   UNL     1      -0.053   0.020   0.060  0.00  0.00    -0.001 C 
ENDBRANCH  10  12
ENDBRANCH   1  10
BRANCH   4  13
ATOM     13  C   UNL     1      -3.880  -4.025  -1.960  0.00  0.00    +0.154 C 
BRANCH  13  14
ATOM     14  C   UNL     1      -3.852  -5.469  -1.529  0.00  0.00    -0.011 A 
ATOM     15  C   UNL     1      -3.253  -6.419  -2.335  0.00  0.00    +0.008 A 
ATOM     16  C   UNL     1      -3.227  -7.743  -1.940  0.00  0.00    +0.020 A 
ATOM     17  C   UNL     1      -3.800  -8.118  -0.737  0.00  0.00    +0.042 A 
ATOM     18  C   UNL     1      -4.399  -7.168   0.070  0.00  0.00    +0.040 A 
ATOM     19  C   UNL     1      -4.420  -5.842  -0.324  0.00  0.00    +0.047 A 
ATOM     20 CL   UNL     1      -5.166  -4.647   0.691  0.00  0.00    -0.083 Cl
ATOM     21 CL   UNL     1      -3.768  -9.782  -0.242  0.00  0.00    -0.083 Cl
ENDBRANCH  13  14
ENDBRANCH   4  13
TORSDOF 4
