REMARK  Name = ZINC36313373
REMARK  11 active torsions:
REMARK  status: ('A' for Active; 'I' for Inactive)
REMARK    1  A    between atoms: C_4  and  O_7
REMARK    2  A    between atoms: O_7  and  C_8
REMARK    3  A    between atoms: C_8  and  C_9
REMARK    4  A    between atoms: C_9  and  C_11
REMARK    5  A    between atoms: C_9  and  O_35
REMARK    6  A    between atoms: C_11  and  N_12
REMARK    7  A    between atoms: N_12  and  C_13
REMARK    8  A    between atoms: N_12  and  C_32
REMARK    9  A    between atoms: C_13  and  C_14
REMARK   10  A    between atoms: C_15  and  C_25
REMARK   11  A    between atoms: C_18  and  N_19
REMARK                            x       y       z     vdW  Elec       q    Type
REMARK                         _______ _______ _______ _____ _____    ______ ____
ROOT
ATOM      1  C   UNL     1       6.395  -6.157  -0.268  0.00  0.00    -0.035 C 
ENDROOT
BRANCH   1   2
ATOM      2  C   UNL     1       7.877  -6.315  -0.043  0.00  0.00    +0.025 A 
ATOM      3  C   UNL     1       8.583  -5.943   1.121  0.00  0.00    +0.119 A 
ATOM      4  N   UNL     1       9.850  -6.237   0.936  0.00  0.00    -0.076 NA
ATOM      5  O   UNL     1       9.984  -6.806  -0.354  0.00  0.00    -0.339 OA
ATOM      6  C   UNL     1       8.766  -6.844  -0.921  0.00  0.00    +0.222 A 
BRANCH   3   7
ATOM      7  C   UNL     1       7.998  -5.328   2.338  0.00  0.00    +0.039 A 
ATOM      8  C   UNL     1       6.623  -5.121   2.425  0.00  0.00    +0.013 A 
ATOM      9  C   UNL     1       6.085  -4.549   3.560  0.00  0.00    +0.001 A 
ATOM     10  C   UNL     1       6.906  -4.181   4.610  0.00  0.00    +0.003 A 
ATOM     11  C   UNL     1       8.271  -4.382   4.531  0.00  0.00    +0.039 A 
ATOM     12  C   UNL     1       8.822  -4.960   3.402  0.00  0.00    +0.133 A 
ATOM     13  F   UNL     1      10.156  -5.162   3.327  0.00  0.00    -0.205 F 
ENDBRANCH   3   7
BRANCH   6  14
ATOM     14  N   UNL     1       8.471  -7.334  -2.180  0.00  0.00    -0.295 N 
ATOM     15  C   UNL     1       8.629  -6.493  -3.377  0.00  0.00    +0.136 C 
ATOM     16  C   UNL     1       9.452  -7.271  -4.410  0.00  0.00    +0.179 C 
ATOM     17  O   UNL     1       8.859  -8.556  -4.611  0.00  0.00    -0.377 OA
ATOM     18  C   UNL     1       8.843  -9.383  -3.445  0.00  0.00    +0.179 C 
ATOM     19  C   UNL     1       7.995  -8.714  -2.363  0.00  0.00    +0.136 C 
ENDBRANCH   6  14
ENDBRANCH   1   2
BRANCH   1  20
ATOM     20  N   UNL     1       6.084  -4.742  -0.506  0.00  0.00    +0.386 N 
ATOM     21  H   UNL     1       6.436  -4.187   0.260  0.00  0.00    -0.081 HD
BRANCH  20  22
ATOM     22  C   UNL     1       6.716  -4.305  -1.758  0.00  0.00    -0.068 C 
ATOM     23  C   UNL     1       8.009  -3.494  -1.652  0.00  0.00    -0.017 C 
ATOM     24  C   UNL     1       6.708  -2.807  -2.068  0.00  0.00    -0.017 C 
ENDBRANCH  20  22
BRANCH  20  25
ATOM     25  C   UNL     1       4.628  -4.570  -0.606  0.00  0.00    -0.043 C 
BRANCH  25  26
ATOM     26  C   UNL     1       4.295  -3.080  -0.699  0.00  0.00    +0.135 C 
BRANCH  26  27
ATOM     27  O   UNL     1       4.901  -2.387   0.395  0.00  0.00    -0.390 OA
ATOM     28  H   UNL     1       4.607  -2.691   1.264  0.00  0.00    +0.210 HD
ENDBRANCH  26  27
BRANCH  26  29
ATOM     29  C   UNL     1       2.778  -2.892  -0.644  0.00  0.00    +0.258 C 
BRANCH  29  30
ATOM     30  O   UNL     1       2.461  -1.514  -0.848  0.00  0.00    -0.489 OA
BRANCH  30  34
ATOM     31  C   UNL     1      -1.533  -0.482  -0.791  0.00  0.00    +0.000 A 
ATOM     32  C   UNL     1      -0.572   0.490  -1.000  0.00  0.00    +0.004 A 
ATOM     33  C   UNL     1       0.766   0.147  -1.020  0.00  0.00    +0.045 A 
ATOM     34  C   UNL     1       1.145  -1.174  -0.829  0.00  0.00    +0.121 A 
ATOM     35  C   UNL     1       0.179  -2.147  -0.619  0.00  0.00    +0.045 A 
ATOM     36  C   UNL     1      -1.157  -1.799  -0.601  0.00  0.00    +0.004 A 
ENDBRANCH  30  34
ENDBRANCH  29  30
ENDBRANCH  26  29
ENDBRANCH  25  26
ENDBRANCH  20  25
ENDBRANCH   1  20
TORSDOF 11
