REMARK  Name = ZINC63362908
REMARK  9 active torsions:
REMARK  status: ('A' for Active; 'I' for Inactive)
REMARK    1  A    between atoms: C_1  and  O_2
REMARK    2  A    between atoms: O_2  and  C_3
REMARK    3  A    between atoms: C_6  and  C_20
REMARK    4  A    between atoms: C_8  and  C_9
REMARK    5  A    between atoms: C_9  and  S_10
REMARK    6  A    between atoms: S_10  and  C_11
REMARK    7  A    between atoms: C_33  and  C_36
REMARK    8  A    between atoms: C_36  and  O_38
REMARK    9  A    between atoms: O_38  and  C_39
REMARK                            x       y       z     vdW  Elec       q    Type
REMARK                         _______ _______ _______ _____ _____    ______ ____
ROOT
ATOM      1  C   UNL     1      -1.214  -0.712   0.213  0.00  0.00    +0.124 A 
ATOM      2  C   UNL     1      -2.380   0.040   0.189  0.00  0.00    +0.046 A 
ATOM      3  C   UNL     1      -3.607  -0.592   0.154  0.00  0.00    +0.009 A 
ATOM      4  C   UNL     1      -3.675  -1.974   0.142  0.00  0.00    -0.028 A 
ATOM      5  C   UNL     1      -2.515  -2.725   0.166  0.00  0.00    +0.013 A 
ATOM      6  C   UNL     1      -1.284  -2.097   0.196  0.00  0.00    +0.005 A 
ENDROOT
BRANCH   4   7
ATOM      7  C   UNL     1      -5.016  -2.661   0.104  0.00  0.00    +0.111 C 
ATOM      8  C   UNL     1      -5.630  -2.671   1.506  0.00  0.00    +0.128 C 
ATOM      9  C   UNL     1      -7.042  -3.223   1.348  0.00  0.00    -0.035 C 
ATOM     10  C   UNL     1      -7.145  -4.240   2.193  0.00  0.00    -0.001 A 
ATOM     11  C   UNL     1      -8.279  -5.105   2.555  0.00  0.00    +0.010 A 
ATOM     12  C   UNL     1      -8.022  -6.080   3.467  0.00  0.00    +0.001 A 
ATOM     13  C   UNL     1      -6.766  -6.278   4.048  0.00  0.00    +0.002 A 
ATOM     14  C   UNL     1      -5.669  -5.526   3.779  0.00  0.00    +0.026 A 
ATOM     15  C   UNL     1      -5.815  -4.466   2.838  0.00  0.00    +0.043 A 
ATOM     16  N   UNL     1      -4.934  -3.578   2.418  0.00  0.00    -0.376 N 
ATOM     17  C   UNL     1      -7.995  -2.677   0.312  0.00  0.00    +0.063 C 
ATOM     18  C   UNL     1      -7.202  -2.611  -1.007  0.00  0.00    +0.168 C 
ATOM     19  N   UNL     1      -5.923  -1.928  -0.794  0.00  0.00    -0.295 NA
ATOM     20  H   UNL     1      -6.067  -0.984  -0.470  0.00  0.00    +0.123 HD
ATOM     21  H   UNL     1      -3.996  -3.530   2.660  0.00  0.00    +0.160 HD
BRANCH  18  22
ATOM     22  C   UNL     1      -6.941  -4.009  -1.504  0.00  0.00    +0.324 C 
ATOM     23  O   UNL     1      -5.815  -4.355  -1.772  0.00  0.00    -0.249 OA
BRANCH  22  24
ATOM     24  O   UNL     1      -7.960  -4.871  -1.650  0.00  0.00    -0.467 OA
ATOM     25  C   UNL     1      -7.641  -6.180  -2.126  0.00  0.00    +0.280 C 
ENDBRANCH  22  24
ENDBRANCH  18  22
ENDBRANCH   4   7
BRANCH   1  27
ATOM     26  C   UNL     1      -0.009   1.336   0.263  0.00  0.00    +0.277 C 
ATOM     27  O   UNL     1      -0.005  -0.092   0.247  0.00  0.00    -0.495 OA
ENDBRANCH   1  27
BRANCH   6  28
ATOM     28  C   UNL     1      -0.020  -2.917   0.215  0.00  0.00    +0.115 C 
BRANCH  28  29
ATOM     29  S   UNL     1       0.448  -3.265   1.933  0.00  0.00    -0.094 S 
BRANCH  29  30
ATOM     30  C   UNL     1       1.924  -4.217   1.788  0.00  0.00    +0.136 A 
ATOM     31  N   UNL     1       2.558  -4.593   0.700  0.00  0.00    -0.233 NA
ATOM     32  C   UNL     1       3.691  -5.329   0.739  0.00  0.00    +0.079 A 
ATOM     33  C   UNL     1       4.466  -5.796  -0.347  0.00  0.00    +0.029 A 
ATOM     34  C   UNL     1       5.598  -6.538  -0.132  0.00  0.00    +0.002 A 
ATOM     35  C   UNL     1       6.024  -6.856   1.150  0.00  0.00    +0.001 A 
ATOM     36  C   UNL     1       5.290  -6.415   2.236  0.00  0.00    +0.017 A 
ATOM     37  C   UNL     1       4.155  -5.671   2.030  0.00  0.00    +0.040 A 
ATOM     38  S   UNL     1       2.942  -4.911   3.083  0.00  0.00    -0.061 S 
ENDBRANCH  29  30
ENDBRANCH  28  29
ENDBRANCH   6  28
TORSDOF 7
