REMARK  Name = ZINC12456446
REMARK  8 active torsions:
REMARK  status: ('A' for Active; 'I' for Inactive)
REMARK    1  A    between atoms: C_1  and  C_2
REMARK    2  A    between atoms: C_10  and  C_13
REMARK    3  A    between atoms: C_11  and  C_12
REMARK    4  A    between atoms: C_13  and  N_60
REMARK    5  A    between atoms: C_16  and  C_19
REMARK    6  A    between atoms: C_16  and  O_31
REMARK    7  A    between atoms: C_19  and  C_20
REMARK    8  A    between atoms: C_22  and  C_25
REMARK                            x       y       z     vdW  Elec       q    Type
REMARK                         _______ _______ _______ _____ _____    ______ ____
ROOT
ATOM      1  C   UNL     1      -4.483  -5.908   2.921  0.00  0.00    -0.076 C 
ATOM      2  C   UNL     1      -4.294  -5.317   1.522  0.00  0.00    +0.016 C 
ATOM      3  C   UNL     1      -3.729  -3.899   1.644  0.00  0.00    +0.070 C 
ATOM      4  C   UNL     1      -2.410  -3.947   2.420  0.00  0.00    +0.016 C 
ATOM      5  C   UNL     1      -2.654  -4.579   3.792  0.00  0.00    -0.076 C 
ATOM      6  N   UNL     1      -3.173  -5.950   3.605  0.00  0.00    +0.383 N 
ATOM      7  H   UNL     1      -2.512  -6.481   3.026  0.00  0.00    -0.081 HD
ENDROOT
BRANCH   3   8
ATOM      8  O   UNL     1      -4.663  -3.072   2.340  0.00  0.00    -0.388 OA
ATOM      9  H   UNL     1      -4.369  -2.158   2.456  0.00  0.00    +0.210 HD
ENDBRANCH   3   8
BRANCH   6  10
ATOM     10  C   UNL     1      -3.310  -6.622   4.914  0.00  0.00    -0.024 C 
BRANCH  10  20
ATOM     11  C   UNL     1       0.874  -5.515   8.525  0.00  0.00    +0.046 C 
ATOM     12  C   UNL     1       0.991  -6.639   7.529  0.00  0.00    -0.027 A 
ATOM     13  C   UNL     1       2.130  -7.414   7.492  0.00  0.00    +0.005 A 
ATOM     14  C   UNL     1       2.250  -8.453   6.580  0.00  0.00    +0.001 A 
ATOM     15  C   UNL     1       1.239  -8.726   5.701  0.00  0.00    +0.010 A 
ATOM     16  C   UNL     1       0.076  -7.954   5.722  0.00  0.00    +0.003 A 
ATOM     17  C   UNL     1      -0.051  -6.899   6.645  0.00  0.00    +0.050 A 
ATOM     18  N   UNL     1      -1.284  -6.323   6.437  0.00  0.00    -0.359 N 
ATOM     19  H   UNL     1      -1.638  -5.570   6.934  0.00  0.00    +0.166 HD
ATOM     20  C   UNL     1      -1.935  -6.972   5.423  0.00  0.00    +0.003 A 
ATOM     21  C   UNL     1      -1.171  -7.970   4.952  0.00  0.00    -0.024 A 
ATOM     22  C   UNL     1      -1.526  -8.924   3.842  0.00  0.00    +0.046 C 
ENDBRANCH  10  20
ENDBRANCH   6  10
BRANCH   3  23
ATOM     23  C   UNL     1      -3.481  -3.326   0.247  0.00  0.00    +0.111 C 
BRANCH  23  24
ATOM     24  C   UNL     1      -2.809  -1.982   0.368  0.00  0.00    +0.141 A 
ATOM     25  C   UNL     1      -1.478  -1.745   0.402  0.00  0.00    +0.076 A 
ATOM     26  C   UNL     1      -1.385  -0.330   0.525  0.00  0.00    +0.114 A 
ATOM     27  N   UNL     1      -2.617   0.115   0.544  0.00  0.00    -0.078 NA
ATOM     28  O   UNL     1      -3.415  -0.790   0.457  0.00  0.00    -0.359 OA
BRANCH  26  29
ATOM     29  C   UNL     1      -0.143   0.478   0.610  0.00  0.00    +0.004 A 
ATOM     30  C   UNL     1      -0.218   1.865   0.723  0.00  0.00    +0.010 A 
ATOM     31  C   UNL     1       0.940   2.612   0.802  0.00  0.00    +0.001 A 
ATOM     32  C   UNL     1       2.173   1.986   0.768  0.00  0.00    +0.000 A 
ATOM     33  C   UNL     1       2.253   0.610   0.657  0.00  0.00    +0.001 A 
ATOM     34  C   UNL     1       1.101  -0.147   0.578  0.00  0.00    +0.010 A 
ENDBRANCH  26  29
ENDBRANCH  23  24
ENDBRANCH   3  23
TORSDOF 6
