REMARK  Name = ZINC39636330
REMARK  9 active torsions:
REMARK  status: ('A' for Active; 'I' for Inactive)
REMARK    1  A    between atoms: C_1  and  O_2
REMARK    2  A    between atoms: O_2  and  C_3
REMARK    3  A    between atoms: C_8  and  C_9
REMARK    4  A    between atoms: C_9  and  C_10
REMARK    5  A    between atoms: C_10  and  N_11
REMARK    6  A    between atoms: C_12  and  C_14
REMARK    7  A    between atoms: C_25  and  C_27
REMARK    8  A    between atoms: C_27  and  O_28
REMARK    9  A    between atoms: O_28  and  C_29
REMARK                            x       y       z     vdW  Elec       q    Type
REMARK                         _______ _______ _______ _____ _____    ______ ____
ROOT
ATOM      1  C   UNL     1       3.676  -4.871   2.543  0.00  0.00    +0.100 C 
ATOM      2  C   UNL     1       4.741  -4.177   1.664  0.00  0.00    +0.121 C 
ATOM      3  N   UNL     1       5.550  -3.380   2.616  0.00  0.00    -0.297 N 
ATOM      4  C   UNL     1       5.677  -4.250   3.810  0.00  0.00    +0.115 C 
ATOM      5  C   UNL     1       4.296  -4.921   3.949  0.00  0.00    -0.004 C 
ATOM      6  C   UNL     1       4.455  -6.368   4.406  0.00  0.00    -0.010 C 
ATOM      7  C   UNL     1       5.019  -6.390   5.830  0.00  0.00    -0.082 C 
ATOM      8  N   UNL     1       4.110  -5.669   6.729  0.00  0.00    +0.379 N 
ATOM      9  C   UNL     1       4.035  -4.256   6.338  0.00  0.00    -0.082 C 
ATOM     10  C   UNL     1       3.430  -4.144   4.936  0.00  0.00    -0.010 C 
ATOM     11  C   UNL     1       6.057  -2.144   2.437  0.00  0.00    +0.253 C 
ATOM     12  O   UNL     1       6.705  -1.621   3.318  0.00  0.00    -0.272 OA
ATOM     13  H   UNL     1       3.190  -6.080   6.676  0.00  0.00    -0.086 HD
ATOM     14  H   UNL     1       4.452  -5.737   7.676  0.00  0.00    -0.086 HD
ENDROOT
BRANCH   1  16
ATOM     15  N   UNL     1       1.218  -4.682   2.745  0.00  0.00    -0.315 N 
ATOM     16  C   UNL     1       2.402  -4.066   2.559  0.00  0.00    +0.218 C 
ATOM     17  O   UNL     1       2.443  -2.864   2.403  0.00  0.00    -0.275 OA
ATOM     18  H   UNL     1       1.186  -5.643   2.869  0.00  0.00    +0.149 HD
BRANCH  15  19
ATOM     19  C   UNL     1      -0.020  -3.899   2.761  0.00  0.00    +0.109 C 
BRANCH  19  20
ATOM     20  C   UNL     1      -1.211  -4.832   2.988  0.00  0.00    +0.057 C 
BRANCH  20  26
ATOM     21  C   UNL     1      -3.125  -3.717   1.813  0.00  0.00    +0.123 A 
ATOM     22  C   UNL     1      -4.300  -2.980   1.832  0.00  0.00    +0.046 A 
ATOM     23  C   UNL     1      -4.827  -2.552   3.035  0.00  0.00    +0.004 A 
ATOM     24  C   UNL     1      -4.184  -2.857   4.220  0.00  0.00    +0.000 A 
ATOM     25  C   UNL     1      -3.012  -3.591   4.205  0.00  0.00    +0.007 A 
ATOM     26  C   UNL     1      -2.485  -4.027   3.004  0.00  0.00    -0.004 A 
BRANCH  21  28
ATOM     27  C   UNL     1      -3.318  -3.784  -0.555  0.00  0.00    +0.277 C 
ATOM     28  O   UNL     1      -2.605  -4.140   0.631  0.00  0.00    -0.495 OA
ENDBRANCH  21  28
ENDBRANCH  20  26
ENDBRANCH  19  20
ENDBRANCH  15  19
ENDBRANCH   1  16
BRANCH  11  29
ATOM     29  C   UNL     1       5.818  -1.413   1.141  0.00  0.00    +0.324 C 
BRANCH  29  30
ATOM     30  O   UNL     1       6.451  -0.133   1.194  0.00  0.00    -0.483 OA
BRANCH  30  31
ATOM     31  C   UNL     1       6.331   0.660   0.096  0.00  0.00    +0.123 A 
ATOM     32  C   UNL     1       5.614   0.217  -1.006  0.00  0.00    +0.046 A 
ATOM     33  C   UNL     1       5.493   1.025  -2.120  0.00  0.00    +0.005 A 
ATOM     34  C   UNL     1       6.085   2.274  -2.138  0.00  0.00    +0.020 A 
ATOM     35  C   UNL     1       6.801   2.718  -1.041  0.00  0.00    +0.044 A 
ATOM     36  C   UNL     1       6.920   1.916   0.079  0.00  0.00    +0.065 A 
ATOM     37 CL   UNL     1       7.544   4.287  -1.067  0.00  0.00    -0.083 Cl
ENDBRANCH  30  31
ENDBRANCH  29  30
ENDBRANCH  11  29
TORSDOF 8
