REMARK  Name = ZINC09138373
REMARK  9 active torsions:
REMARK  status: ('A' for Active; 'I' for Inactive)
REMARK    1  A    between atoms: C_1  and  C_2
REMARK    2  A    between atoms: C_2  and  C_3
REMARK    3  A    between atoms: C_8  and  N_9
REMARK    4  A    between atoms: C_10  and  C_12
REMARK    5  A    between atoms: N_14  and  C_15
REMARK    6  A    between atoms: C_15  and  C_16
REMARK    7  A    between atoms: C_16  and  C_18
REMARK    8  A    between atoms: C_16  and  N_69
REMARK    9  A    between atoms: N_27  and  C_28
REMARK                            x       y       z     vdW  Elec       q    Type
REMARK                         _______ _______ _______ _____ _____    ______ ____
ROOT
ATOM      1  C   UNL     1      -2.406  -0.212   0.825  0.00  0.00    -0.020 C 
ENDROOT
BRANCH   1   2
ATOM      2  C   UNL     1      -0.953   0.169   0.707  0.00  0.00    -0.059 A 
ATOM      3  C   UNL     1      -0.593   1.334   0.055  0.00  0.00    +0.004 A 
ATOM      4  C   UNL     1       0.737   1.677  -0.059  0.00  0.00    +0.023 A 
ATOM      5  C   UNL     1       1.728   0.854   0.480  0.00  0.00    +0.033 A 
ATOM      6  C   UNL     1       1.362  -0.309   1.135  0.00  0.00    -0.026 A 
ATOM      7  C   UNL     1       0.022  -0.647   1.245  0.00  0.00    +0.007 A 
ATOM      8  C   UNL     1       2.382  -1.235   1.749  0.00  0.00    +0.038 C 
ATOM      9  C   UNL     1       3.772  -0.905   1.202  0.00  0.00    +0.024 C 
ATOM     10  C   UNL     1       3.962   0.615   1.281  0.00  0.00    +0.105 C 
ATOM     11  N   UNL     1       3.055   1.251   0.324  0.00  0.00    -0.333 N 
ATOM     12  C   UNL     1       3.176   2.714   0.375  0.00  0.00    +0.129 C 
ENDBRANCH   1   2
BRANCH   1  18
ATOM     13  C   UNL     1      -4.349   0.709   1.937  0.00  0.00    -0.078 C 
ATOM     14  C   UNL     1      -5.080   2.012   2.268  0.00  0.00    -0.019 C 
ATOM     15  C   UNL     1      -5.568   2.662   0.971  0.00  0.00    -0.004 C 
ATOM     16  C   UNL     1      -4.370   2.905   0.048  0.00  0.00    -0.019 C 
ATOM     17  C   UNL     1      -3.661   1.575  -0.219  0.00  0.00    -0.078 C 
ATOM     18  N   UNL     1      -3.194   1.014   1.066  0.00  0.00    +0.385 N 
ATOM     19  H   UNL     1      -2.598   1.706   1.535  0.00  0.00    -0.081 HD
ENDBRANCH   1  18
BRANCH   1  20
ATOM     20  C   UNL     1      -2.861  -0.893  -0.468  0.00  0.00    +0.094 C 
BRANCH  20  23
ATOM     21  C   UNL     1      -4.906  -1.858  -1.376  0.00  0.00    +0.299 C 
ATOM     22  O   UNL     1      -4.358  -1.927  -2.457  0.00  0.00    -0.265 OA
ATOM     23  N   UNL     1      -4.243  -1.356  -0.316  0.00  0.00    -0.309 N 
ATOM     24  H   UNL     1      -4.680  -1.301   0.548  0.00  0.00    +0.149 HD
BRANCH  21  26
ATOM     25  N   UNL     1      -6.977  -2.832  -2.281  0.00  0.00    -0.278 N 
ATOM     26  C   UNL     1      -6.314  -2.329  -1.221  0.00  0.00    +0.303 C 
ATOM     27  O   UNL     1      -6.862  -2.261  -0.140  0.00  0.00    -0.265 OA
ATOM     28  H   UNL     1      -6.519  -2.952  -3.128  0.00  0.00    +0.155 HD
BRANCH  25  34
ATOM     29  C   UNL     1      -9.173  -3.066  -3.257  0.00  0.00    -0.026 A 
ATOM     30  C   UNL     1     -10.505  -3.410  -3.135  0.00  0.00    +0.005 A 
ATOM     31  C   UNL     1     -10.995  -3.867  -1.926  0.00  0.00    +0.000 A 
ATOM     32  C   UNL     1     -10.154  -3.981  -0.834  0.00  0.00    +0.002 A 
ATOM     33  C   UNL     1      -8.820  -3.643  -0.949  0.00  0.00    +0.023 A 
ATOM     34  C   UNL     1      -8.326  -3.179  -2.162  0.00  0.00    +0.037 A 
BRANCH  29  36
ATOM     35  C   UNL     1      -8.031  -3.738  -5.353  0.00  0.00    +0.009 C 
ATOM     36  C   UNL     1      -8.640  -2.569  -4.576  0.00  0.00    +0.033 C 
ENDBRANCH  29  36
ENDBRANCH  25  34
ENDBRANCH  21  26
ENDBRANCH  20  23
ENDBRANCH   1  20
TORSDOF 7
