REMARK  Name = ZINC09390942
REMARK  10 active torsions:
REMARK  status: ('A' for Active; 'I' for Inactive)
REMARK    1  A    between atoms: C_1  and  C_2
REMARK    2  A    between atoms: C_2  and  C_3
REMARK    3  A    between atoms: C_3  and  C_4
REMARK    4  A    between atoms: C_4  and  N_5
REMARK    5  A    between atoms: C_6  and  C_24
REMARK    6  A    between atoms: C_9  and  S_10
REMARK    7  A    between atoms: S_10  and  C_11
REMARK    8  A    between atoms: C_11  and  C_12
REMARK    9  A    between atoms: C_24  and  N_25
REMARK   10  A    between atoms: C_26  and  C_28
REMARK                            x       y       z     vdW  Elec       q    Type
REMARK                         _______ _______ _______ _____ _____    ______ ____
ROOT
ATOM      1  N   UNL     1       5.543   7.005  -1.961  0.00  0.00    -0.305 N 
ATOM      2  C   UNL     1       4.787   8.127  -2.163  0.00  0.00    +0.151 A 
ATOM      3  N   UNL     1       3.554   7.821  -1.873  0.00  0.00    -0.132 NA
ATOM      4  N   UNL     1       3.478   6.590  -1.510  0.00  0.00    -0.122 NA
ATOM      5  C   UNL     1       4.670   6.040  -1.548  0.00  0.00    +0.192 A 
ENDROOT
BRANCH   1   6
ATOM      6  C   UNL     1       6.989   6.867  -2.151  0.00  0.00    +0.125 C 
BRANCH   6   7
ATOM      7  C   UNL     1       7.274   6.430  -3.590  0.00  0.00    +0.021 C 
BRANCH   7   9
ATOM      8  C   UNL     1       9.070   5.849  -5.226  0.00  0.00    +0.004 C 
ATOM      9  C   UNL     1       8.785   6.286  -3.788  0.00  0.00    -0.002 C 
ENDBRANCH   7   9
ENDBRANCH   6   7
ENDBRANCH   1   6
BRANCH   5  10
ATOM     10  S   UNL     1       5.068   4.373  -1.138  0.00  0.00    -0.077 S 
BRANCH  10  11
ATOM     11  C   UNL     1       3.425   3.758  -0.693  0.00  0.00    +0.173 C 
BRANCH  11  12
ATOM     12  C   UNL     1       3.522   2.308  -0.296  0.00  0.00    +0.230 C 
ATOM     13  O   UNL     1       4.607   1.773  -0.214  0.00  0.00    -0.274 OA
ATOM     14  N   UNL     1       2.403   1.605  -0.030  0.00  0.00    -0.270 N 
ATOM     15  C   UNL     1       1.093   2.271   0.005  0.00  0.00    +0.114 C 
ATOM     16  C   UNL     1       0.342   1.760   1.241  0.00  0.00    +0.024 C 
ATOM     17  C   UNL     1       0.100   0.259   1.087  0.00  0.00    +0.038 C 
ATOM     18  C   UNL     1       1.385  -0.451   0.754  0.00  0.00    -0.026 A 
ATOM     19  C   UNL     1       2.468   0.226   0.215  0.00  0.00    +0.039 A 
ATOM     20  C   UNL     1       3.639  -0.460  -0.086  0.00  0.00    +0.024 A 
ATOM     21  C   UNL     1       3.725  -1.817   0.154  0.00  0.00    +0.002 A 
ATOM     22  C   UNL     1       2.646  -2.492   0.694  0.00  0.00    +0.000 A 
ATOM     23  C   UNL     1       1.479  -1.813   0.988  0.00  0.00    +0.005 A 
ENDBRANCH  11  12
ENDBRANCH  10  11
ENDBRANCH   5  10
BRANCH   2  24
ATOM     24  C   UNL     1       5.288   9.469  -2.629  0.00  0.00    +0.180 C 
BRANCH  24  25
ATOM     25  N   UNL     1       5.666  10.279  -1.468  0.00  0.00    -0.308 N 
ATOM     26  C   UNL     1       6.145  11.526  -1.643  0.00  0.00    +0.220 C 
ATOM     27  O   UNL     1       6.263  11.979  -2.762  0.00  0.00    -0.275 OA
ATOM     28  H   UNL     1       5.572   9.917  -0.573  0.00  0.00    +0.149 HD
BRANCH  26  29
ATOM     29  C   UNL     1       6.535  12.359  -0.449  0.00  0.00    +0.048 C 
ATOM     30  C   UNL     1       5.316  12.555   0.455  0.00  0.00    +0.019 C 
ATOM     31  C   UNL     1       5.711  13.400   1.668  0.00  0.00    -0.009 C 
ATOM     32  C   UNL     1       6.220  14.763   1.195  0.00  0.00    +0.007 C 
ATOM     33  C   UNL     1       7.438  14.567   0.291  0.00  0.00    -0.009 C 
ATOM     34  C   UNL     1       7.043  13.722  -0.922  0.00  0.00    +0.019 C 
ATOM     35  C   UNL     1       8.544  13.853   1.072  0.00  0.00    +0.007 C 
ATOM     36  C   UNL     1       8.035  12.490   1.544  0.00  0.00    -0.009 C 
ATOM     37  C   UNL     1       6.816  12.686   2.449  0.00  0.00    +0.007 C 
ATOM     38  C   UNL     1       7.640  11.645   0.332  0.00  0.00    +0.019 C 
ENDBRANCH  26  29
ENDBRANCH  24  25
ENDBRANCH   2  24
TORSDOF 9
