REMARK  Name = ZINC08236375
REMARK  4 active torsions:
REMARK  status: ('A' for Active; 'I' for Inactive)
REMARK    1  A    between atoms: C_1  and  C_2
REMARK    2  A    between atoms: C_2  and  C_30
REMARK    3  A    between atoms: C_6  and  C_18
REMARK    4  A    between atoms: C_21  and  N_24
REMARK                            x       y       z     vdW  Elec       q    Type
REMARK                         _______ _______ _______ _____ _____    ______ ____
ROOT
ATOM      1  C   UNL     1      -3.855   7.835   1.115  0.00  0.00    +0.011 C 
ATOM      2  C   UNL     1      -4.009   7.646  -0.395  0.00  0.00    -0.023 C 
ATOM      3  C   UNL     1      -3.910   6.159  -0.741  0.00  0.00    +0.058 C 
ATOM      4  C   UNL     1      -2.554   5.633  -0.334  0.00  0.00    +0.017 C 
ATOM      5  C   UNL     1      -1.467   6.432  -0.348  0.00  0.00    +0.024 C 
ATOM      6  C   UNL     1      -0.108   5.916   0.052  0.00  0.00    +0.090 C 
ATOM      7  C   UNL     1      -0.065   4.417   0.033  0.00  0.00    +0.042 A 
ATOM      8  C   UNL     1       1.144   3.751   0.013  0.00  0.00    +0.126 A 
ATOM      9  N   UNL     1       1.143   2.383  -0.003  0.00  0.00    -0.208 NA
ATOM     10  H   UNL     1      -2.127   1.769   0.015  0.00  0.00    +0.169 HD
ATOM     11  C   UNL     1      -0.021   1.708   0.004  0.00  0.00    +0.180 A 
ATOM     12  S   UNL     1       0.002  -0.004  -0.009  0.00  0.00    -0.011 S 
ATOM     13  N   UNL     1      -1.189   2.343   0.018  0.00  0.00    -0.322 N 
ATOM     14  C   UNL     1      -1.246   3.670   0.036  0.00  0.00    +0.110 A 
ATOM     15  N   UNL     1      -2.462   4.321   0.046  0.00  0.00    -0.304 N 
ATOM     16  N   UNL     1       2.327   4.449   0.009  0.00  0.00    -0.343 N 
ATOM     17  C   UNL     1      -1.566   7.781  -0.736  0.00  0.00    +0.162 C 
ATOM     18  O   UNL     1      -0.564   8.469  -0.757  0.00  0.00    -0.292 OA
ATOM     19  C   UNL     1      -2.885   8.388  -1.126  0.00  0.00    +0.086 C 
ATOM     20  C   UNL     1      -5.365   8.191  -0.847  0.00  0.00    +0.011 C 
ATOM     21  H   UNL     1      -3.363   3.776   0.364  0.00  0.00    +0.153 HD
ATOM     22  H   UNL     1       2.316   5.549   0.021  0.00  0.00    +0.144 HD
ATOM     23  H   UNL     1       3.285   3.909  -0.008  0.00  0.00    +0.144 HD
ENDROOT
BRANCH   6  24
ATOM     24  C   UNL     1       0.213   6.401   1.443  0.00  0.00    -0.035 A 
ATOM     25  C   UNL     1      -0.588   6.029   2.506  0.00  0.00    +0.007 A 
ATOM     26  C   UNL     1      -0.290   6.470   3.783  0.00  0.00    +0.033 A 
ATOM     27  C   UNL     1       0.802   7.290   3.993  0.00  0.00    +0.126 A 
ATOM     28  C   UNL     1       1.599   7.666   2.929  0.00  0.00    +0.033 A 
ATOM     29  C   UNL     1       1.305   7.221   1.654  0.00  0.00    +0.007 A 
BRANCH  27  30
ATOM     30  N   UNL     1       1.117   7.766   5.359  0.00  0.00    +0.056 N 
ATOM     31  O   UNL     1       2.079   8.489   5.545  0.00  0.00    -0.126 OA
ATOM     32  O   UNL     1       0.415   7.434   6.297  0.00  0.00    -0.126 OA
ENDBRANCH  27  30
ENDBRANCH   6  24
TORSDOF 2
