REMARK  Name = ZINC09496621
REMARK  5 active torsions:
REMARK  status: ('A' for Active; 'I' for Inactive)
REMARK    1  A    between atoms: C_1  and  C_2
REMARK    2  A    between atoms: C_2  and  O_3
REMARK    3  A    between atoms: O_3  and  C_4
REMARK    4  A    between atoms: C_7  and  C_11
REMARK    5  A    between atoms: C_13  and  C_25
REMARK                            x       y       z     vdW  Elec       q    Type
REMARK                         _______ _______ _______ _____ _____    ______ ____
ROOT
ATOM      1  C   UNL     1       1.106  -6.006  -1.842  0.00  0.00    +0.054 C 
ATOM      2  C   UNL     1       1.813  -6.533  -3.058  0.00  0.00    +0.086 C 
ATOM      3  C   UNL     1       2.565  -7.830  -2.743  0.00  0.00    +0.129 C 
ATOM      4  N   UNL     1       1.698  -8.672  -1.914  0.00  0.00    -0.302 N 
ATOM      5  C   UNL     1       1.616 -10.026  -1.810  0.00  0.00    +0.069 A 
ATOM      6  C   UNL     1       2.292 -11.068  -2.435  0.00  0.00    +0.028 A 
ATOM      7  C   UNL     1       1.938 -12.357  -2.071  0.00  0.00    +0.002 A 
ATOM      8  C   UNL     1       0.956 -12.610  -1.127  0.00  0.00    +0.002 A 
ATOM      9  C   UNL     1       0.273 -11.601  -0.495  0.00  0.00    +0.028 A 
ATOM     10  C   UNL     1       0.609 -10.287  -0.843  0.00  0.00    +0.066 A 
ATOM     11  N   UNL     1       0.138  -9.100  -0.419  0.00  0.00    -0.324 N 
ATOM     12  C   UNL     1       0.765  -8.134  -1.044  0.00  0.00    +0.210 A 
ATOM     13  N   UNL     1       0.594  -6.790  -0.930  0.00  0.00    -0.218 NA
ATOM     14  H   UNL     1      -0.558  -8.979   0.246  0.00  0.00    +0.169 HD
ENDROOT
BRANCH   3  15
ATOM     15  C   UNL     1       2.899  -8.549  -4.025  0.00  0.00    +0.012 A 
ATOM     16  C   UNL     1       1.886  -8.948  -4.877  0.00  0.00    +0.023 A 
ATOM     17  C   UNL     1       2.192  -9.608  -6.054  0.00  0.00    +0.018 A 
ATOM     18  C   UNL     1       3.511  -9.869  -6.378  0.00  0.00    +0.018 A 
ATOM     19  C   UNL     1       4.524  -9.470  -5.527  0.00  0.00    +0.040 A 
ATOM     20  C   UNL     1       4.219  -8.805  -4.352  0.00  0.00    +0.129 A 
ATOM     21  F   UNL     1       5.210  -8.410  -3.522  0.00  0.00    -0.205 F 
ATOM     22 BR   UNL     1       0.806 -10.154  -7.218  0.00  0.00    -0.050 Br
ENDBRANCH   3  15
BRANCH   1  26
ATOM     23  C   UNL     1       0.777  -1.808  -1.336  0.00  0.00    +0.139 A 
ATOM     24  C   UNL     1       0.240  -2.666  -0.382  0.00  0.00    +0.048 A 
ATOM     25  C   UNL     1       0.344  -4.029  -0.541  0.00  0.00    +0.013 A 
ATOM     26  C   UNL     1       0.992  -4.553  -1.667  0.00  0.00    -0.002 A 
ATOM     27  C   UNL     1       1.530  -3.686  -2.626  0.00  0.00    +0.033 A 
ATOM     28  C   UNL     1       1.416  -2.323  -2.459  0.00  0.00    +0.083 A 
ATOM     29 CL   UNL     1       2.077  -1.246  -3.649  0.00  0.00    -0.080 Cl
BRANCH  23  30
ATOM     30  O   UNL     1       0.671  -0.465  -1.174  0.00  0.00    -0.491 OA
BRANCH  30  32
ATOM     31  C   UNL     1      -0.019   1.526   0.010  0.00  0.00    +0.048 C 
ATOM     32  C   UNL     1       0.002  -0.004   0.002  0.00  0.00    +0.226 C 
ENDBRANCH  30  32
ENDBRANCH  23  30
ENDBRANCH   1  26
TORSDOF 4
