REMARK  Name = ZINC06819474
REMARK  4 active torsions:
REMARK  status: ('A' for Active; 'I' for Inactive)
REMARK    1  A    between atoms: C_1  and  O_2
REMARK    2  A    between atoms: O_2  and  C_3
REMARK    3  A    between atoms: C_8  and  C_9
REMARK    4  A    between atoms: C_20  and  C_23
REMARK                            x       y       z     vdW  Elec       q    Type
REMARK                         _______ _______ _______ _____ _____    ______ ____
ROOT
ATOM      1  C   UNL     1      -2.000   2.479   3.502  0.00  0.00    +0.066 C 
ATOM      2  C   UNL     1      -3.505   2.720   3.624  0.00  0.00    +0.109 C 
ATOM      3  C   UNL     1      -3.739   4.043   4.306  0.00  0.00    +0.218 C 
ATOM      4  O   UNL     1      -4.695   4.722   3.998  0.00  0.00    -0.275 OA
ATOM      5  N   UNL     1      -2.889   4.474   5.254  0.00  0.00    -0.289 N 
ATOM      6  C   UNL     1      -1.813   3.715   5.640  0.00  0.00    +0.018 C 
ATOM      7  C   UNL     1      -1.340   2.740   4.835  0.00  0.00    +0.020 C 
ATOM      8  C   UNL     1      -0.235   1.956   5.206  0.00  0.00    +0.162 C 
ATOM      9  O   UNL     1       0.156   1.082   4.459  0.00  0.00    -0.292 OA
ATOM     10  C   UNL     1       0.471   2.182   6.517  0.00  0.00    +0.088 C 
ATOM     11  C   UNL     1       0.315   3.653   6.918  0.00  0.00    +0.033 C 
ATOM     12  C   UNL     1      -1.177   3.987   6.980  0.00  0.00    +0.060 C 
ATOM     13  H   UNL     1      -3.038   5.336   5.672  0.00  0.00    +0.155 HD
ENDROOT
BRANCH  11  14
ATOM     14  C   UNL     1       0.940   3.877   8.271  0.00  0.00    -0.025 A 
ATOM     15  C   UNL     1       0.483   3.172   9.369  0.00  0.00    +0.005 A 
ATOM     16  C   UNL     1       1.059   3.374  10.609  0.00  0.00    +0.000 A 
ATOM     17  C   UNL     1       2.087   4.288  10.754  0.00  0.00    +0.001 A 
ATOM     18  C   UNL     1       2.541   4.997   9.658  0.00  0.00    +0.020 A 
ATOM     19  C   UNL     1       1.968   4.791   8.415  0.00  0.00    +0.044 A 
ATOM     20 CL   UNL     1       2.539   5.681   7.038  0.00  0.00    -0.083 Cl
ENDBRANCH  11  14
BRANCH   1  26
ATOM     21  C   UNL     1      -0.787   2.892   1.346  0.00  0.00    +0.124 A 
ATOM     22  C   UNL     1      -0.253   3.751   0.396  0.00  0.00    +0.046 A 
ATOM     23  C   UNL     1      -0.368   5.117   0.561  0.00  0.00    +0.004 A 
ATOM     24  C   UNL     1      -1.003   5.630   1.677  0.00  0.00    +0.001 A 
ATOM     25  C   UNL     1      -1.531   4.776   2.627  0.00  0.00    +0.008 A 
ATOM     26  C   UNL     1      -1.425   3.409   2.465  0.00  0.00    +0.002 A 
BRANCH  21  28
ATOM     27  C   UNL     1      -0.013   1.086   0.008  0.00  0.00    +0.277 C 
ATOM     28  O   UNL     1      -0.682   1.547   1.184  0.00  0.00    -0.495 OA
ENDBRANCH  21  28
ENDBRANCH   1  26
TORSDOF 3
