REMARK  Name = ZINC35354914
REMARK  6 active torsions:
REMARK  status: ('A' for Active; 'I' for Inactive)
REMARK    1  A    between atoms: C_1  and  C_2
REMARK    2  A    between atoms: C_7  and  N_10
REMARK    3  A    between atoms: N_10  and  S_11
REMARK    4  A    between atoms: S_11  and  C_14
REMARK    5  A    between atoms: C_17  and  N_20
REMARK    6  A    between atoms: N_20  and  N_21
REMARK                            x       y       z     vdW  Elec       q    Type
REMARK                         _______ _______ _______ _____ _____    ______ ____
ROOT
ATOM      1  S   UNL     1       2.375  -3.885   0.086  0.00  0.00    +0.059 S 
ATOM      2  O   UNL     1       2.877  -4.092  -1.227  0.00  0.00    -0.153 OA
ATOM      3  O   UNL     1       3.227  -3.751   1.215  0.00  0.00    -0.153 OA
ENDROOT
BRANCH   1   4
ATOM      4  C   UNL     1       1.291  -5.231   0.429  0.00  0.00    +0.105 A 
ATOM      5  C   UNL     1       1.031  -5.591   1.739  0.00  0.00    +0.030 A 
ATOM      6  C   UNL     1       0.182  -6.645   2.012  0.00  0.00    +0.026 A 
ATOM      7  C   UNL     1      -0.410  -7.345   0.969  0.00  0.00    +0.041 A 
ATOM      8  C   UNL     1      -0.147  -6.981  -0.346  0.00  0.00    +0.026 A 
ATOM      9  C   UNL     1       0.698  -5.922  -0.611  0.00  0.00    +0.030 A 
BRANCH   7  10
ATOM     10  N   UNL     1      -1.269  -8.413   1.241  0.00  0.00    -0.283 N 
ATOM     11  H   UNL     1      -1.452  -8.666   2.159  0.00  0.00    +0.166 HD
BRANCH  10  12
ATOM     12  N   UNL     1      -1.851  -9.100   0.214  0.00  0.00    -0.257 NA
ATOM     13  H   UNL     1      -1.155  -9.462  -0.420  0.00  0.00    +0.140 HD
ATOM     14  H   UNL     1      -2.442  -9.839   0.563  0.00  0.00    +0.140 HD
ENDBRANCH  10  12
ENDBRANCH   7  10
ENDBRANCH   1   4
BRANCH   1  15
ATOM     15  N   UNL     1       1.448  -2.513   0.028  0.00  0.00    -0.187 NA
ATOM     16  H   UNL     1       1.360  -2.023  -0.804  0.00  0.00    +0.148 HD
BRANCH  15  22
ATOM     17  C   UNL     1      -0.019   1.526   0.010  0.00  0.00    +0.007 C 
ATOM     18  C   UNL     1       0.002  -0.004   0.002  0.00  0.00    -0.013 C 
ATOM     19  C   UNL     1      -1.433  -0.534   0.013  0.00  0.00    +0.003 C 
ATOM     20  C   UNL     1      -1.413  -2.063   0.004  0.00  0.00    +0.002 C 
ATOM     21  C   UNL     1      -0.673  -2.570   1.244  0.00  0.00    +0.020 C 
ATOM     22  C   UNL     1       0.763  -2.041   1.233  0.00  0.00    +0.077 C 
ATOM     23  C   UNL     1       0.742  -0.511   1.242  0.00  0.00    +0.023 C 
ENDBRANCH  15  22
ENDBRANCH   1  15
TORSDOF 5
