REMARK  Name = ZINC10128055
REMARK  4 active torsions:
REMARK  status: ('A' for Active; 'I' for Inactive)
REMARK    1  A    between atoms: C_1  and  C_2
REMARK    2  A    between atoms: C_2  and  C_35
REMARK    3  A    between atoms: C_6  and  C_19
REMARK    4  A    between atoms: C_22  and  C_24
REMARK                            x       y       z     vdW  Elec       q    Type
REMARK                         _______ _______ _______ _____ _____    ______ ____
ROOT
ATOM      1  C   UNL     1      -3.340   0.858   2.804  0.00  0.00    +0.011 C 
ATOM      2  C   UNL     1      -2.443   1.917   3.449  0.00  0.00    -0.023 C 
ATOM      3  C   UNL     1      -2.249   3.086   2.480  0.00  0.00    +0.058 C 
ATOM      4  C   UNL     1      -1.568   2.597   1.225  0.00  0.00    +0.017 C 
ATOM      5  C   UNL     1      -0.701   1.564   1.261  0.00  0.00    +0.027 C 
ATOM      6  C   UNL     1      -0.013   1.086   0.008  0.00  0.00    +0.128 C 
ATOM      7  C   UNL     1      -0.722   1.575  -1.221  0.00  0.00    +0.070 A 
ATOM      8  C   UNL     1      -1.598   2.615  -1.157  0.00  0.00    +0.113 A 
ATOM      9  N   UNL     1      -2.224   3.046  -2.301  0.00  0.00    -0.295 N 
ATOM     10  H   UNL     1      -2.867   3.811  -2.259  0.00  0.00    +0.172 HD
ATOM     11  C   UNL     1      -1.977   2.443  -3.479  0.00  0.00    +0.328 A 
ATOM     12  O   UNL     1      -2.539   2.837  -4.483  0.00  0.00    -0.247 OA
ATOM     13  N   UNL     1      -1.118   1.411  -3.562  0.00  0.00    -0.275 N 
ATOM     14  H   UNL     1      -0.950   0.976  -4.447  0.00  0.00    +0.173 HD
ATOM     15  C   UNL     1      -0.481   0.960  -2.464  0.00  0.00    +0.260 A 
ATOM     16  O   UNL     1       0.296   0.025  -2.546  0.00  0.00    -0.267 OA
ATOM     17  N   UNL     1      -1.853   3.228   0.044  0.00  0.00    -0.303 N 
ATOM     18  C   UNL     1      -0.414   0.900   2.467  0.00  0.00    +0.162 C 
ATOM     19  O   UNL     1       0.379  -0.021   2.467  0.00  0.00    -0.292 OA
ATOM     20  C   UNL     1      -1.070   1.310   3.758  0.00  0.00    +0.086 C 
ATOM     21  C   UNL     1      -3.084   2.422   4.742  0.00  0.00    +0.011 C 
ATOM     22  H   UNL     1      -2.239   4.118   0.056  0.00  0.00    +0.153 HD
ENDROOT
BRANCH   6  23
ATOM     23  C   UNL     1       1.404   1.599  -0.003  0.00  0.00    +0.118 A 
ATOM     24  C   UNL     1       2.515   0.837  -0.012  0.00  0.00    +0.046 A 
ATOM     25  C   UNL     1       3.618   1.715  -0.024  0.00  0.00    +0.050 A 
ATOM     26  C   UNL     1       3.113   2.977  -0.011  0.00  0.00    +0.137 A 
ATOM     27  O   UNL     1       1.769   2.891   0.001  0.00  0.00    -0.459 OA
BRANCH  26  28
ATOM     28  C   UNL     1       3.903   4.226  -0.011  0.00  0.00    +0.037 A 
ATOM     29  C   UNL     1       3.612   5.239  -0.927  0.00  0.00    +0.033 A 
ATOM     30  C   UNL     1       4.353   6.404  -0.921  0.00  0.00    +0.042 A 
ATOM     31  C   UNL     1       5.383   6.569  -0.009  0.00  0.00    +0.021 A 
ATOM     32  C   UNL     1       5.676   5.569   0.901  0.00  0.00    +0.022 A 
ATOM     33  C   UNL     1       4.939   4.402   0.909  0.00  0.00    +0.052 A 
ATOM     34 CL   UNL     1       5.303   3.151   2.057  0.00  0.00    -0.083 Cl
ATOM     35 CL   UNL     1       3.994   7.665  -2.058  0.00  0.00    -0.084 Cl
ENDBRANCH  26  28
ENDBRANCH   6  23
TORSDOF 2
