REMARK  Name = ZINC01861148
REMARK  7 active torsions:
REMARK  status: ('A' for Active; 'I' for Inactive)
REMARK    1  A    between atoms: C_1  and  C_2
REMARK    2  A    between atoms: C_2  and  C_35
REMARK    3  A    between atoms: C_6  and  N_27
REMARK    4  A    between atoms: C_12  and  S_16
REMARK    5  A    between atoms: S_16  and  C_17
REMARK    6  A    between atoms: C_17  and  C_18
REMARK    7  A    between atoms: C_21  and  N_24
REMARK                            x       y       z     vdW  Elec       q    Type
REMARK                         _______ _______ _______ _____ _____    ______ ____
ROOT
ATOM      1  C   UNL     1      -0.954  -7.554  -0.153  0.00  0.00    +0.041 C 
ATOM      2  C   UNL     1      -2.047  -6.549   0.211  0.00  0.00    +0.068 C 
ATOM      3  C   UNL     1      -1.584  -5.133  -0.139  0.00  0.00    +0.070 C 
ATOM      4  C   UNL     1      -2.748  -4.183  -0.052  0.00  0.00    -0.024 A 
ATOM      5  C   UNL     1      -4.035  -4.619  -0.040  0.00  0.00    +0.020 A 
ATOM      6  C   UNL     1      -5.083  -3.695   0.033  0.00  0.00    +0.105 A 
ATOM      7  C   UNL     1      -3.595  -1.941   0.087  0.00  0.00    +0.089 A 
ATOM      8  C   UNL     1      -2.480  -2.793   0.014  0.00  0.00    +0.035 A 
ATOM      9  C   UNL     1      -1.162  -2.132   0.013  0.00  0.00    +0.092 A 
ATOM     10  C   UNL     1      -1.178  -0.734   0.094  0.00  0.00    +0.072 A 
ATOM     11  S   UNL     1      -2.897  -0.309   0.155  0.00  0.00    -0.066 S 
ATOM     12  C   UNL     1       0.004  -0.006   0.097  0.00  0.00    +0.115 A 
ATOM     13  N   UNL     1       1.157  -0.673   0.031  0.00  0.00    -0.228 NA
ATOM     14  C   UNL     1       1.155  -1.991  -0.040  0.00  0.00    +0.223 A 
ATOM     15  N   UNL     1       0.059  -2.709  -0.050  0.00  0.00    -0.234 NA
ATOM     16  C   UNL     1      -4.369  -6.087  -0.100  0.00  0.00    +0.199 C 
ATOM     17  O   UNL     1      -3.234  -6.834  -0.538  0.00  0.00    -0.369 OA
ATOM     18  C   UNL     1      -2.350  -6.636   1.709  0.00  0.00    +0.041 C 
ATOM     19  N   UNL     1      -4.888  -2.347   0.097  0.00  0.00    -0.337 N 
ATOM     20  H   UNL     1      -5.670  -1.683   0.150  0.00  0.00    +0.168 HD
ENDROOT
BRANCH   6  21
ATOM     21  N   UNL     1      -6.397  -4.142   0.041  0.00  0.00    -0.312 N 
ATOM     22  C   UNL     1      -7.135  -3.632  -1.124  0.00  0.00    +0.134 C 
ATOM     23  C   UNL     1      -8.558  -4.196  -1.107  0.00  0.00    +0.178 C 
ATOM     24  O   UNL     1      -9.189  -3.848   0.128  0.00  0.00    -0.377 OA
ATOM     25  C   UNL     1      -8.498  -4.330   1.283  0.00  0.00    +0.178 C 
ATOM     26  C   UNL     1      -7.074  -3.767   1.291  0.00  0.00    +0.134 C 
ENDBRANCH   6  21
BRANCH  12  27
ATOM     27  S   UNL     1      -0.019   1.753   0.192  0.00  0.00    -0.100 S 
BRANCH  27  28
ATOM     28  C   UNL     1       1.759   2.092   0.164  0.00  0.00    +0.111 C 
BRANCH  28  29
ATOM     29  C   UNL     1       1.988   3.580   0.238  0.00  0.00    -0.037 A 
ATOM     30  C   UNL     1       2.067   4.325  -0.923  0.00  0.00    +0.007 A 
ATOM     31  C   UNL     1       2.273   5.691  -0.855  0.00  0.00    +0.033 A 
ATOM     32  C   UNL     1       2.408   6.309   0.374  0.00  0.00    +0.126 A 
ATOM     33  C   UNL     1       2.334   5.562   1.535  0.00  0.00    +0.033 A 
ATOM     34  C   UNL     1       2.124   4.197   1.467  0.00  0.00    +0.007 A 
BRANCH  32  35
ATOM     35  N   UNL     1       2.633   7.770   0.447  0.00  0.00    +0.056 N 
ATOM     36  O   UNL     1       2.752   8.315   1.530  0.00  0.00    -0.126 OA
ATOM     37  O   UNL     1       2.699   8.428  -0.576  0.00  0.00    -0.126 OA
ENDBRANCH  32  35
ENDBRANCH  28  29
ENDBRANCH  27  28
ENDBRANCH  12  27
TORSDOF 5
