REMARK  Name = ZINC44875103
REMARK  7 active torsions:
REMARK  status: ('A' for Active; 'I' for Inactive)
REMARK    1  A    between atoms: C_1  and  C_2
REMARK    2  A    between atoms: C_2  and  C_3
REMARK    3  A    between atoms: C_9  and  N_11
REMARK    4  A    between atoms: C_12  and  C_14
REMARK    5  A    between atoms: C_14  and  C_16
REMARK    6  A    between atoms: C_14  and  C_17
REMARK    7  A    between atoms: N_18  and  O_19
REMARK                            x       y       z     vdW  Elec       q    Type
REMARK                         _______ _______ _______ _____ _____    ______ ____
ROOT
ATOM      1  N   UNL     1      -0.692  -2.627  -1.011  0.00  0.00    -0.312 N 
ATOM      2  C   UNL     1      -0.107  -3.837  -0.905  0.00  0.00    +0.223 C 
ATOM      3  O   UNL     1      -0.179  -4.455   0.136  0.00  0.00    -0.275 OA
ATOM      4  H   UNL     1      -0.635  -2.133  -1.844  0.00  0.00    +0.149 HD
ENDROOT
BRANCH   1  10
ATOM      5  C   UNL     1      -1.433  -0.534   0.013  0.00  0.00    +0.009 C 
ATOM      6  C   UNL     1      -2.135  -0.131  -1.286  0.00  0.00    +0.005 C 
ATOM      7  C   UNL     1      -3.571  -0.661  -1.275  0.00  0.00    +0.000 C 
ATOM      8  C   UNL     1      -3.551  -2.186  -1.157  0.00  0.00    +0.002 C 
ATOM      9  C   UNL     1      -2.849  -2.589   0.141  0.00  0.00    +0.022 C 
ATOM     10  C   UNL     1      -1.413  -2.059   0.130  0.00  0.00    +0.076 C 
BRANCH   5  12
ATOM     11  C   UNL     1      -0.019   1.526   0.010  0.00  0.00    +0.004 C 
ATOM     12  C   UNL     1       0.002  -0.004   0.002  0.00  0.00    +0.002 C 
ENDBRANCH   5  12
ENDBRANCH   1  10
BRANCH   2  13
ATOM     13  C   UNL     1       0.635  -4.421  -2.079  0.00  0.00    +0.138 C 
ATOM     14  C   UNL     1       1.783  -3.490  -2.471  0.00  0.00    +0.025 C 
BRANCH  13  15
ATOM     15  C   UNL     1       1.190  -5.771  -1.701  0.00  0.00    +0.143 C 
ATOM     16  N   UNL     1       2.405  -5.873  -1.276  0.00  0.00    -0.076 NA
ATOM     17  N   UNL     1       0.401  -6.894  -1.809  0.00  0.00    -0.343 N 
ATOM     18  H   UNL     1      -0.512  -6.817  -2.129  0.00  0.00    +0.144 HD
ATOM     19  H   UNL     1       0.758  -7.763  -1.566  0.00  0.00    +0.144 HD
BRANCH  16  20
ATOM     20  O   UNL     1       2.926  -7.141  -0.921  0.00  0.00    -0.408 OA
ATOM     21  H   UNL     1       3.843  -7.118  -0.615  0.00  0.00    +0.328 HD
ENDBRANCH  16  20
ENDBRANCH  13  15
ENDBRANCH   2  13
TORSDOF 5
