REMARK  Name = ZINC63571876
REMARK  7 active torsions:
REMARK  status: ('A' for Active; 'I' for Inactive)
REMARK    1  A    between atoms: C_1  and  C_2
REMARK    2  A    between atoms: C_2  and  O_3
REMARK    3  A    between atoms: O_3  and  C_4
REMARK    4  A    between atoms: C_4  and  C_6
REMARK    5  A    between atoms: C_6  and  C_7
REMARK    6  A    between atoms: C_7  and  N_13
REMARK    7  A    between atoms: C_29  and  C_31
REMARK                            x       y       z     vdW  Elec       q    Type
REMARK                         _______ _______ _______ _____ _____    ______ ____
ROOT
ATOM      1  N   UNL     1       2.403  -4.502  -1.203  0.00  0.00    -0.293 N 
ATOM      2  C   UNL     1       1.577  -4.298  -0.158  0.00  0.00    +0.303 C 
ATOM      3  O   UNL     1       0.563  -3.642  -0.303  0.00  0.00    -0.253 OA
ATOM      4  N   UNL     1       1.874  -4.822   1.048  0.00  0.00    -0.276 N 
ATOM      5  C   UNL     1       3.152  -5.515   1.243  0.00  0.00    +0.114 C 
ATOM      6  C   UNL     1       3.934  -4.837   2.382  0.00  0.00    +0.052 C 
ATOM      7  C   UNL     1       2.954  -4.613   3.507  0.00  0.00    -0.035 C 
ATOM      8  C   UNL     1       3.007  -4.931   4.794  0.00  0.00    -0.001 A 
ATOM      9  C   UNL     1       4.080  -5.516   5.615  0.00  0.00    +0.010 A 
ATOM     10  C   UNL     1       3.783  -5.732   6.924  0.00  0.00    +0.001 A 
ATOM     11  C   UNL     1       2.541  -5.429   7.491  0.00  0.00    +0.002 A 
ATOM     12  C   UNL     1       1.501  -4.881   6.813  0.00  0.00    +0.026 A 
ATOM     13  C   UNL     1       1.696  -4.600   5.429  0.00  0.00    +0.043 A 
ATOM     14  N   UNL     1       0.892  -4.063   4.559  0.00  0.00    -0.375 N 
ATOM     15  C   UNL     1       1.608  -3.931   3.290  0.00  0.00    +0.131 C 
ATOM     16  C   UNL     1       0.916  -4.686   2.156  0.00  0.00    +0.134 C 
ATOM     17  H   UNL     1       3.246  -4.963  -1.072  0.00  0.00    +0.151 HD
ATOM     18  H   UNL     1      -0.026  -3.796   4.723  0.00  0.00    +0.160 HD
ENDROOT
BRANCH  16  19
ATOM     19  C   UNL     1       0.497  -6.051   2.639  0.00  0.00    -0.025 A 
ATOM     20  C   UNL     1      -0.841  -6.400   2.645  0.00  0.00    +0.008 A 
ATOM     21  C   UNL     1      -1.227  -7.652   3.086  0.00  0.00    +0.038 A 
ATOM     22  C   UNL     1      -0.273  -8.556   3.522  0.00  0.00    +0.123 A 
ATOM     23  C   UNL     1       1.067  -8.205   3.515  0.00  0.00    +0.038 A 
ATOM     24  C   UNL     1       1.450  -6.955   3.069  0.00  0.00    +0.008 A 
ATOM     25  F   UNL     1      -0.649  -9.779   3.954  0.00  0.00    -0.205 F 
ENDBRANCH  16  19
BRANCH   1  26
ATOM     26  C   UNL     1       2.028  -4.025  -2.537  0.00  0.00    +0.046 C 
ATOM     27  C   UNL     1       0.671  -4.614  -2.926  0.00  0.00    +0.026 C 
ATOM     28  C   UNL     1       0.762  -6.141  -2.937  0.00  0.00    +0.002 C 
ATOM     29  C   UNL     1       1.819  -6.581  -3.952  0.00  0.00    +0.000 C 
ATOM     30  C   UNL     1       3.177  -5.992  -3.563  0.00  0.00    +0.002 C 
ATOM     31  C   UNL     1       3.086  -4.465  -3.551  0.00  0.00    +0.026 C 
BRANCH  26  32
ATOM     32  C   UNL     1       1.937  -2.498  -2.525  0.00  0.00    +0.146 C 
BRANCH  32  33
ATOM     33  C   UNL     1       3.236  -1.921  -2.023  0.00  0.00    +0.309 C 
ATOM     34  O   UNL     1       4.092  -2.651  -1.585  0.00  0.00    -0.251 OA
BRANCH  33  35
ATOM     35  O   UNL     1       3.441  -0.595  -2.064  0.00  0.00    -0.465 OA
BRANCH  35  37
ATOM     36  C   UNL     1       4.745   1.407  -1.698  0.00  0.00    +0.048 C 
ATOM     37  C   UNL     1       4.695  -0.117  -1.572  0.00  0.00    +0.229 C 
ENDBRANCH  35  37
ENDBRANCH  33  35
ENDBRANCH  32  33
ENDBRANCH  26  32
ENDBRANCH   1  26
TORSDOF 6
