REMARK  Name = ZINC33042612
REMARK  6 active torsions:
REMARK  status: ('A' for Active; 'I' for Inactive)
REMARK    1  A    between atoms: C_1  and  C_2
REMARK    2  A    between atoms: C_2  and  O_3
REMARK    3  A    between atoms: O_3  and  C_4
REMARK    4  A    between atoms: C_4  and  C_6
REMARK    5  A    between atoms: C_11  and  N_12
REMARK    6  A    between atoms: C_27  and  C_29
REMARK                            x       y       z     vdW  Elec       q    Type
REMARK                         _______ _______ _______ _____ _____    ______ ____
ROOT
ATOM      1  N   UNL     1       4.330  -0.021  -2.801  0.00  0.00    -0.269 N 
ATOM      2  C   UNL     1       4.061   0.651  -1.664  0.00  0.00    +0.308 C 
ATOM      3  O   UNL     1       4.943   1.272  -1.103  0.00  0.00    -0.252 OA
ATOM      4  N   UNL     1       2.816   0.634  -1.150  0.00  0.00    -0.268 N 
ATOM      5  C   UNL     1       1.721  -0.106  -1.801  0.00  0.00    +0.148 C 
ATOM      6  C   UNL     1       0.818  -0.804  -0.808  0.00  0.00    +0.005 A 
ATOM      7  C   UNL     1       0.756  -2.207  -0.679  0.00  0.00    -0.030 A 
ATOM      8  C   UNL     1      -0.131  -2.721   0.212  0.00  0.00    -0.005 A 
ATOM      9  S   UNL     1      -0.902  -1.287   0.919  0.00  0.00    -0.075 S 
ATOM     10  C   UNL     1       0.000  -0.078  -0.000  0.00  0.00    +0.090 A 
ATOM     11  N   UNL     1      -0.039   1.310   0.022  0.00  0.00    -0.312 N 
ATOM     12  C   UNL     1      -1.078   2.177   0.027  0.00  0.00    +0.092 A 
ATOM     13  C   UNL     1      -0.576   3.433  -0.020  0.00  0.00    +0.020 A 
ATOM     14  C   UNL     1       0.831   3.327  -0.034  0.00  0.00    +0.025 A 
ATOM     15  C   UNL     1       1.138   2.023   0.018  0.00  0.00    +0.050 A 
ATOM     16  C   UNL     1       2.481   1.362   0.099  0.00  0.00    +0.162 C 
ATOM     17  C   UNL     1      -0.390  -4.161   0.517  0.00  0.00    +0.043 C 
ATOM     18  C   UNL     1       0.254  -5.012  -0.588  0.00  0.00    +0.005 C 
ATOM     19  C   UNL     1       1.679  -4.508  -0.828  0.00  0.00    +0.005 C 
ATOM     20  C   UNL     1       1.642  -3.137  -1.505  0.00  0.00    +0.036 C 
ATOM     21  H   UNL     1       3.552  -0.642  -3.269  0.00  0.00    +0.156 HD
ENDROOT
BRANCH   1  27
ATOM     22  C   UNL     1       5.726   0.064  -4.780  0.00  0.00    +0.080 A 
ATOM     23  C   UNL     1       6.998   0.157  -5.351  0.00  0.00    +0.017 A 
ATOM     24  C   UNL     1       8.109   0.253  -4.541  0.00  0.00    +0.001 A 
ATOM     25  C   UNL     1       7.972   0.259  -3.162  0.00  0.00    +0.002 A 
ATOM     26  C   UNL     1       6.722   0.173  -2.584  0.00  0.00    +0.024 A 
ATOM     27  C   UNL     1       5.591   0.070  -3.383  0.00  0.00    +0.049 A 
BRANCH  22  28
ATOM     28  C   UNL     1       4.534  -0.038  -5.639  0.00  0.00    +0.341 C 
ATOM     29  O   UNL     1       3.424  -0.020  -5.144  0.00  0.00    -0.245 OA
BRANCH  28  30
ATOM     30  O   UNL     1       4.673  -0.152  -6.974  0.00  0.00    -0.461 OA
BRANCH  30  32
ATOM     31  C   UNL     1       3.812  -0.371  -9.242  0.00  0.00    +0.048 C 
ATOM     32  C   UNL     1       3.455  -0.249  -7.759  0.00  0.00    +0.229 C 
ENDBRANCH  30  32
ENDBRANCH  28  30
ENDBRANCH  22  28
ENDBRANCH   1  27
BRANCH  16  33
ATOM     33  C   UNL     1       2.480   0.388   1.249  0.00  0.00    +0.016 A 
ATOM     34  C   UNL     1       3.207  -0.745   1.409  0.00  0.00    +0.013 A 
ATOM     35  C   UNL     1       3.040  -1.492   2.560  0.00  0.00    +0.008 A 
ATOM     36  C   UNL     1       2.154  -1.069   3.495  0.00  0.00    +0.045 A 
ATOM     37  S   UNL     1       1.525   0.430   2.757  0.00  0.00    -0.099 S 
ENDBRANCH  16  33
TORSDOF 5
