REMARK  Name = ZINC21868418
REMARK  10 active torsions:
REMARK  status: ('A' for Active; 'I' for Inactive)
REMARK    1  A    between atoms: C_1  and  C_2
REMARK    2  A    between atoms: C_7  and  C_35
REMARK    3  A    between atoms: N_9  and  C_10
REMARK    4  A    between atoms: C_10  and  C_11
REMARK    5  A    between atoms: C_11  and  C_12
REMARK    6  A    between atoms: C_12  and  N_13
REMARK    7  A    between atoms: C_14  and  C_16
REMARK    8  A    between atoms: C_17  and  C_34
REMARK    9  A    between atoms: N_24  and  C_27
REMARK   10  A    between atoms: C_27  and  C_28
REMARK                            x       y       z     vdW  Elec       q    Type
REMARK                         _______ _______ _______ _____ _____    ______ ____
ROOT
ATOM      1  C   UNL     1       6.948  -1.059   4.974  0.00  0.00    +0.067 C 
ATOM      2  C   UNL     1       8.216  -0.825   5.356  0.00  0.00    +0.045 C 
ATOM      3  C   UNL     1       8.490  -1.598   6.579  0.00  0.00    +0.336 C 
ATOM      4  O   UNL     1       9.546  -1.606   7.178  0.00  0.00    -0.245 OA
ATOM      5  O   UNL     1       7.394  -2.294   6.932  0.00  0.00    -0.450 OA
ATOM      6  C   UNL     1       6.363  -2.015   5.983  0.00  0.00    +0.146 C 
ATOM      7  C   UNL     1       5.928  -3.307   5.290  0.00  0.00    +0.068 C 
ATOM      8  C   UNL     1       5.298  -4.246   6.321  0.00  0.00    +0.089 C 
ATOM      9  N   UNL     1       4.147  -3.584   6.947  0.00  0.00    -0.298 NA
ATOM     10  C   UNL     1       4.557  -2.372   7.667  0.00  0.00    +0.089 C 
ATOM     11  C   UNL     1       5.163  -1.372   6.679  0.00  0.00    +0.068 C 
ATOM     12  C   UNL     1       9.194   0.078   4.649  0.00  0.00    +0.052 C 
ENDROOT
BRANCH   1  14
ATOM     13  N   UNL     1       4.977  -0.810   3.545  0.00  0.00    -0.312 N 
ATOM     14  C   UNL     1       6.261  -0.486   3.799  0.00  0.00    +0.244 C 
ATOM     15  O   UNL     1       6.852   0.278   3.062  0.00  0.00    -0.270 OA
ATOM     16  H   UNL     1       4.505  -1.419   4.134  0.00  0.00    +0.149 HD
BRANCH  13  17
ATOM     17  C   UNL     1       4.295  -0.242   2.380  0.00  0.00    +0.102 C 
BRANCH  17  18
ATOM     18  C   UNL     1       2.859  -0.768   2.322  0.00  0.00    +0.000 C 
BRANCH  18  19
ATOM     19  C   UNL     1       2.147  -0.174   1.105  0.00  0.00    -0.077 C 
BRANCH  19  26
ATOM     20  C   UNL     1       1.405  -2.630  -0.036  0.00  0.00    -0.013 C 
ATOM     21  C   UNL     1       0.648  -2.043   1.157  0.00  0.00    -0.071 C 
ATOM     22  C   UNL     1      -0.820  -2.472   1.089  0.00  0.00    -0.016 C 
ATOM     23  C   UNL     1      -1.574  -1.883   2.285  0.00  0.00    -0.003 C 
ATOM     24  C   UNL     1      -1.413  -0.360   2.277  0.00  0.00    -0.016 C 
ATOM     25  C   UNL     1       0.076  -0.010   2.301  0.00  0.00    -0.071 C 
ATOM     26  N   UNL     1       0.735  -0.579   1.119  0.00  0.00    +0.383 N 
ATOM     27  C   UNL     1       0.242   1.511   2.293  0.00  0.00    -0.013 C 
ATOM     28  H   UNL     1       0.281  -0.237   0.285  0.00  0.00    -0.081 HD
ENDBRANCH  19  26
ENDBRANCH  18  19
ENDBRANCH  17  18
ENDBRANCH  13  17
ENDBRANCH   1  14
BRANCH   9  29
ATOM     29  C   UNL     1       3.429  -4.507   7.837  0.00  0.00    +0.119 C 
BRANCH  29  30
ATOM     30  C   UNL     1       2.128  -3.880   8.267  0.00  0.00    -0.033 A 
ATOM     31  C   UNL     1       2.080  -3.102   9.409  0.00  0.00    +0.005 A 
ATOM     32  C   UNL     1       0.887  -2.526   9.803  0.00  0.00    +0.000 A 
ATOM     33  C   UNL     1      -0.258  -2.730   9.057  0.00  0.00    +0.000 A 
ATOM     34  C   UNL     1      -0.210  -3.508   7.915  0.00  0.00    +0.000 A 
ATOM     35  C   UNL     1       0.984  -4.079   7.518  0.00  0.00    +0.005 A 
ENDBRANCH  29  30
ENDBRANCH   9  29
TORSDOF 7
