REMARK  Name = ZINC29046654
REMARK  10 active torsions:
REMARK  status: ('A' for Active; 'I' for Inactive)
REMARK    1  A    between atoms: C_1  and  C_2
REMARK    2  A    between atoms: C_2  and  N_3
REMARK    3  A    between atoms: C_7  and  C_10
REMARK    4  A    between atoms: C_13  and  O_16
REMARK    5  A    between atoms: O_16  and  C_17
REMARK    6  A    between atoms: C_17  and  C_18
REMARK    7  A    between atoms: C_18  and  C_19
REMARK    8  A    between atoms: C_18  and  C_25
REMARK    9  A    between atoms: C_18  and  O_33
REMARK   10  A    between atoms: C_19  and  N_20
REMARK                            x       y       z     vdW  Elec       q    Type
REMARK                         _______ _______ _______ _____ _____    ______ ____
ROOT
ATOM      1  O   UNL     1      -2.074   1.424   1.279  0.00  0.00    -0.489 OA
ENDROOT
BRANCH   1   5
ATOM      2  C   UNL     1      -4.439   2.483   4.493  0.00  0.00    -0.016 A 
ATOM      3  C   UNL     1      -4.957   1.678   3.481  0.00  0.00    +0.012 A 
ATOM      4  C   UNL     1      -4.165   1.325   2.408  0.00  0.00    +0.046 A 
ATOM      5  C   UNL     1      -2.852   1.772   2.337  0.00  0.00    +0.121 A 
ATOM      6  C   UNL     1      -2.332   2.570   3.346  0.00  0.00    +0.046 A 
ATOM      7  C   UNL     1      -3.121   2.930   4.419  0.00  0.00    +0.012 A 
BRANCH   2  12
ATOM      8  N   UNL     1      -7.750   3.845   8.798  0.00  0.00    -0.331 N 
ATOM      9  C   UNL     1      -6.911   3.520   7.739  0.00  0.00    +0.096 A 
ATOM     10  C   UNL     1      -5.604   4.000   7.725  0.00  0.00    +0.042 A 
ATOM     11  C   UNL     1      -4.775   3.668   6.673  0.00  0.00    +0.013 A 
ATOM     12  C   UNL     1      -5.288   2.864   5.649  0.00  0.00    -0.002 A 
ATOM     13  C   UNL     1      -6.605   2.422   5.732  0.00  0.00    +0.092 A 
ATOM     14  N   UNL     1      -7.364   2.756   6.756  0.00  0.00    -0.349 N 
ATOM     15  H   UNL     1      -8.784   3.469   8.816  0.00  0.00    +0.147 HD
ATOM     16  H   UNL     1      -8.399   2.384   6.782  0.00  0.00    +0.167 HD
BRANCH   8  18
ATOM     17  C   UNL     1      -8.373   4.893  10.918  0.00  0.00    +0.024 C 
ATOM     18  C   UNL     1      -7.258   4.689   9.890  0.00  0.00    +0.099 C 
ENDBRANCH   8  18
ENDBRANCH   2  12
ENDBRANCH   1   5
BRANCH   1  19
ATOM     19  C   UNL     1      -0.733   1.918   1.269  0.00  0.00    +0.270 C 
BRANCH  19  20
ATOM     20  C   UNL     1      -0.017   1.425   0.010  0.00  0.00    +0.147 C 
BRANCH  20  21
ATOM     21  C   UNL     1       1.397   1.946  -0.001  0.00  0.00    +0.024 A 
ATOM     22  C   UNL     1       2.459   1.062  -0.016  0.00  0.00    +0.012 A 
ATOM     23  C   UNL     1       3.756   1.539  -0.025  0.00  0.00    +0.039 A 
ATOM     24  C   UNL     1       3.993   2.904  -0.020  0.00  0.00    +0.126 A 
ATOM     25  C   UNL     1       2.930   3.790  -0.005  0.00  0.00    +0.077 A 
ATOM     26  C   UNL     1       1.631   3.311  -0.001  0.00  0.00    +0.132 A 
ATOM     27  F   UNL     1       0.592   4.175   0.007  0.00  0.00    -0.205 F 
ATOM     28  F   UNL     1       5.261   3.370  -0.029  0.00  0.00    -0.205 F 
ENDBRANCH  20  21
BRANCH  20  29
ATOM     29  O   UNL     1       0.002  -0.004   0.002  0.00  0.00    -0.379 OA
ATOM     30  H   UNL     1       0.478  -0.543  -0.831  0.00  0.00    +0.211 HD
ENDBRANCH  20  29
BRANCH  20  31
ATOM     31  C   UNL     1      -0.757   1.932  -1.230  0.00  0.00    +0.188 C 
BRANCH  31  32
ATOM     32  N   UNL     1      -2.163   1.525  -1.160  0.00  0.00    -0.249 N 
ATOM     33  C   UNL     1      -3.239   2.326  -1.239  0.00  0.00    +0.219 A 
ATOM     34  N   UNL     1      -4.309   1.581  -1.135  0.00  0.00    -0.223 NA
ATOM     35  C   UNL     1      -3.958   0.304  -0.988  0.00  0.00    +0.244 A 
ATOM     36  N   UNL     1      -2.654   0.218  -1.002  0.00  0.00    -0.158 NA
ENDBRANCH  31  32
ENDBRANCH  20  31
ENDBRANCH  19  20
ENDBRANCH   1  19
TORSDOF 9
