REMARK  Name = ZINC33088213
REMARK  5 active torsions:
REMARK  status: ('A' for Active; 'I' for Inactive)
REMARK    1  A    between atoms: C_1  and  C_2
REMARK    2  A    between atoms: C_14  and  C_16
REMARK    3  A    between atoms: C_17  and  C_23
REMARK    4  A    between atoms: C_26  and  S_29
REMARK    5  A    between atoms: S_29  and  C_30
REMARK                            x       y       z     vdW  Elec       q    Type
REMARK                         _______ _______ _______ _____ _____    ______ ____
ROOT
ATOM      1  C   UNL     1       0.178  -6.383  -0.030  0.00  0.00    +0.044 C 
ATOM      2  C   UNL     1      -0.169  -4.917  -0.020  0.00  0.00    -0.049 A 
ATOM      3  C   UNL     1      -1.496  -4.511  -0.006  0.00  0.00    +0.005 A 
ATOM      4  C   UNL     1      -1.839  -3.184   0.004  0.00  0.00    +0.029 A 
ATOM      5  C   UNL     1      -0.842  -2.180  -0.001  0.00  0.00    +0.081 A 
ATOM      6  C   UNL     1       0.498  -2.631  -0.015  0.00  0.00    +0.041 A 
ATOM      7  C   UNL     1       0.831  -3.963  -0.025  0.00  0.00    +0.020 A 
ATOM      8  S   UNL     1       1.409  -1.106  -0.017  0.00  0.00    -0.048 S 
ATOM      9  C   UNL     1       0.002  -0.004   0.002  0.00  0.00    +0.196 A 
ATOM     10  N   UNL     1      -1.008  -0.841   0.013  0.00  0.00    -0.221 NA
ATOM     11  N   UNL     1      -0.017   1.386   0.010  0.00  0.00    -0.193 N 
ATOM     12  C   UNL     1      -1.118   2.168   0.018  0.00  0.00    +0.135 A 
ATOM     13  C   UNL     1      -0.698   3.472   0.037  0.00  0.00    +0.023 A 
ATOM     14  C   UNL     1       0.690   3.475   0.021  0.00  0.00    +0.066 A 
ATOM     15  N   UNL     1       1.105   2.230   0.004  0.00  0.00    -0.168 NA
ATOM     16  C   UNL     1       1.570   4.699   0.023  0.00  0.00    +0.068 C 
ATOM     17  C   UNL     1      -1.663   4.630   0.070  0.00  0.00    +0.063 C 
ATOM     18  C   UNL     1      -2.964   4.190  -0.609  0.00  0.00    +0.109 C 
ATOM     19  C   UNL     1      -3.372   2.814  -0.163  0.00  0.00    +0.219 C 
ATOM     20  O   UNL     1      -4.548   2.580   0.019  0.00  0.00    -0.275 OA
ATOM     21  N   UNL     1      -2.470   1.831   0.043  0.00  0.00    -0.270 N 
ATOM     22  H   UNL     1      -2.774   0.790   0.225  0.00  0.00    +0.156 HD
ENDROOT
BRANCH  17  23
ATOM     23  C   UNL     1      -1.074   5.802  -0.672  0.00  0.00    -0.039 A 
ATOM     24  C   UNL     1      -0.744   5.677  -2.009  0.00  0.00    +0.005 A 
ATOM     25  C   UNL     1      -0.210   6.752  -2.693  0.00  0.00    +0.015 A 
ATOM     26  C   UNL     1       0.006   7.955  -2.033  0.00  0.00    +0.008 A 
ATOM     27  C   UNL     1      -0.322   8.075  -0.688  0.00  0.00    +0.015 A 
ATOM     28  C   UNL     1      -0.861   6.999  -0.012  0.00  0.00    +0.005 A 
BRANCH  26  29
ATOM     29  S   UNL     1       0.693   9.327  -2.901  0.00  0.00    -0.129 S 
ATOM     30  C   UNL     1       0.947   8.699  -4.583  0.00  0.00    +0.090 C 
ENDBRANCH  26  29
ENDBRANCH  17  23
TORSDOF 2
