REMARK  Name = ZINC36588332
REMARK  12 active torsions:
REMARK  status: ('A' for Active; 'I' for Inactive)
REMARK    1  A    between atoms: C_1  and  C_2
REMARK    2  A    between atoms: C_2  and  C_4
REMARK    3  A    between atoms: C_2  and  C_32
REMARK    4  A    between atoms: C_4  and  C_5
REMARK    5  A    between atoms: N_7  and  C_8
REMARK    6  A    between atoms: N_7  and  C_28
REMARK    7  A    between atoms: C_8  and  C_10
REMARK    8  A    between atoms: C_8  and  C_19
REMARK    9  A    between atoms: N_21  and  C_22
REMARK   10  A    between atoms: C_28  and  C_29
REMARK   11  A    between atoms: C_28  and  C_30
REMARK   12  A    between atoms: C_28  and  C_31
REMARK                            x       y       z     vdW  Elec       q    Type
REMARK                         _______ _______ _______ _____ _____    ______ ____
ROOT
ATOM      1  C   UNL     1      -1.307   0.589   4.288  0.00  0.00    +0.193 C 
ENDROOT
BRANCH   1   2
ATOM      2  C   UNL     1      -2.460  -0.175   4.886  0.00  0.00    -0.015 A 
ATOM      3  C   UNL     1      -2.219  -1.173   5.812  0.00  0.00    +0.010 A 
ATOM      4  C   UNL     1      -3.273  -1.877   6.363  0.00  0.00    +0.050 A 
ATOM      5  C   UNL     1      -4.574  -1.584   5.989  0.00  0.00    +0.166 A 
ATOM      6  C   UNL     1      -4.817  -0.579   5.056  0.00  0.00    +0.167 A 
ATOM      7  C   UNL     1      -3.756   0.127   4.511  0.00  0.00    +0.055 A 
ATOM      8  O   UNL     1      -6.164  -0.483   4.857  0.00  0.00    -0.453 OA
ATOM      9  C   UNL     1      -6.716  -1.711   5.368  0.00  0.00    +0.466 C 
ATOM     10  O   UNL     1      -5.770  -2.119   6.374  0.00  0.00    -0.453 OA
ENDBRANCH   1   2
BRANCH   1  11
ATOM     11  C   UNL     1      -0.814   1.612   5.279  0.00  0.00    +0.238 C 
ATOM     12  O   UNL     1       0.375   1.727   5.492  0.00  0.00    -0.273 OA
ATOM     13  N   UNL     1      -1.694   2.398   5.931  0.00  0.00    -0.311 N 
ATOM     14  H   UNL     1      -2.644   2.306   5.761  0.00  0.00    +0.149 HD
BRANCH  13  15
ATOM     15  C   UNL     1      -1.215   3.392   6.894  0.00  0.00    +0.073 C 
ATOM     16  C   UNL     1      -1.023   2.727   8.259  0.00  0.00    +0.022 C 
ATOM     17  C   UNL     1      -0.522   3.765   9.266  0.00  0.00    +0.002 C 
ATOM     18  C   UNL     1      -1.548   4.893   9.388  0.00  0.00    +0.000 C 
ATOM     19  C   UNL     1      -1.741   5.558   8.023  0.00  0.00    +0.002 C 
ATOM     20  C   UNL     1      -2.241   4.520   7.017  0.00  0.00    +0.022 C 
ENDBRANCH  13  15
ENDBRANCH   1  11
BRANCH   1  23
ATOM     21  C   UNL     1       0.587  -0.799   4.939  0.00  0.00    +0.217 C 
ATOM     22  O   UNL     1       0.398  -0.467   6.090  0.00  0.00    -0.276 OA
ATOM     23  N   UNL     1      -0.221  -0.339   3.963  0.00  0.00    -0.281 N 
BRANCH  23  24
ATOM     24  C   UNL     1      -0.014  -0.768   2.578  0.00  0.00    +0.030 C 
ATOM     25  C   UNL     1       0.216  -2.280   2.541  0.00  0.00    +0.031 C 
ATOM     26  C   UNL     1      -1.250  -0.420   1.746  0.00  0.00    +0.031 C 
ATOM     27  C   UNL     1       1.208  -0.052   2.000  0.00  0.00    +0.031 C 
ENDBRANCH  23  24
BRANCH  21  28
ATOM     28  C   UNL     1       1.726  -1.725   4.600  0.00  0.00    +0.104 C 
BRANCH  28  30
ATOM     29  C   UNL     1       1.943  -2.496   6.966  0.00  0.00    +0.013 C 
ATOM     30  C   UNL     1       2.672  -1.830   5.798  0.00  0.00    +0.025 C 
BRANCH  30  31
ATOM     31  C   UNL     1       3.873  -2.657   5.418  0.00  0.00    -0.044 A 
ATOM     32  C   UNL     1       3.709  -3.965   5.002  0.00  0.00    +0.004 A 
ATOM     33  C   UNL     1       4.811  -4.723   4.654  0.00  0.00    +0.000 A 
ATOM     34  C   UNL     1       6.077  -4.174   4.722  0.00  0.00    +0.000 A 
ATOM     35  C   UNL     1       6.242  -2.866   5.138  0.00  0.00    +0.000 A 
ATOM     36  C   UNL     1       5.140  -2.106   5.482  0.00  0.00    +0.004 A 
ENDBRANCH  30  31
ENDBRANCH  28  30
ENDBRANCH  21  28
ENDBRANCH   1  23
TORSDOF 8
