REMARK  Name = ZINC02111704
REMARK  11 active torsions:
REMARK  status: ('A' for Active; 'I' for Inactive)
REMARK    1  A    between atoms: C_1  and  C_2
REMARK    2  A    between atoms: C_2  and  C_3
REMARK    3  A    between atoms: C_3  and  C_5
REMARK    4  A    between atoms: C_3  and  C_6
REMARK    5  A    between atoms: C_9  and  C_12
REMARK    6  A    between atoms: C_12  and  C_14
REMARK    7  A    between atoms: C_12  and  N_15
REMARK    8  A    between atoms: C_16  and  C_18
REMARK    9  A    between atoms: C_24  and  O_29
REMARK   10  A    between atoms: O_29  and  C_30
REMARK   11  A    between atoms: C_30  and  C_31
REMARK                            x       y       z     vdW  Elec       q    Type
REMARK                         _______ _______ _______ _____ _____    ______ ____
ROOT
ATOM      1  N   UNL     1      -3.816   3.901   6.856  0.00  0.00    -0.305 N 
ATOM      2  C   UNL     1      -4.019   3.888   8.188  0.00  0.00    +0.251 C 
ATOM      3  O   UNL     1      -3.550   4.769   8.884  0.00  0.00    -0.270 OA
ATOM      4  H   UNL     1      -4.191   3.199   6.301  0.00  0.00    +0.150 HD
ENDROOT
BRANCH   2   5
ATOM      5  C   UNL     1      -4.809   2.807   8.802  0.00  0.00    +0.122 A 
ATOM      6  C   UNL     1      -5.354   1.802   8.022  0.00  0.00    +0.032 A 
ATOM      7  C   UNL     1      -6.104   0.779   8.655  0.00  0.00    +0.022 A 
ATOM      8  C   UNL     1      -6.666  -0.258   7.894  0.00  0.00    +0.012 A 
ATOM      9  C   UNL     1      -7.391  -1.238   8.507  0.00  0.00    +0.004 A 
ATOM     10  C   UNL     1      -7.578  -1.222   9.882  0.00  0.00    +0.049 A 
ATOM     11  C   UNL     1      -7.035  -0.211  10.653  0.00  0.00    +0.163 A 
ATOM     12  C   UNL     1      -6.290   0.802  10.048  0.00  0.00    +0.180 A 
ATOM     13  O   UNL     1      -5.760   1.790  10.801  0.00  0.00    -0.418 OA
ATOM     14  C   UNL     1      -5.038   2.780  10.251  0.00  0.00    +0.350 A 
ATOM     15  O   UNL     1      -4.572   3.656  10.956  0.00  0.00    -0.244 OA
BRANCH  11  16
ATOM     16  O   UNL     1      -7.225  -0.204  11.999  0.00  0.00    -0.489 OA
BRANCH  16  17
ATOM     17  C   UNL     1      -7.998  -1.273  12.550  0.00  0.00    +0.226 C 
ATOM     18  C   UNL     1      -8.103  -1.097  14.067  0.00  0.00    +0.048 C 
ENDBRANCH  16  17
ENDBRANCH  11  16
ENDBRANCH   2   5
BRANCH   1  19
ATOM     19  C   UNL     1      -3.030   4.977   6.245  0.00  0.00    +0.100 C 
ATOM     20  C   UNL     1      -3.937   6.178   5.972  0.00  0.00    +0.033 C 
BRANCH  19  24
ATOM     21  C   UNL     1      -1.345   3.596   2.571  0.00  0.00    -0.045 A 
ATOM     22  C   UNL     1      -2.638   3.248   2.912  0.00  0.00    +0.004 A 
ATOM     23  C   UNL     1      -3.182   3.691   4.103  0.00  0.00    +0.006 A 
ATOM     24  C   UNL     1      -2.436   4.490   4.949  0.00  0.00    -0.027 A 
ATOM     25  C   UNL     1      -1.144   4.843   4.605  0.00  0.00    +0.006 A 
ATOM     26  C   UNL     1      -0.599   4.396   3.416  0.00  0.00    +0.004 A 
BRANCH  21  27
ATOM     27  C   UNL     1      -0.750   3.109   1.275  0.00  0.00    +0.016 C 
ATOM     28  C   UNL     1      -1.595   3.614   0.104  0.00  0.00    +0.012 C 
BRANCH  27  30
ATOM     29  C   UNL     1      -0.013   1.086   0.008  0.00  0.00    +0.004 C 
ATOM     30  C   UNL     1      -0.729   1.579   1.267  0.00  0.00    +0.004 C 
ENDBRANCH  27  30
ENDBRANCH  21  27
ENDBRANCH  19  24
ENDBRANCH   1  19
TORSDOF 7
