REMARK  Name = ZINC63506494
REMARK  6 active torsions:
REMARK  status: ('A' for Active; 'I' for Inactive)
REMARK    1  A    between atoms: C_1  and  C_2
REMARK    2  A    between atoms: C_5  and  C_8
REMARK    3  A    between atoms: N_25  and  C_26
REMARK    4  A    between atoms: C_29  and  C_32
REMARK    5  A    between atoms: C_32  and  O_34
REMARK    6  A    between atoms: O_34  and  C_35
REMARK                            x       y       z     vdW  Elec       q    Type
REMARK                         _______ _______ _______ _____ _____    ______ ____
ROOT
ATOM      1  C   UNL     1      -0.486  -4.584   0.743  0.00  0.00    +0.134 C 
ATOM      2  C   UNL     1      -1.601  -5.452   1.338  0.00  0.00    +0.131 C 
ATOM      3  C   UNL     1      -1.103  -6.891   1.294  0.00  0.00    -0.035 C 
ATOM      4  C   UNL     1      -2.012  -7.582   0.617  0.00  0.00    -0.001 A 
ATOM      5  C   UNL     1      -2.121  -9.016   0.306  0.00  0.00    +0.010 A 
ATOM      6  C   UNL     1      -3.198  -9.389  -0.434  0.00  0.00    +0.001 A 
ATOM      7  C   UNL     1      -4.166  -8.490  -0.891  0.00  0.00    +0.002 A 
ATOM      8  C   UNL     1      -4.148  -7.155  -0.649  0.00  0.00    +0.026 A 
ATOM      9  C   UNL     1      -3.066  -6.643   0.124  0.00  0.00    +0.043 A 
ATOM     10  N   UNL     1      -2.817  -5.408   0.524  0.00  0.00    -0.375 N 
ATOM     11  C   UNL     1       0.226  -7.306   1.875  0.00  0.00    +0.052 C 
ATOM     12  C   UNL     1       1.280  -6.339   1.306  0.00  0.00    +0.114 C 
ATOM     13  N   UNL     1       0.778  -4.964   1.394  0.00  0.00    -0.276 N 
ATOM     14  C   UNL     1       1.480  -4.039   2.078  0.00  0.00    +0.307 C 
ATOM     15  O   UNL     1       0.993  -2.947   2.300  0.00  0.00    -0.252 OA
ATOM     16  N   UNL     1       2.723  -4.324   2.516  0.00  0.00    -0.269 N 
ATOM     17  H   UNL     1       3.149  -5.156   2.256  0.00  0.00    +0.156 HD
ATOM     18  H   UNL     1      -3.334  -4.613   0.319  0.00  0.00    +0.160 HD
ENDROOT
BRANCH   1  23
ATOM     19  C   UNL     1      -1.601   0.996   1.747  0.00  0.00    +0.044 C 
ATOM     20  C   UNL     1      -1.310  -0.459   1.485  0.00  0.00    -0.050 A 
ATOM     21  C   UNL     1      -1.645  -1.411   2.429  0.00  0.00    +0.004 A 
ATOM     22  C   UNL     1      -1.379  -2.746   2.189  0.00  0.00    +0.006 A 
ATOM     23  C   UNL     1      -0.777  -3.129   1.005  0.00  0.00    -0.025 A 
ATOM     24  C   UNL     1      -0.443  -2.177   0.060  0.00  0.00    +0.006 A 
ATOM     25  C   UNL     1      -0.713  -0.842   0.298  0.00  0.00    +0.004 A 
ENDBRANCH   1  23
BRANCH  16  26
ATOM     26  C   UNL     1       3.395  -3.424   3.341  0.00  0.00    +0.035 A 
ATOM     27  C   UNL     1       3.135  -2.061   3.238  0.00  0.00    +0.024 A 
ATOM     28  C   UNL     1       3.797  -1.169   4.051  0.00  0.00    +0.017 A 
ATOM     29  C   UNL     1       4.731  -1.635   4.982  0.00  0.00    +0.059 A 
ATOM     30  C   UNL     1       4.989  -3.005   5.083  0.00  0.00    +0.017 A 
ATOM     31  C   UNL     1       4.319  -3.891   4.270  0.00  0.00    +0.024 A 
BRANCH  29  32
ATOM     32  C   UNL     1       5.442  -0.682   5.854  0.00  0.00    +0.339 C 
ATOM     33  O   UNL     1       5.218   0.508   5.765  0.00  0.00    -0.245 OA
BRANCH  32  34
ATOM     34  O   UNL     1       6.342  -1.133   6.751  0.00  0.00    -0.464 OA
ATOM     35  C   UNL     1       6.993  -0.154   7.564  0.00  0.00    +0.280 C 
ENDBRANCH  32  34
ENDBRANCH  29  32
ENDBRANCH  16  26
TORSDOF 4
