REMARK  Name = ZINC50830803
REMARK  10 active torsions:
REMARK  status: ('A' for Active; 'I' for Inactive)
REMARK    1  A    between atoms: C_1  and  C_2
REMARK    2  A    between atoms: C_5  and  C_18
REMARK    3  A    between atoms: C_6  and  O_8
REMARK    4  A    between atoms: O_8  and  C_9
REMARK    5  A    between atoms: C_9  and  C_10
REMARK    6  A    between atoms: C_11  and  C_17
REMARK    7  A    between atoms: N_13  and  C_16
REMARK    8  A    between atoms: C_14  and  N_15
REMARK    9  A    between atoms: C_18  and  C_19
REMARK   10  A    between atoms: C_18  and  C_20
REMARK                            x       y       z     vdW  Elec       q    Type
REMARK                         _______ _______ _______ _____ _____    ______ ____
ROOT
ATOM      1  C   UNL     1       0.045  -2.006   3.562  0.00  0.00    +0.269 C 
ENDROOT
BRANCH   1   2
ATOM      2  C   UNL     1       0.063  -2.932   4.751  0.00  0.00    +0.049 A 
ATOM      3  C   UNL     1      -1.057  -3.457   5.402  0.00  0.00    +0.039 A 
ATOM      4  N   UNL     1      -0.643  -4.217   6.384  0.00  0.00    -0.300 N 
ATOM      5  N   UNL     1       0.758  -4.202   6.394  0.00  0.00    -0.276 N 
ATOM      6  C   UNL     1       1.173  -3.410   5.378  0.00  0.00    +0.119 A 
ATOM      7  C   UNL     1       1.621  -4.922   7.333  0.00  0.00    +0.172 C 
ATOM      8  C   UNL     1      -2.495  -3.194   5.036  0.00  0.00    +0.065 C 
ATOM      9  H   UNL     1      -1.210  -4.706   7.000  0.00  0.00    +0.187 HD
BRANCH   6  10
ATOM     10  N   UNL     1       2.494  -3.133   5.039  0.00  0.00    -0.343 N 
ATOM     11  H   UNL     1       2.689  -2.547   4.291  0.00  0.00    +0.144 HD
ATOM     12  H   UNL     1       3.219  -3.525   5.551  0.00  0.00    +0.144 HD
ENDBRANCH   6  10
ENDBRANCH   1   2
BRANCH   1  13
ATOM     13  O   UNL     1       0.050  -2.776   2.358  0.00  0.00    -0.487 OA
BRANCH  13  19
ATOM     14  C   UNL     1      -0.018   1.503   0.010  0.00  0.00    +0.044 C 
ATOM     15  C   UNL     1       0.002  -0.004   0.002  0.00  0.00    -0.047 A 
ATOM     16  C   UNL     1       0.006  -0.688  -1.200  0.00  0.00    +0.004 A 
ATOM     17  C   UNL     1       0.024  -2.071  -1.211  0.00  0.00    +0.008 A 
ATOM     18  C   UNL     1       0.039  -2.772  -0.020  0.00  0.00    -0.003 A 
ATOM     19  C   UNL     1       0.035  -2.088   1.186  0.00  0.00    +0.125 A 
ATOM     20  C   UNL     1       0.023  -0.700   1.195  0.00  0.00    +0.049 A 
BRANCH  18  21
ATOM     21  C   UNL     1       0.059  -4.279  -0.033  0.00  0.00    +0.016 C 
ATOM     22  C   UNL     1      -1.188  -4.799  -0.753  0.00  0.00    +0.012 C 
ATOM     23  C   UNL     1       1.311  -4.766  -0.764  0.00  0.00    +0.012 C 
ENDBRANCH  18  21
ENDBRANCH  13  19
ENDBRANCH   1  13
TORSDOF 5
