REMARK  Name = ZINC36571180
REMARK  17 active torsions:
REMARK  status: ('A' for Active; 'I' for Inactive)
REMARK    1  A    between atoms: C_1  and  C_2
REMARK    2  A    between atoms: C_2  and  C_3
REMARK    3  A    between atoms: C_3  and  N_4
REMARK    4  A    between atoms: N_4  and  C_5
REMARK    5  A    between atoms: C_5  and  C_7
REMARK    6  A    between atoms: C_5  and  C_16
REMARK    7  A    between atoms: N_18  and  C_19
REMARK    8  A    between atoms: C_19  and  C_20
REMARK    9  A    between atoms: C_19  and  C_21
REMARK   10  A    between atoms: C_19  and  C_22
REMARK   11  A    between atoms: C_22  and  C_23
REMARK   12  A    between atoms: C_23  and  C_24
REMARK   13  A    between atoms: C_23  and  C_25
REMARK   14  A    between atoms: C_23  and  C_26
REMARK   15  A    between atoms: C_27  and  C_29
REMARK   16  A    between atoms: C_30  and  O_36
REMARK   17  A    between atoms: C_34  and  O_35
REMARK                            x       y       z     vdW  Elec       q    Type
REMARK                         _______ _______ _______ _____ _____    ______ ____
ROOT
ATOM      1  C   UNL     1      -0.247  -2.763  -2.951  0.00  0.00    +0.193 C 
ENDROOT
BRANCH   1   2
ATOM      2  C   UNL     1      -1.099  -3.395  -1.881  0.00  0.00    -0.015 A 
ATOM      3  C   UNL     1      -1.738  -2.599  -0.949  0.00  0.00    +0.010 A 
ATOM      4  C   UNL     1      -2.521  -3.174   0.034  0.00  0.00    +0.050 A 
ATOM      5  C   UNL     1      -2.667  -4.551   0.088  0.00  0.00    +0.166 A 
ATOM      6  C   UNL     1      -2.023  -5.353  -0.851  0.00  0.00    +0.167 A 
ATOM      7  C   UNL     1      -1.245  -4.769  -1.837  0.00  0.00    +0.055 A 
ATOM      8  O   UNL     1      -2.322  -6.658  -0.588  0.00  0.00    -0.453 OA
ATOM      9  C   UNL     1      -2.821  -6.674   0.763  0.00  0.00    +0.466 C 
ATOM     10  O   UNL     1      -3.369  -5.354   0.940  0.00  0.00    -0.453 OA
ENDBRANCH   1   2
BRANCH   1  11
ATOM     11  C   UNL     1      -1.116  -2.369  -4.118  0.00  0.00    +0.239 C 
ATOM     12  O   UNL     1      -0.942  -1.303  -4.670  0.00  0.00    -0.273 OA
ATOM     13  N   UNL     1      -2.086  -3.200  -4.547  0.00  0.00    -0.308 N 
ATOM     14  H   UNL     1      -2.224  -4.052  -4.106  0.00  0.00    +0.149 HD
BRANCH  13  15
ATOM     15  C   UNL     1      -2.930  -2.816  -5.681  0.00  0.00    +0.030 C 
ATOM     16  C   UNL     1      -3.794  -1.615  -5.290  0.00  0.00    +0.031 C 
ATOM     17  C   UNL     1      -2.046  -2.442  -6.872  0.00  0.00    +0.031 C 
BRANCH  15  18
ATOM     18  C   UNL     1      -3.833  -3.990  -6.065  0.00  0.00    +0.031 C 
BRANCH  18  19
ATOM     19  C   UNL     1      -3.098  -5.306  -5.801  0.00  0.00    -0.036 C 
ATOM     20  C   UNL     1      -3.260  -5.694  -4.330  0.00  0.00    +0.010 C 
ATOM     21  C   UNL     1      -3.687  -6.406  -6.687  0.00  0.00    +0.010 C 
ATOM     22  C   UNL     1      -1.612  -5.134  -6.122  0.00  0.00    +0.010 C 
ENDBRANCH  18  19
ENDBRANCH  15  18
ENDBRANCH  13  15
ENDBRANCH   1  11
BRANCH   1  23
ATOM     23  N   UNL     1       0.414  -1.573  -2.410  0.00  0.00    -0.282 N 
ATOM     24  C   UNL     1       1.346  -1.700  -1.444  0.00  0.00    +0.255 C 
ATOM     25  O   UNL     1       1.637  -2.803  -1.022  0.00  0.00    -0.270 OA
BRANCH  24  26
ATOM     26  C   UNL     1       2.010  -0.504  -0.900  0.00  0.00    +0.119 A 
ATOM     27  C   UNL     1       1.468   0.161   0.209  0.00  0.00    +0.133 A 
ATOM     28  C   UNL     1       2.102   1.285   0.714  0.00  0.00    +0.046 A 
ATOM     29  C   UNL     1       3.264   1.751   0.127  0.00  0.00    +0.007 A 
ATOM     30  C   UNL     1       3.806   1.103  -0.967  0.00  0.00    +0.046 A 
ATOM     31  C   UNL     1       3.192  -0.026  -1.484  0.00  0.00    +0.133 A 
BRANCH  31  32
ATOM     32  O   UNL     1       3.729  -0.664  -2.554  0.00  0.00    -0.506 OA
ATOM     33  H   UNL     1       3.411  -0.338  -3.407  0.00  0.00    +0.292 HD
ENDBRANCH  31  32
BRANCH  27  34
ATOM     34  O   UNL     1       0.328  -0.294   0.786  0.00  0.00    -0.506 OA
ATOM     35  H   UNL     1       0.475  -0.937   1.493  0.00  0.00    +0.292 HD
ENDBRANCH  27  34
ENDBRANCH  24  26
BRANCH  23  36
ATOM     36  C   UNL     1       0.063  -0.245  -2.919  0.00  0.00    +0.109 C 
BRANCH  36  38
ATOM     37  C   UNL     1      -1.741   1.479  -3.045  0.00  0.00    +0.005 C 
ATOM     38  C   UNL     1      -1.387   0.074  -2.552  0.00  0.00    +0.016 C 
ENDBRANCH  36  38
ENDBRANCH  23  36
ENDBRANCH   1  23
TORSDOF 11
