REMARK  Name = ZINC40191125
REMARK  12 active torsions:
REMARK  status: ('A' for Active; 'I' for Inactive)
REMARK    1  A    between atoms: C_1  and  C_2
REMARK    2  A    between atoms: C_6  and  O_9
REMARK    3  A    between atoms: C_7  and  C_8
REMARK    4  A    between atoms: O_9  and  C_10
REMARK    5  A    between atoms: C_10  and  C_11
REMARK    6  A    between atoms: C_11  and  C_12
REMARK    7  A    between atoms: C_12  and  N_13
REMARK    8  A    between atoms: C_21  and  C_22
REMARK    9  A    between atoms: C_22  and  C_24
REMARK   10  A    between atoms: C_22  and  N_25
REMARK   11  A    between atoms: C_26  and  C_28
REMARK   12  A    between atoms: C_28  and  C_30
REMARK                            x       y       z     vdW  Elec       q    Type
REMARK                         _______ _______ _______ _____ _____    ______ ____
ROOT
ATOM      1  N   UNL     1       0.116  -6.893   4.943  0.00  0.00    -0.326 N 
ATOM      2  C   UNL     1       1.236  -7.190   5.694  0.00  0.00    +0.069 A 
ATOM      3  C   UNL     1       2.603  -7.076   5.479  0.00  0.00    +0.028 A 
ATOM      4  C   UNL     1       3.484  -7.475   6.461  0.00  0.00    +0.002 A 
ATOM      5  C   UNL     1       3.014  -7.990   7.661  0.00  0.00    +0.002 A 
ATOM      6  C   UNL     1       1.672  -8.110   7.890  0.00  0.00    +0.030 A 
ATOM      7  C   UNL     1       0.760  -7.711   6.909  0.00  0.00    +0.089 A 
ATOM      8  N   UNL     1      -0.596  -7.705   6.838  0.00  0.00    -0.230 NA
ATOM      9  C   UNL     1      -0.972  -7.221   5.691  0.00  0.00    +0.131 A 
ENDROOT
BRANCH   9  10
ATOM     10  C   UNL     1      -2.403  -7.051   5.252  0.00  0.00    +0.136 C 
ATOM     11  C   UNL     1      -2.990  -8.416   4.888  0.00  0.00    +0.036 C 
BRANCH  10  12
ATOM     12  N   UNL     1      -3.182  -6.460   6.344  0.00  0.00    -0.302 N 
ATOM     13  C   UNL     1      -4.302  -5.762   6.072  0.00  0.00    +0.240 C 
ATOM     14  O   UNL     1      -4.667  -5.622   4.920  0.00  0.00    -0.271 OA
ATOM     15  H   UNL     1      -2.891  -6.572   7.262  0.00  0.00    +0.150 HD
BRANCH  13  16
ATOM     16  C   UNL     1      -5.083  -5.169   7.168  0.00  0.00    +0.004 C 
ATOM     17  C   UNL     1      -6.189  -4.480   6.899  0.00  0.00    +0.017 C 
ATOM     18  C   UNL     1      -4.631  -5.342   8.595  0.00  0.00    +0.048 C 
ENDBRANCH  13  16
ENDBRANCH  10  12
ENDBRANCH   9  10
BRANCH   1  19
ATOM     19  C   UNL     1       0.103  -6.324   3.593  0.00  0.00    +0.127 C 
BRANCH  19  20
ATOM     20  C   UNL     1       0.083  -4.796   3.683  0.00  0.00    +0.062 C 
BRANCH  20  21
ATOM     21  C   UNL     1       0.069  -4.202   2.274  0.00  0.00    +0.231 C 
BRANCH  21  22
ATOM     22  O   UNL     1       0.050  -2.776   2.358  0.00  0.00    -0.492 OA
BRANCH  22  28
ATOM     23  C   UNL     1      -0.018   1.503   0.010  0.00  0.00    +0.044 C 
ATOM     24  C   UNL     1       0.002  -0.004   0.002  0.00  0.00    -0.044 A 
ATOM     25  C   UNL     1       0.006  -0.688  -1.200  0.00  0.00    +0.004 A 
ATOM     26  C   UNL     1       0.024  -2.071  -1.211  0.00  0.00    +0.004 A 
ATOM     27  C   UNL     1       0.039  -2.772  -0.020  0.00  0.00    +0.046 A 
ATOM     28  C   UNL     1       0.035  -2.088   1.186  0.00  0.00    +0.124 A 
ATOM     29  C   UNL     1       0.023  -0.700   1.195  0.00  0.00    -0.006 A 
ATOM     30  C   UNL     1       0.026   0.046   2.504  0.00  0.00    +0.048 C 
ENDBRANCH  22  28
ENDBRANCH  21  22
ENDBRANCH  20  21
ENDBRANCH  19  20
ENDBRANCH   1  19
TORSDOF 8
