REMARK  Name = ZINC36633750
REMARK  9 active torsions:
REMARK  status: ('A' for Active; 'I' for Inactive)
REMARK    1  A    between atoms: C_1  and  C_2
REMARK    2  A    between atoms: C_2  and  O_3
REMARK    3  A    between atoms: O_3  and  C_4
REMARK    4  A    between atoms: C_4  and  C_6
REMARK    5  A    between atoms: C_9  and  N_12
REMARK    6  A    between atoms: N_12  and  N_13
REMARK    7  A    between atoms: C_21  and  C_32
REMARK    8  A    between atoms: C_24  and  C_26
REMARK    9  A    between atoms: C_37  and  O_38
REMARK                            x       y       z     vdW  Elec       q    Type
REMARK                         _______ _______ _______ _____ _____    ______ ____
ROOT
ATOM      1  N   UNL     1       3.470  -5.280  -6.052  0.00  0.00    -0.172 NA
ATOM      2  C   UNL     1       4.072  -5.767  -7.109  0.00  0.00    +0.163 C 
ATOM      3  C   UNL     1       4.297  -7.170  -7.505  0.00  0.00    +0.169 C 
ATOM      4  N   UNL     1       4.932  -7.372  -8.621  0.00  0.00    -0.151 NA
ATOM      5  C   UNL     1       5.368  -6.363  -9.387  0.00  0.00    +0.303 C 
ATOM      6  O   UNL     1       5.971  -6.419 -10.446  0.00  0.00    -0.260 OA
ATOM      7  S   UNL     1       4.843  -4.916  -8.480  0.00  0.00    -0.005 S 
ATOM      8  N   UNL     1       3.856  -8.215  -6.730  0.00  0.00    -0.199 N 
ATOM      9  C   UNL     1       4.036  -9.643  -7.036  0.00  0.00    +0.139 C 
ATOM     10  C   UNL     1       3.358 -10.355  -5.849  0.00  0.00    +0.087 C 
ATOM     11  C   UNL     1       2.857  -9.223  -4.982  0.00  0.00    +0.069 C 
ATOM     12  N   UNL     1       3.170  -8.095  -5.523  0.00  0.00    -0.182 NA
ENDROOT
BRANCH  11  13
ATOM     13  C   UNL     1       2.128  -9.383  -3.710  0.00  0.00    -0.002 A 
ATOM     14  C   UNL     1       1.854 -10.660  -3.214  0.00  0.00    +0.010 A 
ATOM     15  C   UNL     1       1.172 -10.802  -2.024  0.00  0.00    +0.001 A 
ATOM     16  C   UNL     1       0.758  -9.684  -1.322  0.00  0.00    +0.000 A 
ATOM     17  C   UNL     1       1.026  -8.415  -1.807  0.00  0.00    +0.001 A 
ATOM     18  C   UNL     1       1.713  -8.258  -2.993  0.00  0.00    +0.010 A 
ENDBRANCH  11  13
BRANCH   9  19
ATOM     19  C   UNL     1       5.501  -9.990  -7.100  0.00  0.00    +0.017 A 
ATOM     20  C   UNL     1       6.426  -9.211  -6.433  0.00  0.00    +0.009 A 
ATOM     21  C   UNL     1       7.771  -9.529  -6.492  0.00  0.00    +0.001 A 
ATOM     22  C   UNL     1       8.192 -10.627  -7.219  0.00  0.00    +0.004 A 
ATOM     23  C   UNL     1       7.271 -11.409  -7.888  0.00  0.00    +0.046 A 
ATOM     24  C   UNL     1       5.921 -11.095  -7.826  0.00  0.00    +0.122 A 
BRANCH  24  25
ATOM     25  O   UNL     1       5.012 -11.867  -8.479  0.00  0.00    -0.506 OA
ATOM     26  H   UNL     1       4.837 -11.584  -9.387  0.00  0.00    +0.292 HD
ENDBRANCH  24  25
ENDBRANCH   9  19
BRANCH   1  27
ATOM     27  N   UNL     1       3.366  -3.893  -5.881  0.00  0.00    -0.237 N 
ATOM     28  H   UNL     1       3.739  -3.293  -6.546  0.00  0.00    +0.174 HD
BRANCH  27  32
ATOM     29  C   UNL     1       1.453  -2.347  -2.524  0.00  0.00    +0.059 A 
ATOM     30  C   UNL     1       1.993  -1.483  -3.483  0.00  0.00    +0.017 A 
ATOM     31  C   UNL     1       2.625  -1.998  -4.592  0.00  0.00    +0.025 A 
ATOM     32  C   UNL     1       2.728  -3.377  -4.760  0.00  0.00    +0.048 A 
ATOM     33  C   UNL     1       2.191  -4.239  -3.807  0.00  0.00    +0.025 A 
ATOM     34  C   UNL     1       1.563  -3.730  -2.693  0.00  0.00    +0.017 A 
BRANCH  29  35
ATOM     35  C   UNL     1       0.776  -1.799  -1.335  0.00  0.00    +0.339 C 
ATOM     36  O   UNL     1       0.312  -2.550  -0.500  0.00  0.00    -0.245 OA
BRANCH  35  37
ATOM     37  O   UNL     1       0.671  -0.465  -1.174  0.00  0.00    -0.461 OA
BRANCH  37  39
ATOM     38  C   UNL     1      -0.019   1.526   0.010  0.00  0.00    +0.048 C 
ATOM     39  C   UNL     1       0.002  -0.004   0.002  0.00  0.00    +0.229 C 
ENDBRANCH  37  39
ENDBRANCH  35  37
ENDBRANCH  29  35
ENDBRANCH  27  32
ENDBRANCH   1  27
TORSDOF 8
