REMARK  Name = ZINC39956379
REMARK  4 active torsions:
REMARK  status: ('A' for Active; 'I' for Inactive)
REMARK    1  A    between atoms: C_3  and  C_6
REMARK    2  A    between atoms: C_6  and  N_7
REMARK    3  A    between atoms: N_7  and  C_8
REMARK    4  A    between atoms: C_13  and  N_14
REMARK                            x       y       z     vdW  Elec       q    Type
REMARK                         _______ _______ _______ _____ _____    ______ ____
ROOT
ATOM      1  C   UNL     1       5.632   2.231   1.636  0.00  0.00    +0.059 A 
ATOM      2  C   UNL     1       6.504   2.449   0.577  0.00  0.00    +0.040 A 
ATOM      3  C   UNL     1       7.681   3.142   0.785  0.00  0.00    +0.020 A 
ATOM      4  C   UNL     1       7.991   3.618   2.047  0.00  0.00    +0.017 A 
ATOM      5  C   UNL     1       7.125   3.402   3.103  0.00  0.00    +0.036 A 
ATOM      6  C   UNL     1       5.944   2.716   2.900  0.00  0.00    +0.147 A 
ATOM      7 BR   UNL     1       8.869   3.439  -0.656  0.00  0.00    -0.050 Br
ENDROOT
BRANCH   6   8
ATOM      8  N   UNL     1       5.014   2.492   4.030  0.00  0.00    +0.058 N 
ATOM      9  O   UNL     1       3.820   2.543   3.849  0.00  0.00    -0.126 OA
ATOM     10  O   UNL     1       5.449   2.257   5.133  0.00  0.00    -0.126 OA
ENDBRANCH   6   8
BRANCH   1  11
ATOM     11  N   UNL     1       4.441   1.531   1.430  0.00  0.00    -0.337 N 
ATOM     12  H   UNL     1       3.874   1.305   2.184  0.00  0.00    +0.146 HD
BRANCH  11  13
ATOM     13  C   UNL     1       4.048   1.137   0.074  0.00  0.00    +0.144 C 
BRANCH  13  16
ATOM     14  C   UNL     1       0.407   0.020   0.113  0.00  0.00    +0.008 A 
ATOM     15  C   UNL     1       1.475   0.894   0.040  0.00  0.00    +0.013 A 
ATOM     16  C   UNL     1       2.735   0.400   0.126  0.00  0.00    +0.007 A 
ATOM     17  S   UNL     1       2.434  -1.349   0.316  0.00  0.00    -0.100 S 
ATOM     18  C   UNL     1       0.650  -1.304   0.267  0.00  0.00    +0.045 A 
ENDBRANCH  13  16
ENDBRANCH  11  13
ENDBRANCH   1  11
TORSDOF 4
