REMARK  Name = ZINC36637393
REMARK  11 active torsions:
REMARK  status: ('A' for Active; 'I' for Inactive)
REMARK    1  A    between atoms: C_1  and  C_2
REMARK    2  A    between atoms: C_2  and  C_3
REMARK    3  A    between atoms: N_12  and  C_13
REMARK    4  A    between atoms: C_13  and  C_14
REMARK    5  A    between atoms: C_14  and  N_15
REMARK    6  A    between atoms: N_15  and  C_16
REMARK    7  A    between atoms: N_15  and  C_17
REMARK    8  A    between atoms: C_18  and  C_20
REMARK    9  A    between atoms: C_23  and  S_26
REMARK   10  A    between atoms: S_26  and  N_29
REMARK   11  A    between atoms: C_34  and  C_36
REMARK                            x       y       z     vdW  Elec       q    Type
REMARK                         _______ _______ _______ _____ _____    ______ ____
ROOT
ATOM      1  C   UNL     1      -0.859  -0.341   1.097  0.00  0.00    -0.046 A 
ATOM      2  C   UNL     1       0.455  -0.769   0.970  0.00  0.00    +0.006 A 
ATOM      3  C   UNL     1       1.125  -1.343   2.019  0.00  0.00    +0.029 A 
ATOM      4  C   UNL     1       0.492  -1.518   3.272  0.00  0.00    +0.080 A 
ATOM      5  C   UNL     1      -0.845  -1.070   3.363  0.00  0.00    +0.041 A 
ATOM      6  C   UNL     1      -1.507  -0.491   2.309  0.00  0.00    +0.021 A 
ATOM      7  S   UNL     1      -1.260  -1.460   5.046  0.00  0.00    -0.052 S 
ATOM      8  C   UNL     1       0.314  -2.169   5.507  0.00  0.00    +0.168 A 
ATOM      9  N   UNL     1       1.006  -2.061   4.397  0.00  0.00    -0.224 NA
ATOM     10  N   UNL     1       0.705  -2.698   6.726  0.00  0.00    -0.248 N 
ATOM     11  C   UNL     1      -0.160  -2.720   7.759  0.00  0.00    +0.252 C 
ATOM     12  O   UNL     1      -1.301  -2.329   7.605  0.00  0.00    -0.270 OA
ENDROOT
BRANCH  11  13
ATOM     13  C   UNL     1       0.279  -3.219   9.079  0.00  0.00    +0.037 A 
ATOM     14  C   UNL     1       1.630  -3.182   9.429  0.00  0.00    +0.015 A 
ATOM     15  C   UNL     1       2.032  -3.650  10.663  0.00  0.00    +0.029 A 
ATOM     16  C   UNL     1       1.101  -4.154  11.553  0.00  0.00    +0.106 A 
ATOM     17  C   UNL     1      -0.240  -4.194  11.212  0.00  0.00    +0.029 A 
ATOM     18  C   UNL     1      -0.657  -3.724   9.984  0.00  0.00    +0.015 A 
BRANCH  16  19
ATOM     19  S   UNL     1       1.624  -4.750  13.126  0.00  0.00    +0.061 S 
ATOM     20  O   UNL     1       0.634  -5.673  13.561  0.00  0.00    -0.153 OA
ATOM     21  O   UNL     1       2.992  -5.109  12.990  0.00  0.00    -0.153 OA
BRANCH  19  22
ATOM     22  N   UNL     1       1.572  -3.471  14.176  0.00  0.00    -0.174 NA
ATOM     23  C   UNL     1       2.781  -2.686  14.460  0.00  0.00    +0.110 C 
ATOM     24  C   UNL     1       2.992  -2.638  15.977  0.00  0.00    +0.017 C 
ATOM     25  C   UNL     1       1.725  -2.104  16.648  0.00  0.00    +0.003 C 
ATOM     26  C   UNL     1       0.554  -3.045  16.353  0.00  0.00    +0.020 C 
ATOM     27  C   UNL     1       0.314  -3.095  14.836  0.00  0.00    +0.077 C 
ATOM     28  C   UNL     1      -0.762  -4.134  14.519  0.00  0.00    +0.026 C 
ENDBRANCH  19  22
ENDBRANCH  16  19
ENDBRANCH  11  13
BRANCH   1  30
ATOM     29  C   UNL     1      -1.341   1.800  -0.058  0.00  0.00    +0.009 C 
ATOM     30  C   UNL     1      -1.570   0.287  -0.074  0.00  0.00    +0.032 C 
ENDBRANCH   1  30
BRANCH  10  31
ATOM     31  C   UNL     1       2.058  -3.233   6.891  0.00  0.00    +0.097 C 
BRANCH  31  32
ATOM     32  C   UNL     1       3.062  -2.079   6.930  0.00  0.00    -0.060 C 
BRANCH  32  33
ATOM     33  N   UNL     1       4.428  -2.620   6.963  0.00  0.00    +0.377 N 
ATOM     34  C   UNL     1       5.393  -1.517   6.861  0.00  0.00    -0.097 C 
ATOM     35  C   UNL     1       4.639  -3.341   8.225  0.00  0.00    -0.097 C 
ATOM     36  H   UNL     1       4.558  -3.253   6.188  0.00  0.00    -0.083 HD
ENDBRANCH  32  33
ENDBRANCH  31  32
ENDBRANCH  10  31
TORSDOF 7
