REMARK  Name = ZINC03514613
REMARK  9 active torsions:
REMARK  status: ('A' for Active; 'I' for Inactive)
REMARK    1  A    between atoms: C_1  and  C_2
REMARK    2  A    between atoms: C_5  and  N_9
REMARK    3  A    between atoms: C_7  and  C_8
REMARK    4  A    between atoms: C_19  and  S_20
REMARK    5  A    between atoms: S_20  and  C_21
REMARK    6  A    between atoms: C_21  and  C_23
REMARK    7  A    between atoms: C_21  and  C_24
REMARK    8  A    between atoms: N_26  and  C_27
REMARK    9  A    between atoms: C_27  and  C_28
REMARK                            x       y       z     vdW  Elec       q    Type
REMARK                         _______ _______ _______ _____ _____    ______ ____
ROOT
ATOM      1  N   UNL     1      -5.218   1.509  -1.002  0.00  0.00    -0.255 N 
ATOM      2  C   UNL     1      -6.228   2.140  -0.359  0.00  0.00    +0.267 A 
ATOM      3  O   UNL     1      -7.269   1.564  -0.102  0.00  0.00    -0.267 OA
ATOM      4  C   UNL     1      -6.025   3.547   0.010  0.00  0.00    +0.065 A 
ATOM      5  C   UNL     1      -7.008   4.285   0.669  0.00  0.00    +0.015 A 
ATOM      6  C   UNL     1      -6.767   5.592   0.990  0.00  0.00    +0.001 A 
ATOM      7  C   UNL     1      -5.556   6.191   0.666  0.00  0.00    +0.002 A 
ATOM      8  C   UNL     1      -4.576   5.491   0.020  0.00  0.00    +0.028 A 
ATOM      9  C   UNL     1      -4.792   4.153  -0.321  0.00  0.00    +0.079 A 
ATOM     10  N   UNL     1      -3.848   3.423  -0.961  0.00  0.00    -0.223 NA
ATOM     11  C   UNL     1      -4.053   2.169  -1.280  0.00  0.00    +0.177 A 
ENDROOT
BRANCH   1  16
ATOM     12  C   UNL     1      -5.812  -3.922  -2.537  0.00  0.00    +0.044 C 
ATOM     13  C   UNL     1      -5.655  -2.479  -2.129  0.00  0.00    -0.047 A 
ATOM     14  C   UNL     1      -5.134  -2.166  -0.887  0.00  0.00    +0.005 A 
ATOM     15  C   UNL     1      -4.984  -0.846  -0.512  0.00  0.00    +0.026 A 
ATOM     16  C   UNL     1      -5.365   0.169  -1.381  0.00  0.00    +0.052 A 
ATOM     17  C   UNL     1      -5.887  -0.149  -2.628  0.00  0.00    +0.030 A 
ATOM     18  C   UNL     1      -6.030  -1.472  -2.998  0.00  0.00    -0.046 A 
ATOM     19  C   UNL     1      -6.597  -1.817  -4.351  0.00  0.00    +0.044 C 
ENDBRANCH   1  16
BRANCH  11  20
ATOM     20  S   UNL     1      -2.770   1.294  -2.112  0.00  0.00    -0.075 S 
BRANCH  20  21
ATOM     21  C   UNL     1      -1.520   2.599  -2.224  0.00  0.00    +0.137 C 
ATOM     22  C   UNL     1      -1.052   2.978  -0.817  0.00  0.00    +0.029 C 
BRANCH  21  23
ATOM     23  C   UNL     1      -0.346   2.103  -3.027  0.00  0.00    +0.226 C 
ATOM     24  O   UNL     1      -0.170   0.911  -3.172  0.00  0.00    -0.275 OA
ATOM     25  N   UNL     1       0.506   2.983  -3.590  0.00  0.00    -0.310 N 
ATOM     26  H   UNL     1       0.365   3.936  -3.474  0.00  0.00    +0.149 HD
BRANCH  25  27
ATOM     27  C   UNL     1       1.644   2.501  -4.376  0.00  0.00    +0.139 C 
BRANCH  27  28
ATOM     28  C   UNL     1       2.433   3.677  -4.890  0.00  0.00    -0.027 A 
ATOM     29  C   UNL     1       2.123   4.232  -6.118  0.00  0.00    +0.009 A 
ATOM     30  C   UNL     1       2.841   5.314  -6.592  0.00  0.00    +0.050 A 
ATOM     31  C   UNL     1       3.881   5.838  -5.841  0.00  0.00    +0.166 A 
ATOM     32  C   UNL     1       4.197   5.275  -4.607  0.00  0.00    +0.167 A 
ATOM     33  C   UNL     1       3.470   4.194  -4.136  0.00  0.00    +0.054 A 
ATOM     34  O   UNL     1       5.247   5.963  -4.070  0.00  0.00    -0.453 OA
ATOM     35  C   UNL     1       5.833   6.688  -5.168  0.00  0.00    +0.466 C 
ATOM     36  O   UNL     1       4.734   6.878  -6.078  0.00  0.00    -0.453 OA
ENDBRANCH  27  28
ENDBRANCH  25  27
ENDBRANCH  21  23
ENDBRANCH  20  21
ENDBRANCH  11  20
TORSDOF 6
