REMARK  Name = ZINC67240663
REMARK  12 active torsions:
REMARK  status: ('A' for Active; 'I' for Inactive)
REMARK    1  A    between atoms: C_1  and  C_2
REMARK    2  A    between atoms: C_4  and  C_12
REMARK    3  A    between atoms: C_5  and  C_11
REMARK    4  A    between atoms: N_6  and  C_7
REMARK    5  A    between atoms: C_7  and  C_8
REMARK    6  A    between atoms: C_8  and  C_9
REMARK    7  A    between atoms: C_8  and  C_10
REMARK    8  A    between atoms: C_13  and  C_14
REMARK    9  A    between atoms: C_13  and  C_16
REMARK   10  A    between atoms: N_18  and  C_19
REMARK   11  A    between atoms: C_22  and  C_25
REMARK   12  A    between atoms: C_25  and  N_26
REMARK                            x       y       z     vdW  Elec       q    Type
REMARK                         _______ _______ _______ _____ _____    ______ ____
ROOT
ATOM      1  C   UNL     1       0.039  -1.922  -3.467  0.00  0.00    +0.259 C 
ATOM      2  O   UNL     1       0.335  -0.924  -2.837  0.00  0.00    -0.269 OA
ATOM      3  N   UNL     1      -0.300  -1.822  -4.768  0.00  0.00    -0.281 N 
ATOM      4  H   UNL     1      -0.459  -2.623  -5.291  0.00  0.00    +0.155 HD
ENDROOT
BRANCH   3   5
ATOM      5  C   UNL     1      -0.425  -0.563  -5.363  0.00  0.00    +0.034 A 
ATOM      6  C   UNL     1      -0.130  -0.398  -6.711  0.00  0.00    +0.023 A 
ATOM      7  C   UNL     1      -0.254   0.847  -7.296  0.00  0.00    +0.007 A 
ATOM      8  C   UNL     1      -0.670   1.929  -6.542  0.00  0.00    -0.030 A 
ATOM      9  C   UNL     1      -0.964   1.768  -5.200  0.00  0.00    +0.007 A 
ATOM     10  C   UNL     1      -0.848   0.525  -4.610  0.00  0.00    +0.023 A 
BRANCH   8  11
ATOM     11  C   UNL     1      -0.803   3.286  -7.183  0.00  0.00    +0.141 C 
BRANCH  11  12
ATOM     12  N   UNL     1      -2.159   3.445  -7.713  0.00  0.00    -0.295 N 
ATOM     13  C   UNL     1      -2.510   4.588  -8.334  0.00  0.00    +0.297 C 
ATOM     14  O   UNL     1      -1.701   5.488  -8.455  0.00  0.00    -0.253 OA
ATOM     15  N   UNL     1      -3.758   4.735  -8.822  0.00  0.00    -0.313 N 
ATOM     16  H   UNL     1      -2.805   2.728  -7.616  0.00  0.00    +0.151 HD
ATOM     17  H   UNL     1      -4.404   4.017  -8.725  0.00  0.00    +0.146 HD
ATOM     18  H   UNL     1      -4.011   5.558  -9.269  0.00  0.00    +0.146 HD
ENDBRANCH  11  12
ENDBRANCH   8  11
ENDBRANCH   3   5
BRANCH   1  20
ATOM     19  C   UNL     1       0.545  -3.361  -1.527  0.00  0.00    +0.033 C 
ATOM     20  C   UNL     1       0.053  -3.236  -2.811  0.00  0.00    +0.114 C 
BRANCH  19  24
ATOM     21  C   UNL     1       3.752   0.471  -0.784  0.00  0.00    +0.063 C 
ATOM     22  C   UNL     1       2.682  -0.576  -0.608  0.00  0.00    +0.016 A 
ATOM     23  C   UNL     1       2.314  -1.476  -1.535  0.00  0.00    +0.030 A 
ATOM     24  C   UNL     1       1.247  -2.284  -0.928  0.00  0.00    -0.003 A 
ATOM     25  C   UNL     1       1.069  -1.777   0.348  0.00  0.00    +0.023 A 
ATOM     26  N   UNL     1       1.937  -0.763   0.521  0.00  0.00    -0.347 N 
ATOM     27  C   UNL     1       0.078  -2.276   1.368  0.00  0.00    +0.064 C 
BRANCH  26  28
ATOM     28  C   UNL     1       2.062   0.031   1.746  0.00  0.00    +0.124 C 
BRANCH  28  29
ATOM     29  C   UNL     1       1.117   1.232   1.674  0.00  0.00    +0.003 C 
ATOM     30  C   UNL     1      -0.332   0.741   1.656  0.00  0.00    +0.009 C 
ATOM     31  C   UNL     1       1.338   2.127   2.895  0.00  0.00    +0.009 C 
ENDBRANCH  28  29
ENDBRANCH  26  28
ENDBRANCH  19  24
BRANCH  20  32
ATOM     32  C   UNL     1      -0.444  -4.387  -3.502  0.00  0.00    +0.104 C 
ATOM     33  N   UNL     1      -0.839  -5.301  -4.051  0.00  0.00    -0.191 NA
ENDBRANCH  20  32
ENDBRANCH   1  20
TORSDOF 8
