REMARK  Name = ZINC07127695
REMARK  7 active torsions:
REMARK  status: ('A' for Active; 'I' for Inactive)
REMARK    1  A    between atoms: C_1  and  C_2
REMARK    2  A    between atoms: C_2  and  C_3
REMARK    3  A    between atoms: C_2  and  O_4
REMARK    4  A    between atoms: O_4  and  C_5
REMARK    5  A    between atoms: C_6  and  C_13
REMARK    6  A    between atoms: C_10  and  O_11
REMARK    7  A    between atoms: O_11  and  C_12
REMARK                            x       y       z     vdW  Elec       q    Type
REMARK                         _______ _______ _______ _____ _____    ______ ____
ROOT
ATOM      1  C   UNL     1       2.247  -2.500   0.374  0.00  0.00    +0.212 C 
ATOM      2  N   UNL     1       1.466  -3.665   0.828  0.00  0.00    -0.293 N 
ATOM      3  C   UNL     1       0.127  -3.531   1.082  0.00  0.00    +0.183 C 
ATOM      4  N   UNL     1      -0.382  -2.386   1.502  0.00  0.00    -0.183 NA
ATOM      5  C   UNL     1       0.441  -1.319   1.619  0.00  0.00    +0.236 A 
ATOM      6  N   UNL     1       1.724  -1.334   1.095  0.00  0.00    -0.285 N 
ATOM      7  C   UNL     1       2.298  -0.132   1.382  0.00  0.00    +0.072 A 
ATOM      8  C   UNL     1       3.553   0.403   1.122  0.00  0.00    +0.028 A 
ATOM      9  C   UNL     1       3.796   1.692   1.571  0.00  0.00    +0.002 A 
ATOM     10  C   UNL     1       2.839   2.426   2.249  0.00  0.00    +0.002 A 
ATOM     11  C   UNL     1       1.583   1.917   2.522  0.00  0.00    +0.030 A 
ATOM     12  C   UNL     1       1.314   0.616   2.079  0.00  0.00    +0.091 A 
ATOM     13  N   UNL     1       0.214  -0.155   2.182  0.00  0.00    -0.210 NA
ATOM     14  N   UNL     1      -0.701  -4.605   0.897  0.00  0.00    -0.331 N 
ATOM     15  H   UNL     1       1.900  -4.525   0.945  0.00  0.00    +0.151 HD
ATOM     16  H   UNL     1      -1.651  -4.521   1.074  0.00  0.00    +0.145 HD
ATOM     17  H   UNL     1      -0.338  -5.450   0.589  0.00  0.00    +0.145 HD
ENDROOT
BRANCH   1  19
ATOM     18  C   UNL     1       3.081  -1.721  -1.857  0.00  0.00    +0.169 A 
ATOM     19  C   UNL     1       2.073  -2.309  -1.111  0.00  0.00    +0.039 A 
ATOM     20  C   UNL     1       0.904  -2.715  -1.727  0.00  0.00    +0.011 A 
ATOM     21  C   UNL     1       0.740  -2.541  -3.089  0.00  0.00    +0.004 A 
ATOM     22  C   UNL     1       1.745  -1.961  -3.840  0.00  0.00    +0.049 A 
ATOM     23  C   UNL     1       2.919  -1.552  -3.228  0.00  0.00    +0.162 A 
BRANCH  23  24
ATOM     24  O   UNL     1       3.909  -0.981  -3.966  0.00  0.00    -0.491 OA
ATOM     25  C   UNL     1       3.671  -0.833  -5.367  0.00  0.00    +0.277 C 
ENDBRANCH  23  24
BRANCH  18  26
ATOM     26  O   UNL     1       4.229  -1.316  -1.251  0.00  0.00    -0.485 OA
BRANCH  26  28
ATOM     27  C   UNL     1       6.645  -1.392  -1.237  0.00  0.00    +0.051 C 
ATOM     28  C   UNL     1       5.349  -2.201  -1.325  0.00  0.00    +0.168 C 
ATOM     29  C   UNL     1       5.290  -3.197  -0.166  0.00  0.00    +0.051 C 
ENDBRANCH  26  28
ENDBRANCH  18  26
ENDBRANCH   1  19
TORSDOF 4
