REMARK  Name = ZINC36029676
REMARK  10 active torsions:
REMARK  status: ('A' for Active; 'I' for Inactive)
REMARK    1  A    between atoms: C_1  and  C_2
REMARK    2  A    between atoms: C_2  and  C_3
REMARK    3  A    between atoms: C_3  and  C_5
REMARK    4  A    between atoms: C_3  and  C_6
REMARK    5  A    between atoms: N_10  and  C_29
REMARK    6  A    between atoms: C_18  and  C_20
REMARK    7  A    between atoms: C_29  and  C_31
REMARK    8  A    between atoms: C_29  and  C_32
REMARK    9  A    between atoms: C_32  and  C_33
REMARK   10  A    between atoms: C_33  and  C_34
REMARK                            x       y       z     vdW  Elec       q    Type
REMARK                         _______ _______ _______ _____ _____    ______ ____
ROOT
ATOM      1  C   UNL     1      -2.212  -1.947   0.566  0.00  0.00    +0.022 C 
ATOM      2  C   UNL     1      -1.480  -2.166  -0.740  0.00  0.00    +0.201 C 
ATOM      3  O   UNL     1      -0.314  -1.909  -0.951  0.00  0.00    -0.277 OA
ATOM      4  N   UNL     1      -2.344  -2.697  -1.631  0.00  0.00    -0.311 N 
ATOM      5  C   UNL     1      -3.658  -2.854  -1.003  0.00  0.00    +0.006 C 
ATOM      6  N   UNL     1      -3.438  -2.774   0.460  0.00  0.00    +0.401 N 
ATOM      7  C   UNL     1      -4.256  -4.214  -1.360  0.00  0.00    +0.025 C 
ATOM      8  C   UNL     1      -4.445  -4.302  -2.878  0.00  0.00    +0.108 C 
ATOM      9  N   UNL     1      -5.238  -3.148  -3.324  0.00  0.00    -0.298 N 
ATOM     10  C   UNL     1      -4.785  -1.798  -2.964  0.00  0.00    +0.108 C 
ATOM     11  C   UNL     1      -4.593  -1.730  -1.446  0.00  0.00    +0.025 C 
ATOM     12  C   UNL     1      -6.361  -3.325  -4.049  0.00  0.00    +0.247 C 
ATOM     13  O   UNL     1      -6.779  -4.448  -4.257  0.00  0.00    -0.270 OA
ATOM     14  H   UNL     1      -3.283  -3.693   0.848  0.00  0.00    -0.082 HD
ATOM     15  H   UNL     1      -4.215  -2.320   0.915  0.00  0.00    -0.082 HD
ENDROOT
BRANCH  12  16
ATOM     16  C   UNL     1      -7.082  -2.157  -4.590  0.00  0.00    +0.041 A 
ATOM     17  C   UNL     1      -6.372  -1.034  -5.022  0.00  0.00    +0.017 A 
ATOM     18  C   UNL     1      -7.047   0.055  -5.528  0.00  0.00    +0.050 A 
ATOM     19  C   UNL     1      -8.433   0.043  -5.609  0.00  0.00    +0.166 A 
ATOM     20  C   UNL     1      -9.148  -1.075  -5.178  0.00  0.00    +0.167 A 
ATOM     21  C   UNL     1      -8.476  -2.173  -4.675  0.00  0.00    +0.062 A 
ATOM     22  O   UNL     1     -10.480  -0.837  -5.362  0.00  0.00    -0.453 OA
ATOM     23  C   UNL     1     -10.596   0.588  -5.527  0.00  0.00    +0.466 C 
ATOM     24  O   UNL     1      -9.317   0.977  -6.062  0.00  0.00    -0.453 OA
ENDBRANCH  12  16
BRANCH   1  25
ATOM     25  C   UNL     1      -2.579  -0.470   0.730  0.00  0.00    -0.020 C 
ATOM     26  C   UNL     1      -3.471  -0.300   1.961  0.00  0.00    +0.006 C 
BRANCH  25  28
ATOM     27  C   UNL     1      -1.659   1.843   0.946  0.00  0.00    +0.004 C 
ATOM     28  C   UNL     1      -1.303   0.355   0.907  0.00  0.00    -0.001 C 
ENDBRANCH  25  28
ENDBRANCH   1  25
BRANCH   4  29
ATOM     29  C   UNL     1      -2.017  -3.061  -3.012  0.00  0.00    +0.072 C 
ATOM     30  C   UNL     1      -1.231  -1.923  -3.666  0.00  0.00    +0.028 C 
BRANCH  29  31
ATOM     31  C   UNL     1      -1.171  -4.335  -3.017  0.00  0.00    +0.027 C 
BRANCH  31  32
ATOM     32  C   UNL     1      -2.001  -5.501  -2.477  0.00  0.00    +0.037 C 
BRANCH  32  33
ATOM     33  C   UNL     1      -1.168  -6.756  -2.483  0.00  0.00    -0.047 A 
ATOM     34  C   UNL     1      -1.158  -7.575  -3.597  0.00  0.00    +0.003 A 
ATOM     35  C   UNL     1      -0.393  -8.726  -3.602  0.00  0.00    +0.000 A 
ATOM     36  C   UNL     1       0.362  -9.059  -2.493  0.00  0.00    +0.000 A 
ATOM     37  C   UNL     1       0.353  -8.241  -1.379  0.00  0.00    +0.000 A 
ATOM     38  C   UNL     1      -0.408  -7.087  -1.376  0.00  0.00    +0.003 A 
ENDBRANCH  32  33
ENDBRANCH  31  32
ENDBRANCH  29  31
ENDBRANCH   4  29
TORSDOF 7
