REMARK  Name = ZINC12281349
REMARK  10 active torsions:
REMARK  status: ('A' for Active; 'I' for Inactive)
REMARK    1  A    between atoms: C_1  and  C_2
REMARK    2  A    between atoms: C_2  and  C_3
REMARK    3  A    between atoms: C_2  and  C_4
REMARK    4  A    between atoms: C_4  and  C_5
REMARK    5  A    between atoms: C_5  and  C_19
REMARK    6  A    between atoms: N_8  and  C_12
REMARK    7  A    between atoms: C_12  and  C_13
REMARK    8  A    between atoms: C_13  and  C_14
REMARK    9  A    between atoms: C_24  and  C_25
REMARK   10  A    between atoms: C_24  and  N_67
REMARK                            x       y       z     vdW  Elec       q    Type
REMARK                         _______ _______ _______ _____ _____    ______ ____
ROOT
ATOM      1  C   UNL     1      -6.822  -1.244   1.394  0.00  0.00    +0.115 C 
ATOM      2  C   UNL     1      -5.325  -1.335   1.619  0.00  0.00    +0.247 C 
ATOM      3  O   UNL     1      -4.632  -2.326   1.541  0.00  0.00    -0.273 OA
ATOM      4  N   UNL     1      -4.926  -0.085   1.924  0.00  0.00    -0.224 N 
ATOM      5  C   UNL     1      -5.953   0.774   1.928  0.00  0.00    +0.309 C 
ATOM      6  O   UNL     1      -5.842   1.958   2.179  0.00  0.00    -0.252 OA
ATOM      7  N   UNL     1      -7.120   0.180   1.620  0.00  0.00    -0.285 N 
ATOM      8  H   UNL     1      -7.989   0.607   1.560  0.00  0.00    +0.151 HD
ENDROOT
BRANCH   1   9
ATOM      9  C   UNL     1      -7.572  -2.118   2.402  0.00  0.00    +0.018 C 
ATOM     10  C   UNL     1      -9.079  -1.988   2.169  0.00  0.00    -0.013 C 
ATOM     11  C   UNL     1      -9.825  -2.815   3.219  0.00  0.00    -0.078 C 
ATOM     12  C   UNL     1      -8.040  -2.493   4.825  0.00  0.00    -0.078 C 
ATOM     13  C   UNL     1      -7.241  -1.656   3.824  0.00  0.00    -0.013 C 
ATOM     14  N   UNL     1      -9.483  -2.306   4.564  0.00  0.00    +0.382 N 
ATOM     15  H   UNL     1      -9.702  -1.303   4.606  0.00  0.00    -0.081 HD
BRANCH  14  16
ATOM     16  C   UNL     1     -10.278  -3.013   5.588  0.00  0.00    -0.043 C 
BRANCH  16  17
ATOM     17  C   UNL     1     -11.727  -2.629   5.430  0.00  0.00    -0.060 A 
ATOM     18  C   UNL     1     -12.554  -3.380   4.616  0.00  0.00    +0.005 A 
ATOM     19  C   UNL     1     -13.884  -3.032   4.468  0.00  0.00    +0.050 A 
ATOM     20  C   UNL     1     -14.390  -1.929   5.135  0.00  0.00    +0.166 A 
ATOM     21  C   UNL     1     -13.557  -1.172   5.955  0.00  0.00    +0.166 A 
ATOM     22  C   UNL     1     -12.226  -1.530   6.103  0.00  0.00    +0.051 A 
ATOM     23  O   UNL     1     -14.284  -0.150   6.493  0.00  0.00    -0.453 OA
ATOM     24  C   UNL     1     -15.466  -0.049   5.678  0.00  0.00    +0.466 C 
ATOM     25  O   UNL     1     -15.640  -1.381   5.160  0.00  0.00    -0.453 OA
ENDBRANCH  16  17
ENDBRANCH  14  16
ENDBRANCH   1   9
BRANCH   1  26
ATOM     26  C   UNL     1      -7.177  -1.652  -0.037  0.00  0.00    +0.038 C 
BRANCH  26  28
ATOM     27  C   UNL     1      -6.574  -1.331  -2.441  0.00  0.00    +0.007 C 
ATOM     28  C   UNL     1      -6.394  -0.782  -1.024  0.00  0.00    -0.015 C 
ATOM     29  C   UNL     1      -6.917   0.654  -0.964  0.00  0.00    +0.007 C 
ENDBRANCH  26  28
ENDBRANCH   1  26
BRANCH   4  30
ATOM     30  C   UNL     1      -3.541   0.288   2.221  0.00  0.00    +0.123 C 
BRANCH  30  31
ATOM     31  C   UNL     1      -2.831   0.686   0.925  0.00  0.00    +0.062 C 
BRANCH  31  32
ATOM     32  C   UNL     1      -1.406   1.069   1.231  0.00  0.00    -0.009 A 
ATOM     33  C   UNL     1      -0.299   0.287   1.260  0.00  0.00    +0.011 A 
ATOM     34  C   UNL     1       0.920   0.863   1.562  0.00  0.00    +0.008 A 
ATOM     35  C   UNL     1       0.973   2.191   1.826  0.00  0.00    +0.045 A 
ATOM     36  S   UNL     1      -0.737   2.671   1.649  0.00  0.00    -0.102 S 
ENDBRANCH  31  32
ENDBRANCH  30  31
ENDBRANCH   4  30
TORSDOF 8
