REMARK  Name = ZINC09768042
REMARK  7 active torsions:
REMARK  status: ('A' for Active; 'I' for Inactive)
REMARK    1  A    between atoms: C_1  and  C_2
REMARK    2  A    between atoms: C_5  and  C_8
REMARK    3  A    between atoms: C_11  and  S_20
REMARK    4  A    between atoms: N_12  and  C_13
REMARK    5  A    between atoms: C_16  and  C_19
REMARK    6  A    between atoms: S_20  and  C_21
REMARK    7  A    between atoms: C_21  and  C_22
REMARK                            x       y       z     vdW  Elec       q    Type
REMARK                         _______ _______ _______ _____ _____    ______ ____
ROOT
ATOM      1  C   UNL     1      -4.313  -4.523   0.019  0.00  0.00    +0.169 A 
ATOM      2  N   UNL     1      -4.709  -3.272   0.029  0.00  0.00    -0.128 NA
ATOM      3  N   UNL     1      -3.690  -2.488   0.024  0.00  0.00    -0.122 NA
ATOM      4  C   UNL     1      -2.579  -3.190   0.010  0.00  0.00    +0.197 A 
ATOM      5  N   UNL     1      -2.936  -4.511   0.000  0.00  0.00    -0.270 N 
ENDROOT
BRANCH   1  10
ATOM      6  C   UNL     1      -7.694  -9.180   0.030  0.00  0.00    +0.044 C 
ATOM      7  C   UNL     1      -6.808  -7.960   0.027  0.00  0.00    -0.050 A 
ATOM      8  C   UNL     1      -7.345  -6.721  -0.273  0.00  0.00    +0.004 A 
ATOM      9  C   UNL     1      -6.540  -5.600  -0.277  0.00  0.00    +0.012 A 
ATOM     10  C   UNL     1      -5.182  -5.719   0.022  0.00  0.00    +0.020 A 
ATOM     11  C   UNL     1      -4.646  -6.974   0.318  0.00  0.00    +0.012 A 
ATOM     12  C   UNL     1      -5.463  -8.085   0.324  0.00  0.00    +0.004 A 
ENDBRANCH   1  10
BRANCH   5  13
ATOM     13  C   UNL     1      -2.078  -5.620  -0.021  0.00  0.00    +0.051 A 
ATOM     14  C   UNL     1      -2.071  -6.473  -1.117  0.00  0.00    +0.026 A 
ATOM     15  C   UNL     1      -1.221  -7.561  -1.137  0.00  0.00    +0.005 A 
ATOM     16  C   UNL     1      -0.387  -7.809  -0.063  0.00  0.00    -0.050 A 
ATOM     17  C   UNL     1      -0.395  -6.965   1.032  0.00  0.00    +0.005 A 
ATOM     18  C   UNL     1      -1.239  -5.871   1.056  0.00  0.00    +0.026 A 
ATOM     19  C   UNL     1       0.535  -9.001  -0.086  0.00  0.00    +0.044 C 
ENDBRANCH   5  13
BRANCH   4  20
ATOM     20  S   UNL     1      -0.938  -2.550  -0.003  0.00  0.00    -0.076 S 
BRANCH  20  21
ATOM     21  C   UNL     1      -1.293  -0.775   0.010  0.00  0.00    +0.173 C 
BRANCH  21  22
ATOM     22  C   UNL     1       0.002  -0.004   0.002  0.00  0.00    +0.231 C 
ATOM     23  O   UNL     1       1.061  -0.596  -0.011  0.00  0.00    -0.274 OA
ATOM     24  N   UNL     1      -0.016   1.344   0.009  0.00  0.00    -0.260 N 
ATOM     25  C   UNL     1      -1.286   2.085   0.019  0.00  0.00    +0.209 C 
ATOM     26  C   UNL     1      -1.185   3.253  -0.922  0.00  0.00    +0.235 C 
ATOM     27  O   UNL     1      -2.184   3.669  -1.469  0.00  0.00    -0.274 OA
ATOM     28  N   UNL     1       0.001   3.841  -1.168  0.00  0.00    -0.283 N 
ATOM     29  C   UNL     1       1.176   3.349  -0.589  0.00  0.00    +0.055 A 
ATOM     30  C   UNL     1       1.176   2.084   0.002  0.00  0.00    +0.058 A 
ATOM     31  C   UNL     1       2.333   1.580   0.567  0.00  0.00    +0.025 A 
ATOM     32  C   UNL     1       3.492   2.337   0.548  0.00  0.00    +0.002 A 
ATOM     33  C   UNL     1       3.494   3.591  -0.033  0.00  0.00    +0.002 A 
ATOM     34  C   UNL     1       2.340   4.100  -0.601  0.00  0.00    +0.025 A 
ATOM     35  H   UNL     1       0.042   4.613  -1.753  0.00  0.00    +0.155 HD
ENDBRANCH  21  22
ENDBRANCH  20  21
ENDBRANCH   4  20
TORSDOF 5
