REMARK  Name = ZINC49519827
REMARK  3 active torsions:
REMARK  status: ('A' for Active; 'I' for Inactive)
REMARK    1  A    between atoms: C_5  and  C_6
REMARK    2  A    between atoms: C_7  and  C_8
REMARK    3  A    between atoms: C_14  and  N_17
REMARK                            x       y       z     vdW  Elec       q    Type
REMARK                         _______ _______ _______ _____ _____    ______ ____
ROOT
ATOM      1  C   UNL     1      -2.099  -3.049   0.006  0.00  0.00    +0.240 C 
ATOM      2  O   UNL     1      -3.215  -2.575   0.117  0.00  0.00    -0.271 OA
ATOM      3  N   UNL     1      -1.941  -4.383  -0.104  0.00  0.00    -0.296 N 
ATOM      4  C   UNL     1      -0.599  -4.980  -0.116  0.00  0.00    +0.108 C 
ATOM      5  C   UNL     1      -0.531  -6.064   0.965  0.00  0.00    +0.021 C 
ATOM      6  C   UNL     1      -1.667  -7.066   0.748  0.00  0.00    +0.025 C 
ATOM      7  C   UNL     1      -3.013  -6.349   0.867  0.00  0.00    +0.092 C 
ATOM      8  C   UNL     1      -3.109  -5.269  -0.208  0.00  0.00    +0.130 C 
ENDROOT
BRANCH   7   9
ATOM      9  N   UNL     1      -4.100  -7.315   0.692  0.00  0.00    -0.295 N 
ATOM     10  C   UNL     1      -5.311  -7.072   1.229  0.00  0.00    +0.297 C 
ATOM     11  O   UNL     1      -5.503  -6.050   1.860  0.00  0.00    -0.253 OA
ATOM     12  N   UNL     1      -6.311  -7.962   1.067  0.00  0.00    -0.313 N 
ATOM     13  H   UNL     1      -3.947  -8.131   0.189  0.00  0.00    +0.151 HD
ATOM     14  H   UNL     1      -6.159  -8.777   0.564  0.00  0.00    +0.146 HD
ATOM     15  H   UNL     1      -7.183  -7.786   1.454  0.00  0.00    +0.146 HD
ENDBRANCH   7   9
BRANCH   1  17
ATOM     16  C   UNL     1      -1.131  -0.853   0.003  0.00  0.00    +0.051 C 
ATOM     17  C   UNL     1      -0.968  -2.200  -0.006  0.00  0.00    +0.071 C 
BRANCH  16  22
ATOM     18  C   UNL     1      -0.018   1.377  -0.002  0.00  0.00    +0.050 A 
ATOM     19  C   UNL     1       1.320   1.795  -0.020  0.00  0.00    +0.057 A 
ATOM     20  C   UNL     1       2.087   0.680  -0.037  0.00  0.00    +0.171 A 
ATOM     21  O   UNL     1       1.292  -0.398  -0.031  0.00  0.00    -0.449 OA
ATOM     22  C   UNL     1       0.001  -0.003  -0.010  0.00  0.00    +0.129 A 
ATOM     23 BR   UNL     1       3.978   0.649  -0.066  0.00  0.00    -0.008 Br
ENDBRANCH  16  22
ENDBRANCH   1  17
TORSDOF 3
