REMARK  Name = ZINC19220115
REMARK  8 active torsions:
REMARK  status: ('A' for Active; 'I' for Inactive)
REMARK    1  A    between atoms: C_1  and  C_2
REMARK    2  A    between atoms: C_8  and  C_31
REMARK    3  A    between atoms: C_9  and  C_12
REMARK    4  A    between atoms: C_19  and  C_21
REMARK    5  A    between atoms: C_21  and  C_23
REMARK    6  A    between atoms: C_21  and  C_24
REMARK    7  A    between atoms: C_24  and  N_25
REMARK    8  A    between atoms: C_29  and  C_30
REMARK                            x       y       z     vdW  Elec       q    Type
REMARK                         _______ _______ _______ _____ _____    ______ ____
ROOT
ATOM      1  C   UNL     1      -5.132   2.363  -0.274  0.00  0.00    +0.054 C 
ATOM      2  C   UNL     1      -4.588   3.008  -1.551  0.00  0.00    +0.013 C 
ATOM      3  C   UNL     1      -3.124   3.403  -1.343  0.00  0.00    +0.020 C 
ATOM      4  C   UNL     1      -2.299   2.147  -1.046  0.00  0.00    +0.108 C 
ATOM      5  N   UNL     1      -2.902   1.442   0.093  0.00  0.00    -0.301 N 
ATOM      6  C   UNL     1      -4.327   1.091   0.032  0.00  0.00    +0.117 C 
ATOM      7  C   UNL     1      -2.161   1.119   1.172  0.00  0.00    +0.220 C 
ATOM      8  O   UNL     1      -2.645   0.456   2.064  0.00  0.00    -0.275 OA
ENDROOT
BRANCH   1  17
ATOM      9  C   UNL     1     -12.573   1.346  -0.285  0.00  0.00    +0.044 C 
ATOM     10  C   UNL     1     -11.112   1.247  -0.643  0.00  0.00    -0.050 A 
ATOM     11  C   UNL     1     -10.714   0.429  -1.691  0.00  0.00    +0.005 A 
ATOM     12  C   UNL     1      -9.383   0.324  -2.033  0.00  0.00    +0.026 A 
ATOM     13  C   UNL     1      -8.428   1.045  -1.323  0.00  0.00    +0.047 A 
ATOM     14  C   UNL     1      -8.839   1.872  -0.263  0.00  0.00    +0.008 A 
ATOM     15  C   UNL     1     -10.190   1.963   0.067  0.00  0.00    +0.014 A 
ATOM     16  C   UNL     1      -7.611   2.479   0.276  0.00  0.00    +0.011 A 
ATOM     17  C   UNL     1      -6.582   2.004  -0.470  0.00  0.00    +0.029 A 
ATOM     18  N   UNL     1      -7.058   1.149  -1.420  0.00  0.00    -0.357 N 
ATOM     19  H   UNL     1      -6.516   0.581  -2.190  0.00  0.00    +0.166 HD
BRANCH  16  20
ATOM     20  C   UNL     1      -7.517   3.426   1.410  0.00  0.00    -0.013 A 
ATOM     21  C   UNL     1      -6.860   3.069   2.593  0.00  0.00    +0.028 A 
ATOM     22  C   UNL     1      -6.792   3.984   3.622  0.00  0.00    +0.111 A 
ATOM     23  N   UNL     1      -7.345   5.176   3.507  0.00  0.00    -0.263 NA
ATOM     24  C   UNL     1      -7.979   5.551   2.411  0.00  0.00    +0.111 A 
ATOM     25  C   UNL     1      -8.089   4.701   1.332  0.00  0.00    +0.028 A 
ENDBRANCH  16  20
ENDBRANCH   1  17
BRANCH   7  26
ATOM     26  C   UNL     1      -0.730   1.583   1.269  0.00  0.00    +0.092 C 
ATOM     27  C   UNL     1       0.177   0.595   0.531  0.00  0.00    +0.019 C 
BRANCH  26  28
ATOM     28  C   UNL     1      -0.316   1.655   2.740  0.00  0.00    +0.135 C 
BRANCH  28  29
ATOM     29  N   UNL     1       1.033   2.218   2.841  0.00  0.00    -0.335 N 
ATOM     30  C   UNL     1       2.203   1.513   2.927  0.00  0.00    +0.104 A 
ATOM     31  C   UNL     1       3.198   2.417   2.998  0.00  0.00    +0.101 A 
ATOM     32  N   UNL     1       2.650   3.641   2.965  0.00  0.00    -0.350 N 
ATOM     33  C   UNL     1       1.353   3.529   2.871  0.00  0.00    +0.084 A 
ATOM     34  C   UNL     1       0.376   4.674   2.807  0.00  0.00    +0.084 C 
ATOM     35  H   UNL     1       3.292   4.533   3.017  0.00  0.00    +0.166 HD
ENDBRANCH  28  29
ENDBRANCH  26  28
ENDBRANCH   7  26
TORSDOF 5
