REMARK  Name = ZINC04163682
REMARK  10 active torsions:
REMARK  status: ('A' for Active; 'I' for Inactive)
REMARK    1  A    between atoms: C_1  and  C_2
REMARK    2  A    between atoms: C_2  and  C_3
REMARK    3  A    between atoms: C_3  and  C_4
REMARK    4  A    between atoms: C_4  and  O_5
REMARK    5  A    between atoms: O_5  and  C_6
REMARK    6  A    between atoms: C_6  and  C_8
REMARK    7  A    between atoms: C_11  and  N_14
REMARK    8  A    between atoms: C_15  and  C_17
REMARK    9  A    between atoms: C_17  and  C_19
REMARK   10  A    between atoms: C_20  and  C_29
REMARK                            x       y       z     vdW  Elec       q    Type
REMARK                         _______ _______ _______ _____ _____    ______ ____
ROOT
ATOM      1  N   UNL     1       5.920   4.979  -0.055  0.00  0.00    -0.279 N 
ATOM      2  C   UNL     1       6.328   3.792   0.436  0.00  0.00    +0.289 C 
ATOM      3  O   UNL     1       7.477   3.649   0.799  0.00  0.00    -0.266 OA
ATOM      4  H   UNL     1       5.021   5.075  -0.407  0.00  0.00    +0.155 HD
ENDROOT
BRANCH   1   8
ATOM      5  C   UNL     1       8.517   8.234  -0.062  0.00  0.00    +0.059 A 
ATOM      6  C   UNL     1       9.010   6.944  -0.279  0.00  0.00    +0.017 A 
ATOM      7  C   UNL     1       8.149   5.870  -0.276  0.00  0.00    +0.024 A 
ATOM      8  C   UNL     1       6.788   6.068  -0.058  0.00  0.00    +0.034 A 
ATOM      9  C   UNL     1       6.293   7.352   0.153  0.00  0.00    +0.024 A 
ATOM     10  C   UNL     1       7.149   8.429   0.157  0.00  0.00    +0.017 A 
BRANCH   5  11
ATOM     11  C   UNL     1       9.436   9.387  -0.064  0.00  0.00    +0.339 C 
ATOM     12  O   UNL     1      10.624   9.216  -0.254  0.00  0.00    -0.245 OA
BRANCH  11  13
ATOM     13  O   UNL     1       8.960  10.630   0.144  0.00  0.00    -0.461 OA
BRANCH  13  14
ATOM     14  C   UNL     1       9.922  11.716   0.129  0.00  0.00    +0.232 C 
BRANCH  14  15
ATOM     15  C   UNL     1       9.200  13.041   0.382  0.00  0.00    +0.041 C 
BRANCH  15  17
ATOM     16  C   UNL     1       9.493  15.511   0.619  0.00  0.00    +0.004 C 
ATOM     17  C   UNL     1      10.215  14.186   0.365  0.00  0.00    -0.000 C 
ENDBRANCH  15  17
ENDBRANCH  14  15
ENDBRANCH  13  14
ENDBRANCH  11  13
ENDBRANCH   5  11
ENDBRANCH   1   8
BRANCH   2  18
ATOM     18  C   UNL     1       5.368   2.656   0.532  0.00  0.00    +0.250 C 
ATOM     19  O   UNL     1       4.243   2.770   0.086  0.00  0.00    -0.282 OA
BRANCH  18  20
ATOM     20  C   UNL     1       5.780   1.403   1.165  0.00  0.00    +0.055 A 
ATOM     21  C   UNL     1       5.579   1.032   2.481  0.00  0.00    +0.025 A 
ATOM     22  N   UNL     1       6.098  -0.191   2.690  0.00  0.00    -0.358 N 
ATOM     23  H   UNL     1       6.078  -0.661   3.538  0.00  0.00    +0.166 HD
ATOM     24  C   UNL     1       6.664  -0.686   1.531  0.00  0.00    +0.047 A 
ATOM     25  C   UNL     1       6.494   0.280   0.527  0.00  0.00    +0.011 A 
ATOM     26  C   UNL     1       6.973   0.045  -0.758  0.00  0.00    +0.011 A 
ATOM     27  C   UNL     1       7.616  -1.141  -1.040  0.00  0.00    +0.001 A 
ATOM     28  C   UNL     1       7.781  -2.099  -0.051  0.00  0.00    +0.002 A 
ATOM     29  C   UNL     1       7.316  -1.876   1.227  0.00  0.00    +0.026 A 
ATOM     30  C   UNL     1       4.884   1.870   3.523  0.00  0.00    +0.064 C 
ENDBRANCH  18  20
ENDBRANCH   2  18
TORSDOF 8
