REMARK  Name = ZINC42603213
REMARK  5 active torsions:
REMARK  status: ('A' for Active; 'I' for Inactive)
REMARK    1  A    between atoms: C_1  and  C_2
REMARK    2  A    between atoms: C_8  and  N_10
REMARK    3  A    between atoms: N_10  and  C_11
REMARK    4  A    between atoms: N_10  and  C_12
REMARK    5  A    between atoms: C_17  and  N_18
REMARK                            x       y       z     vdW  Elec       q    Type
REMARK                         _______ _______ _______ _____ _____    ______ ____
ROOT
ATOM      1  C   UNL     1       0.736   0.772   3.368  0.00  0.00    +0.053 A 
ATOM      2  C   UNL     1       0.701   2.152   3.235  0.00  0.00    +0.052 A 
ATOM      3  C   UNL     1       1.373   2.950   4.147  0.00  0.00    +0.078 A 
ATOM      4  C   UNL     1       2.083   2.369   5.196  0.00  0.00    +0.144 A 
ATOM      5  C   UNL     1       2.118   0.992   5.329  0.00  0.00    +0.072 A 
ATOM      6  C   UNL     1       1.441   0.191   4.421  0.00  0.00    +0.049 A 
ATOM      7  O   UNL     1       2.740   3.167   6.082  0.00  0.00    -0.481 OA
ATOM      8  C   UNL     1       3.282   4.387   5.570  0.00  0.00    +0.325 C 
ATOM      9  C   UNL     1       2.249   5.082   4.719  0.00  0.00    +0.255 C 
ATOM     10  O   UNL     1       2.227   6.293   4.655  0.00  0.00    -0.272 OA
ATOM     11  N   UNL     1       1.348   4.349   4.028  0.00  0.00    -0.280 N 
ATOM     12  H   UNL     1       0.694   4.784   3.459  0.00  0.00    +0.155 HD
ENDROOT
BRANCH   6  13
ATOM     13  N   UNL     1       1.471  -1.204   4.558  0.00  0.00    -0.356 N 
ATOM     14  H   UNL     1       1.001  -1.764   3.921  0.00  0.00    +0.142 HD
ATOM     15  H   UNL     1       1.961  -1.609   5.290  0.00  0.00    +0.142 HD
ENDBRANCH   6  13
BRANCH   1  16
ATOM     16  N   UNL     1       0.056  -0.038   2.447  0.00  0.00    -0.328 N 
ATOM     17  C   UNL     1      -1.339  -0.413   2.690  0.00  0.00    +0.129 C 
BRANCH  16  24
ATOM     18  C   UNL     1      -0.019   1.526   0.010  0.00  0.00    +0.009 C 
ATOM     19  C   UNL     1       0.002  -0.004   0.002  0.00  0.00    +0.006 C 
ATOM     20  C   UNL     1       0.718  -0.497  -1.257  0.00  0.00    +0.005 C 
ATOM     21  C   UNL     1       0.739  -2.027  -1.265  0.00  0.00    +0.000 C 
ATOM     22  C   UNL     1       1.479  -2.534  -0.026  0.00  0.00    +0.002 C 
ATOM     23  C   UNL     1       0.763  -2.041   1.233  0.00  0.00    +0.023 C 
ATOM     24  C   UNL     1       0.742  -0.511   1.242  0.00  0.00    +0.076 C 
ENDBRANCH  16  24
ENDBRANCH   1  16
TORSDOF 3
