REMARK  Name = ZINC34388808
REMARK  2 active torsions:
REMARK  status: ('A' for Active; 'I' for Inactive)
REMARK    1  A    between atoms: C_1  and  C_2
REMARK    2  A    between atoms: N_24  and  C_27
REMARK                            x       y       z     vdW  Elec       q    Type
REMARK                         _______ _______ _______ _____ _____    ______ ____
ROOT
ATOM      1  C   UNL     1       0.298   1.524  -0.047  0.00  0.00    +0.047 C 
ATOM      2  C   UNL     1       0.229   0.019  -0.038  0.00  0.00    -0.011 A 
ATOM      3  C   UNL     1       0.184  -0.675  -1.231  0.00  0.00    +0.046 A 
ATOM      4  C   UNL     1       0.119  -2.058  -1.233  0.00  0.00    +0.020 A 
ATOM      5  C   UNL     1       0.100  -2.747  -0.033  0.00  0.00    +0.006 A 
ATOM      6  C   UNL     1       0.146  -2.059   1.159  0.00  0.00    -0.027 A 
ATOM      7  C   UNL     1       0.216  -0.669   1.173  0.00  0.00    +0.040 A 
ATOM      8  N   UNL     1       0.259  -0.201   2.488  0.00  0.00    -0.286 N 
ATOM      9  C   UNL     1       0.229  -1.205   3.385  0.00  0.00    +0.212 C 
ATOM     10  O   UNL     1       0.254  -1.097   4.593  0.00  0.00    -0.277 OA
ATOM     11  C   UNL     1       0.143  -2.486   2.600  0.00  0.00    +0.053 C 
ATOM     12  C   UNL     1       1.333  -3.398   2.916  0.00  0.00    +0.089 C 
ATOM     13  C   UNL     1       0.750  -4.837   2.871  0.00  0.00    +0.074 C 
ATOM     14  C   UNL     1      -0.740  -4.658   2.521  0.00  0.00    -0.054 C 
ATOM     15  N   UNL     1      -1.068  -3.254   2.934  0.00  0.00    +0.395 N 
ATOM     16  C   UNL     1      -1.217  -3.308   4.408  0.00  0.00    -0.076 C 
ATOM     17  C   UNL     1      -1.908  -4.657   4.695  0.00  0.00    -0.020 C 
ATOM     18  C   UNL     1      -1.587  -5.559   3.439  0.00  0.00    -0.016 C 
ATOM     19  C   UNL     1       0.889  -5.314   4.299  0.00  0.00    +0.228 C 
ATOM     20  O   UNL     1       0.549  -6.403   4.710  0.00  0.00    -0.275 OA
ATOM     21  N   UNL     1       1.446  -4.348   5.038  0.00  0.00    -0.209 N 
ATOM     22  C   UNL     1       1.746  -3.218   4.359  0.00  0.00    +0.229 C 
ATOM     23  O   UNL     1       2.259  -2.221   4.822  0.00  0.00    -0.275 OA
ATOM     24 CL   UNL     1       0.208   0.190  -2.736  0.00  0.00    -0.083 Cl
ATOM     25  H   UNL     1       0.306   0.738   2.727  0.00  0.00    +0.155 HD
ATOM     26  H   UNL     1      -1.890  -2.900   2.468  0.00  0.00    -0.079 HD
ENDROOT
BRANCH  21  27
ATOM     27  C   UNL     1       1.702  -4.494   6.406  0.00  0.00    +0.052 A 
ATOM     28  C   UNL     1       0.762  -4.106   7.335  0.00  0.00    +0.024 A 
ATOM     29  C   UNL     1       1.007  -4.248   8.698  0.00  0.00    +0.002 A 
ATOM     30  C   UNL     1       2.179  -4.773   9.150  0.00  0.00    +0.008 A 
ATOM     31  C   UNL     1       3.164  -5.180   8.236  0.00  0.00    -0.016 A 
ATOM     32  C   UNL     1       2.924  -5.046   6.846  0.00  0.00    +0.004 A 
ATOM     33  C   UNL     1       3.907  -5.459   5.933  0.00  0.00    +0.010 A 
ATOM     34  C   UNL     1       5.075  -5.987   6.393  0.00  0.00    +0.001 A 
ATOM     35  C   UNL     1       5.310  -6.124   7.760  0.00  0.00    +0.001 A 
ATOM     36  C   UNL     1       4.384  -5.725   8.673  0.00  0.00    +0.008 A 
ENDBRANCH  21  27
TORSDOF 1
