REMARK  Name = ZINC03334050
REMARK  6 active torsions:
REMARK  status: ('A' for Active; 'I' for Inactive)
REMARK    1  A    between atoms: C_1  and  C_2
REMARK    2  A    between atoms: C_2  and  O_3
REMARK    3  A    between atoms: O_3  and  C_4
REMARK    4  A    between atoms: N_6  and  N_7
REMARK    5  A    between atoms: C_8  and  C_9
REMARK    6  A    between atoms: C_18  and  C_19
REMARK                            x       y       z     vdW  Elec       q    Type
REMARK                         _______ _______ _______ _____ _____    ______ ____
ROOT
ATOM      1  C   UNL     1       1.080   3.531   0.011  0.00  0.00    +0.028 A 
ATOM      2  C   UNL     1      -0.111   4.397   0.020  0.00  0.00    +0.009 A 
ATOM      3  C   UNL     1      -1.482   4.147   0.037  0.00  0.00    +0.010 A 
ATOM      4  C   UNL     1      -2.364   5.192   0.051  0.00  0.00    +0.001 A 
ATOM      5  C   UNL     1      -1.902   6.501   0.054  0.00  0.00    +0.002 A 
ATOM      6  C   UNL     1      -0.551   6.769   0.043  0.00  0.00    +0.026 A 
ATOM      7  C   UNL     1       0.364   5.719   0.029  0.00  0.00    +0.048 A 
ATOM      8  N   UNL     1       1.742   5.677   0.016  0.00  0.00    -0.354 N 
ATOM      9  H   UNL     1       2.321   6.455   0.014  0.00  0.00    +0.166 HD
ATOM     10  C   UNL     1       2.177   4.375   0.005  0.00  0.00    +0.056 A 
ENDROOT
BRANCH  10  11
ATOM     11  C   UNL     1       3.588   3.945  -0.012  0.00  0.00    -0.001 A 
ATOM     12  C   UNL     1       4.020   2.921   0.836  0.00  0.00    +0.010 A 
ATOM     13  C   UNL     1       5.339   2.520   0.811  0.00  0.00    +0.001 A 
ATOM     14  C   UNL     1       6.237   3.136  -0.043  0.00  0.00    +0.000 A 
ATOM     15  C   UNL     1       5.818   4.154  -0.882  0.00  0.00    +0.001 A 
ATOM     16  C   UNL     1       4.500   4.562  -0.872  0.00  0.00    +0.010 A 
ENDBRANCH  10  11
BRANCH   1  18
ATOM     17  N   UNL     1      -0.017   1.397   0.010  0.00  0.00    -0.185 NA
ATOM     18  C   UNL     1       1.100   2.062   0.003  0.00  0.00    +0.141 C 
BRANCH  17  21
ATOM     19  C   UNL     1      -1.156  -0.694   0.009  0.00  0.00    +0.420 C 
ATOM     20  O   UNL     1      -1.139  -1.909   0.003  0.00  0.00    -0.225 OA
ATOM     21  N   UNL     1       0.002  -0.004   0.002  0.00  0.00    -0.172 N 
ATOM     22  H   UNL     1       0.849  -0.478  -0.009  0.00  0.00    +0.181 HD
BRANCH  19  23
ATOM     23  O   UNL     1      -2.331  -0.036   0.024  0.00  0.00    -0.450 OA
BRANCH  23  25
ATOM     24  C   UNL     1      -4.764   0.072   0.048  0.00  0.00    +0.048 C 
ATOM     25  C   UNL     1      -3.538  -0.844   0.031  0.00  0.00    +0.230 C 
ENDBRANCH  23  25
ENDBRANCH  19  23
ENDBRANCH  17  21
ENDBRANCH   1  18
TORSDOF 5
