REMARK  Name = ZINC02094457
REMARK  7 active torsions:
REMARK  status: ('A' for Active; 'I' for Inactive)
REMARK    1  A    between atoms: C_1  and  C_2
REMARK    2  A    between atoms: C_2  and  C_41
REMARK    3  A    between atoms: C_4  and  N_10
REMARK    4  A    between atoms: C_6  and  C_8
REMARK    5  A    between atoms: C_6  and  C_9
REMARK    6  A    between atoms: C_30  and  C_32
REMARK    7  A    between atoms: C_36  and  N_38
REMARK                            x       y       z     vdW  Elec       q    Type
REMARK                         _______ _______ _______ _____ _____    ______ ____
ROOT
ATOM      1  N   UNL     1       3.291  -1.162  -2.242  0.00  0.00    -0.288 N 
ATOM      2  C   UNL     1       3.080  -2.552  -2.610  0.00  0.00    +0.204 C 
ATOM      3  C   UNL     1       3.484  -2.827  -4.021  0.00  0.00    +0.234 C 
ATOM      4  O   UNL     1       3.373  -3.964  -4.430  0.00  0.00    -0.274 OA
ATOM      5  N   UNL     1       3.959  -1.907  -4.863  0.00  0.00    -0.276 N 
ATOM      6  C   UNL     1       4.063  -0.489  -4.521  0.00  0.00    +0.167 C 
ATOM      7  C   UNL     1       3.726  -0.230  -3.087  0.00  0.00    +0.237 C 
ATOM      8  O   UNL     1       3.863   0.899  -2.667  0.00  0.00    -0.274 OA
ATOM      9  C   UNL     1       3.119   0.318  -5.422  0.00  0.00    +0.069 C 
ATOM     10  C   UNL     1       3.281  -0.157  -6.844  0.00  0.00    -0.015 A 
ATOM     11  C   UNL     1       2.884   0.513  -8.066  0.00  0.00    +0.003 A 
ATOM     12  C   UNL     1       2.263   1.741  -8.315  0.00  0.00    +0.010 A 
ATOM     13  C   UNL     1       2.035   2.065  -9.630  0.00  0.00    +0.001 A 
ATOM     14  C   UNL     1       2.398   1.224 -10.669  0.00  0.00    +0.002 A 
ATOM     15  C   UNL     1       3.013   0.003 -10.450  0.00  0.00    +0.026 A 
ATOM     16  C   UNL     1       3.257  -0.352  -9.126  0.00  0.00    +0.047 A 
ATOM     17  N   UNL     1       3.832  -1.456  -8.565  0.00  0.00    -0.356 N 
ATOM     18  H   UNL     1       4.180  -2.216  -9.059  0.00  0.00    +0.166 HD
ATOM     19  C   UNL     1       3.845  -1.330  -7.202  0.00  0.00    +0.046 A 
ATOM     20  C   UNL     1       4.402  -2.326  -6.210  0.00  0.00    +0.154 C 
ENDROOT
BRANCH   1  24
ATOM     21  C   UNL     1       1.136   0.861   1.020  0.00  0.00    -0.010 C 
ATOM     22  C   UNL     1       1.210  -0.664   0.888  0.00  0.00    -0.072 C 
ATOM     23  C   UNL     1       1.531  -1.042  -0.554  0.00  0.00    +0.009 C 
ATOM     24  C   UNL     1       3.002  -0.761  -0.863  0.00  0.00    +0.074 C 
ATOM     25  C   UNL     1       3.857  -1.593   0.093  0.00  0.00    +0.009 C 
ATOM     26  C   UNL     1       3.553  -1.219   1.540  0.00  0.00    -0.072 C 
ATOM     27  N   UNL     1       2.135  -1.233   1.852  0.00  0.00    +0.386 N 
ATOM     28  C   UNL     1       4.182   0.139   1.868  0.00  0.00    -0.010 C 
ATOM     29  C   UNL     1       4.243  -2.268   2.443  0.00  0.00    -0.010 C 
ATOM     30  C   UNL     1      -0.200  -1.215   1.207  0.00  0.00    -0.010 C 
ATOM     31  H   UNL     1       1.998  -0.756   2.749  0.00  0.00    -0.084 HD
ATOM     32  H   UNL     1       1.855  -2.203   2.030  0.00  0.00    -0.084 HD
ENDBRANCH   1  24
BRANCH  20  33
ATOM     33  C   UNL     1       3.874  -3.704  -6.516  0.00  0.00    -0.019 A 
ATOM     34  C   UNL     1       2.516  -3.902  -6.684  0.00  0.00    +0.006 A 
ATOM     35  C   UNL     1       2.032  -5.166  -6.965  0.00  0.00    +0.003 A 
ATOM     36  C   UNL     1       2.906  -6.231  -7.079  0.00  0.00    +0.033 A 
ATOM     37  C   UNL     1       4.263  -6.033  -6.912  0.00  0.00    +0.127 A 
ATOM     38  C   UNL     1       4.748  -4.768  -6.635  0.00  0.00    +0.038 A 
BRANCH  37  39
ATOM     39  N   UNL     1       5.199  -7.174  -7.034  0.00  0.00    +0.056 N 
ATOM     40  O   UNL     1       4.775  -8.279  -7.279  0.00  0.00    -0.126 OA
ATOM     41  O   UNL     1       6.386  -7.000  -6.887  0.00  0.00    -0.126 OA
ENDBRANCH  37  39
ENDBRANCH  20  33
TORSDOF 3
