REMARK  Name = ZINC39422447
REMARK  8 active torsions:
REMARK  status: ('A' for Active; 'I' for Inactive)
REMARK    1  A    between atoms: C_1  and  C_2
REMARK    2  A    between atoms: C_2  and  C_3
REMARK    3  A    between atoms: C_3  and  N_4
REMARK    4  A    between atoms: C_8  and  S_9
REMARK    5  A    between atoms: S_9  and  C_10
REMARK    6  A    between atoms: C_10  and  C_12
REMARK    7  A    between atoms: C_10  and  C_13
REMARK    8  A    between atoms: C_21  and  C_29
REMARK                            x       y       z     vdW  Elec       q    Type
REMARK                         _______ _______ _______ _____ _____    ______ ____
ROOT
ATOM      1  C   UNL     1      -1.347  -3.409  -5.229  0.00  0.00    +0.137 C 
ATOM      2  N   UNL     1      -1.946  -2.322  -5.652  0.00  0.00    -0.160 NA
ATOM      3  C   UNL     1      -1.920  -1.932  -6.931  0.00  0.00    +0.271 C 
ATOM      4  O   UNL     1      -2.484  -0.911  -7.289  0.00  0.00    -0.268 OA
ATOM      5  C   UNL     1      -1.176  -2.787  -7.909  0.00  0.00    +0.071 C 
ATOM      6  C   UNL     1      -1.073  -2.623  -9.241  0.00  0.00    -0.042 C 
ATOM      7  C   UNL     1      -1.864  -1.587 -10.035  0.00  0.00    +0.033 C 
ATOM      8  C   UNL     1      -2.609  -2.350 -11.138  0.00  0.00    +0.008 C 
ATOM      9  C   UNL     1      -1.632  -3.208 -11.939  0.00  0.00    -0.012 C 
ATOM     10  C   UNL     1      -0.997  -4.282 -11.052  0.00  0.00    +0.022 C 
ATOM     11  C   UNL     1      -0.153  -3.592  -9.977  0.00  0.00    +0.080 C 
ATOM     12  S   UNL     1       0.279  -4.786  -8.656  0.00  0.00    -0.097 S 
ATOM     13  C   UNL     1      -0.540  -3.976  -7.305  0.00  0.00    +0.112 C 
ATOM     14  N   UNL     1      -0.657  -4.216  -6.020  0.00  0.00    -0.226 NA
ATOM     15  C   UNL     1      -0.531  -2.315 -12.513  0.00  0.00    +0.007 C 
ENDROOT
BRANCH   1  16
ATOM     16  C   UNL     1      -1.444  -3.755  -3.766  0.00  0.00    +0.116 C 
ATOM     17  C   UNL     1      -2.737  -4.533  -3.511  0.00  0.00    +0.027 C 
BRANCH  16  18
ATOM     18  S   UNL     1      -1.451  -2.231  -2.783  0.00  0.00    -0.075 S 
BRANCH  18  23
ATOM     19  N   UNL     1      -1.413  -1.998   0.005  0.00  0.00    -0.271 N 
ATOM     20  C   UNL     1      -1.393  -2.793   1.093  0.00  0.00    +0.345 A 
ATOM     21  N   UNL     1      -1.379  -4.072   0.664  0.00  0.00    -0.226 N 
ATOM     22  N   UNL     1      -1.392  -4.044  -0.738  0.00  0.00    -0.145 NA
ATOM     23  C   UNL     1      -1.419  -2.798  -1.115  0.00  0.00    +0.193 A 
ATOM     24  O   UNL     1      -1.387  -2.424   2.254  0.00  0.00    -0.245 OA
ATOM     25  H   UNL     1      -1.363  -4.865   1.222  0.00  0.00    +0.194 HD
BRANCH  19  26
ATOM     26  C   UNL     1      -1.433  -0.534   0.013  0.00  0.00    +0.129 C 
BRANCH  26  28
ATOM     27  C   UNL     1      -0.019   1.526   0.010  0.00  0.00    +0.005 C 
ATOM     28  C   UNL     1       0.002  -0.004   0.002  0.00  0.00    +0.018 C 
ENDBRANCH  26  28
ENDBRANCH  19  26
ENDBRANCH  18  23
ENDBRANCH  16  18
ENDBRANCH   1  16
TORSDOF 5
