REMARK  Name = ZINC63666756
REMARK  8 active torsions:
REMARK  status: ('A' for Active; 'I' for Inactive)
REMARK    1  A    between atoms: C_1  and  C_2
REMARK    2  A    between atoms: N_8  and  C_10
REMARK    3  A    between atoms: C_20  and  C_22
REMARK    4  A    between atoms: C_22  and  C_23
REMARK    5  A    between atoms: C_23  and  C_24
REMARK    6  A    between atoms: N_26  and  C_27
REMARK    7  A    between atoms: C_27  and  C_28
REMARK    8  A    between atoms: C_28  and  C_29
REMARK                            x       y       z     vdW  Elec       q    Type
REMARK                         _______ _______ _______ _____ _____    ______ ____
ROOT
ATOM      1  C   UNL     1      -0.358   1.550   0.080  0.00  0.00    +0.027 C 
ATOM      2  C   UNL     1      -0.107   0.041   0.046  0.00  0.00    +0.093 C 
ATOM      3  C   UNL     1      -1.423  -0.732   0.001  0.00  0.00    +0.126 C 
ATOM      4  C   UNL     1      -0.908  -2.090   0.569  0.00  0.00    +0.170 C 
ATOM      5  N   UNL     1      -0.081  -1.653   1.680  0.00  0.00    -0.252 N 
ATOM      6  N   UNL     1       0.478  -0.434   1.336  0.00  0.00    -0.234 NA
ATOM      7  S   UNL     1      -2.381  -3.058   0.957  0.00  0.00    -0.134 S 
ATOM      8  C   UNL     1      -3.211  -3.123  -0.667  0.00  0.00    +0.090 C 
ATOM      9  C   UNL     1      -3.334  -1.719  -1.259  0.00  0.00    +0.119 C 
ATOM     10  N   UNL     1      -2.061  -0.999  -1.266  0.00  0.00    -0.293 N 
ATOM     11  C   UNL     1      -1.496  -0.621  -2.429  0.00  0.00    +0.216 C 
ATOM     12  O   UNL     1      -0.430  -0.043  -2.426  0.00  0.00    -0.276 OA
ATOM     13  H   UNL     1       0.340   0.247   2.068  0.00  0.00    +0.145 HD
ENDROOT
BRANCH   5  14
ATOM     14  C   UNL     1       0.116  -2.339   2.880  0.00  0.00    +0.046 A 
ATOM     15  C   UNL     1       0.663  -1.683   3.976  0.00  0.00    +0.024 A 
ATOM     16  C   UNL     1       0.855  -2.365   5.161  0.00  0.00    +0.002 A 
ATOM     17  C   UNL     1       0.504  -3.699   5.259  0.00  0.00    +0.000 A 
ATOM     18  C   UNL     1      -0.041  -4.355   4.170  0.00  0.00    +0.002 A 
ATOM     19  C   UNL     1      -0.241  -3.678   2.983  0.00  0.00    +0.024 A 
ENDBRANCH   5  14
BRANCH  11  20
ATOM     20  C   UNL     1      -2.190  -0.915  -3.734  0.00  0.00    +0.105 C 
BRANCH  20  21
ATOM     21  C   UNL     1      -1.343  -0.385  -4.893  0.00  0.00    +0.105 C 
BRANCH  21  22
ATOM     22  C   UNL     1      -2.036  -0.679  -6.198  0.00  0.00    +0.213 C 
ATOM     23  O   UNL     1      -3.103  -1.256  -6.201  0.00  0.00    -0.276 OA
ATOM     24  N   UNL     1      -1.471  -0.301  -7.362  0.00  0.00    -0.315 N 
ATOM     25  H   UNL     1      -0.618   0.161  -7.359  0.00  0.00    +0.149 HD
BRANCH  24  26
ATOM     26  C   UNL     1      -2.145  -0.587  -8.630  0.00  0.00    +0.108 C 
BRANCH  26  27
ATOM     27  C   UNL     1      -1.298  -0.057  -9.789  0.00  0.00    +0.052 C 
BRANCH  27  28
ATOM     28  C   UNL     1      -1.992  -0.351 -11.094  0.00  0.00    -0.040 C 
ATOM     29  C   UNL     1      -2.803   0.479 -11.789  0.00  0.00    -0.001 A 
ATOM     30  C   UNL     1      -3.266   1.851 -11.547  0.00  0.00    +0.010 A 
ATOM     31  C   UNL     1      -4.094   2.432 -12.444  0.00  0.00    +0.001 A 
ATOM     32  C   UNL     1      -4.521   1.758 -13.597  0.00  0.00    +0.002 A 
ATOM     33  C   UNL     1      -4.139   0.496 -13.888  0.00  0.00    +0.026 A 
ATOM     34  C   UNL     1      -3.268  -0.211 -13.014  0.00  0.00    +0.043 A 
ATOM     35  N   UNL     1      -2.764  -1.419 -13.074  0.00  0.00    -0.380 N 
ATOM     36  C   UNL     1      -1.917  -1.632 -11.895  0.00  0.00    +0.144 C 
ATOM     37  H   UNL     1      -2.922  -2.064 -13.781  0.00  0.00    +0.160 HD
ENDBRANCH  27  28
ENDBRANCH  26  27
ENDBRANCH  24  26
ENDBRANCH  21  22
ENDBRANCH  20  21
ENDBRANCH  11  20
TORSDOF 7
