REMARK  Name = ZINC15416951
REMARK  7 active torsions:
REMARK  status: ('A' for Active; 'I' for Inactive)
REMARK    1  A    between atoms: C_1  and  C_2
REMARK    2  A    between atoms: C_11  and  C_12
REMARK    3  A    between atoms: C_11  and  N_54
REMARK    4  A    between atoms: N_14  and  C_15
REMARK    5  A    between atoms: C_15  and  C_16
REMARK    6  A    between atoms: C_16  and  N_17
REMARK    7  A    between atoms: C_21  and  C_22
REMARK                            x       y       z     vdW  Elec       q    Type
REMARK                         _______ _______ _______ _____ _____    ______ ____
ROOT
ATOM      1  C   UNL     1       3.681   0.298  -2.811  0.00  0.00    +0.123 C 
ENDROOT
BRANCH   1   4
ATOM      2  C   UNL     1       5.456  -0.133  -4.423  0.00  0.00    +0.197 C 
ATOM      3  O   UNL     1       4.616  -0.156  -5.298  0.00  0.00    -0.278 OA
ATOM      4  N   UNL     1       5.092   0.087  -3.144  0.00  0.00    -0.315 N 
ATOM      5  H   UNL     1       5.764   0.105  -2.445  0.00  0.00    +0.149 HD
BRANCH   2   6
ATOM      6  C   UNL     1       6.907  -0.351  -4.767  0.00  0.00    +0.020 C 
BRANCH   6  16
ATOM      7  C   UNL     1       8.646  -2.410  -5.962  0.00  0.00    -0.007 C 
ATOM      8  C   UNL     1       8.400  -1.021  -6.556  0.00  0.00    -0.023 C 
ATOM      9  C   UNL     1       8.506  -1.084  -8.060  0.00  0.00    +0.005 A 
ATOM     10  C   UNL     1       9.436  -1.705  -8.801  0.00  0.00    +0.021 A 
ATOM     11  C   UNL     1       9.109  -1.485 -10.156  0.00  0.00    +0.019 A 
ATOM     12  C   UNL     1       7.987  -0.734 -10.187  0.00  0.00    +0.086 A 
ATOM     13  N   UNL     1       7.612  -0.482  -8.907  0.00  0.00    -0.354 N 
ATOM     14  C   UNL     1       6.458   0.296  -8.439  0.00  0.00    +0.103 C 
ATOM     15  C   UNL     1       6.682   0.645  -6.963  0.00  0.00    -0.055 C 
ATOM     16  N   UNL     1       7.022  -0.589  -6.221  0.00  0.00    +0.392 N 
ATOM     17  H   UNL     1       6.365  -1.331  -6.490  0.00  0.00    -0.080 HD
ENDBRANCH   6  16
ENDBRANCH   2   6
ENDBRANCH   1   4
BRANCH   1  18
ATOM     18  C   UNL     1       3.542   0.523  -1.304  0.00  0.00    +0.136 C 
BRANCH  18  19
ATOM     19  N   UNL     1       2.131   0.735  -0.970  0.00  0.00    -0.227 N 
ATOM     20  C   UNL     1       1.376  -0.307  -0.665  0.00  0.00    +0.260 C 
ATOM     21  O   UNL     1       1.823  -1.439  -0.655  0.00  0.00    -0.269 OA
ATOM     22  C   UNL     1      -0.037  -0.027  -0.338  0.00  0.00    +0.080 C 
ATOM     23  C   UNL     1      -1.031  -0.883   0.008  0.00  0.00    +0.029 C 
ATOM     24  S   UNL     1      -0.077   1.751  -0.522  0.00  0.00    -0.026 S 
ATOM     25  C   UNL     1       1.632   1.988  -0.980  0.00  0.00    +0.286 C 
ATOM     26  O   UNL     1       2.207   3.027  -1.240  0.00  0.00    -0.262 OA
BRANCH  23  27
ATOM     27  C   UNL     1      -2.411  -0.394   0.135  0.00  0.00    -0.005 A 
ATOM     28  C   UNL     1      -2.783   0.822  -0.450  0.00  0.00    +0.009 A 
ATOM     29  C   UNL     1      -4.081   1.271  -0.331  0.00  0.00    +0.001 A 
ATOM     30  C   UNL     1      -5.013   0.529   0.374  0.00  0.00    +0.001 A 
ATOM     31  C   UNL     1      -4.653  -0.671   0.961  0.00  0.00    +0.020 A 
ATOM     32  C   UNL     1      -3.359  -1.139   0.847  0.00  0.00    +0.048 A 
ATOM     33 CL   UNL     1      -2.909  -2.644   1.584  0.00  0.00    -0.083 Cl
ENDBRANCH  23  27
ENDBRANCH  18  19
ENDBRANCH   1  18
TORSDOF 6
