REMARK  Name = ZINC08771533
REMARK  16 active torsions:
REMARK  status: ('A' for Active; 'I' for Inactive)
REMARK    1  A    between atoms: C_1  and  C_2
REMARK    2  A    between atoms: C_6  and  C_36
REMARK    3  A    between atoms: C_6  and  C_37
REMARK    4  A    between atoms: C_13  and  C_15
REMARK    5  A    between atoms: C_15  and  C_16
REMARK    6  A    between atoms: C_16  and  C_17
REMARK    7  A    between atoms: C_21  and  C_22
REMARK    8  A    between atoms: C_22  and  N_80
REMARK    9  A    between atoms: C_23  and  C_25
REMARK   10  A    between atoms: C_23  and  C_32
REMARK   11  A    between atoms: C_23  and  N_80
REMARK   12  A    between atoms: C_25  and  C_26
REMARK   13  A    between atoms: C_32  and  O_34
REMARK   14  A    between atoms: O_34  and  C_35
REMARK   15  A    between atoms: C_37  and  O_39
REMARK   16  A    between atoms: O_39  and  C_40
REMARK                            x       y       z     vdW  Elec       q    Type
REMARK                         _______ _______ _______ _____ _____    ______ ____
ROOT
ATOM      1  C   UNL     1      -2.531   5.666   0.691  0.00  0.00    -0.008 A 
ATOM      2  C   UNL     1      -1.914   6.862   0.259  0.00  0.00    +0.045 A 
ATOM      3  C   UNL     1      -0.677   6.534  -0.155  0.00  0.00    +0.195 A 
ATOM      4  O   UNL     1      -0.511   5.211   0.007  0.00  0.00    -0.469 OA
ATOM      5  C   UNL     1      -1.635   4.678   0.515  0.00  0.00    +0.091 A 
ENDROOT
BRANCH   1   6
ATOM      6  C   UNL     1      -3.927   5.524   1.243  0.00  0.00    +0.039 C 
BRANCH   6   7
ATOM      7  C   UNL     1      -3.878   5.571   2.771  0.00  0.00    +0.013 C 
BRANCH   7  19
ATOM      8  C   UNL     1      -4.311   5.010   5.555  0.00  0.00    +0.012 C 
ATOM      9  C   UNL     1      -5.275   5.940   4.816  0.00  0.00    -0.022 C 
ATOM     10  C   UNL     1      -4.803   7.391   4.952  0.00  0.00    +0.007 C 
ATOM     11  C   UNL     1      -4.787   7.793   6.427  0.00  0.00    +0.002 C 
ATOM     12  C   UNL     1      -6.201   7.668   6.999  0.00  0.00    +0.018 C 
ATOM     13  C   UNL     1      -6.666   6.216   6.878  0.00  0.00    +0.068 C 
ATOM     14  C   UNL     1      -6.678   5.797   5.405  0.00  0.00    +0.012 C 
ATOM     15  C   UNL     1      -7.135   4.338   5.314  0.00  0.00    +0.009 C 
ATOM     16  C   UNL     1      -7.238   3.923   3.843  0.00  0.00    +0.031 C 
ATOM     17  C   UNL     1      -5.907   4.195   3.177  0.00  0.00    -0.073 C 
ATOM     18  C   UNL     1      -5.295   3.263   2.490  0.00  0.00    +0.008 C 
ATOM     19  C   UNL     1      -5.304   5.573   3.327  0.00  0.00    +0.021 C 
ATOM     20  C   UNL     1      -8.076   6.084   7.457  0.00  0.00    +0.023 C 
BRANCH  13  21
ATOM     21  C   UNL     1      -5.723   5.324   7.644  0.00  0.00    +0.313 C 
ATOM     22  O   UNL     1      -4.840   5.809   8.310  0.00  0.00    -0.250 OA
BRANCH  21  23
ATOM     23  O   UNL     1      -5.866   3.991   7.588  0.00  0.00    -0.468 OA
ATOM     24  C   UNL     1      -4.923   3.194   8.352  0.00  0.00    +0.280 C 
ENDBRANCH  21  23
ENDBRANCH  13  21
ENDBRANCH   7  19
ENDBRANCH   6   7
ENDBRANCH   1   6
BRANCH   5  25
ATOM     25  C   UNL     1      -1.852   3.223   0.839  0.00  0.00    -0.005 C 
BRANCH  25  26
ATOM     26  N   UNL     1      -2.409   2.542  -0.346  0.00  0.00    +0.393 N 
ATOM     27  H   UNL     1      -1.751   2.631  -1.129  0.00  0.00    -0.084 HD
ATOM     28  H   UNL     1      -3.303   2.980  -0.598  0.00  0.00    -0.084 HD
BRANCH  26  29
ATOM     29  C   UNL     1      -2.632   1.113  -0.057  0.00  0.00    +0.044 C 
BRANCH  29  30
ATOM     30  C   UNL     1      -1.357   0.347  -0.294  0.00  0.00    +0.293 C 
ATOM     31  O   UNL     1      -0.363   0.927  -0.663  0.00  0.00    -0.253 OA
BRANCH  30  32
ATOM     32  O   UNL     1      -1.325  -0.981  -0.101  0.00  0.00    -0.469 OA
ATOM     33  C   UNL     1      -0.064  -1.655  -0.355  0.00  0.00    +0.280 C 
ENDBRANCH  30  32
ENDBRANCH  29  30
BRANCH  29  34
ATOM     34  C   UNL     1      -3.728   0.579  -0.983  0.00  0.00    +0.030 C 
BRANCH  34  35
ATOM     35  C   UNL     1      -5.033   1.259  -0.661  0.00  0.00    -0.048 A 
ATOM     36  C   UNL     1      -5.887   0.709   0.277  0.00  0.00    +0.003 A 
ATOM     37  C   UNL     1      -7.082   1.336   0.576  0.00  0.00    +0.000 A 
ATOM     38  C   UNL     1      -7.428   2.507  -0.071  0.00  0.00    +0.000 A 
ATOM     39  C   UNL     1      -6.578   3.055  -1.013  0.00  0.00    +0.000 A 
ATOM     40  C   UNL     1      -5.380   2.431  -1.308  0.00  0.00    +0.003 A 
ENDBRANCH  34  35
ENDBRANCH  29  34
ENDBRANCH  26  29
ENDBRANCH  25  26
ENDBRANCH   5  25
TORSDOF 12
