REMARK  Name = ZINC13355423
REMARK  9 active torsions:
REMARK  status: ('A' for Active; 'I' for Inactive)
REMARK    1  A    between atoms: C_1  and  C_2
REMARK    2  A    between atoms: C_2  and  C_3
REMARK    3  A    between atoms: C_3  and  C_5
REMARK    4  A    between atoms: C_3  and  N_6
REMARK    5  A    between atoms: C_15  and  S_16
REMARK    6  A    between atoms: S_16  and  C_17
REMARK    7  A    between atoms: C_17  and  C_18
REMARK    8  A    between atoms: N_20  and  C_21
REMARK    9  A    between atoms: C_24  and  C_27
REMARK                            x       y       z     vdW  Elec       q    Type
REMARK                         _______ _______ _______ _____ _____    ______ ____
ROOT
ATOM      1  N   UNL     1       3.099  -3.633   3.095  0.00  0.00    -0.284 N 
ATOM      2  C   UNL     1       2.344  -2.659   2.553  0.00  0.00    +0.263 A 
ATOM      3  O   UNL     1       1.128  -2.711   2.619  0.00  0.00    -0.267 OA
ATOM      4  C   UNL     1       2.990  -1.563   1.898  0.00  0.00    +0.076 A 
ATOM      5  C   UNL     1       2.367  -0.405   1.247  0.00  0.00    -0.023 A 
ATOM      6  C   UNL     1       3.199   0.497   0.690  0.00  0.00    -0.004 A 
ATOM      7  S   UNL     1       4.832  -0.123   1.003  0.00  0.00    -0.073 S 
ATOM      8  C   UNL     1       4.392  -1.603   1.877  0.00  0.00    +0.117 A 
ATOM      9  N   UNL     1       5.080  -2.594   2.432  0.00  0.00    -0.216 NA
ATOM     10  C   UNL     1       4.461  -3.592   3.030  0.00  0.00    +0.173 A 
ATOM     11  C   UNL     1       2.837   1.747  -0.050  0.00  0.00    +0.043 C 
ATOM     12  C   UNL     1       1.811   2.542   0.769  0.00  0.00    +0.005 C 
ATOM     13  C   UNL     1       0.414   2.079   0.368  0.00  0.00    +0.001 C 
ATOM     14  C   UNL     1       0.440   0.595   0.007  0.00  0.00    +0.005 C 
ATOM     15  C   UNL     1       0.850  -0.242   1.213  0.00  0.00    +0.037 C 
ENDROOT
BRANCH   1  16
ATOM     16  C   UNL     1       2.445  -4.758   3.768  0.00  0.00    +0.089 C 
ATOM     17  C   UNL     1       1.552  -5.500   2.771  0.00  0.00    +0.031 C 
BRANCH  16  19
ATOM     18  C   UNL     1       2.499  -3.602   5.982  0.00  0.00    +0.006 C 
ATOM     19  C   UNL     1       1.592  -4.235   4.925  0.00  0.00    +0.021 C 
ENDBRANCH  16  19
ENDBRANCH   1  16
BRANCH  10  20
ATOM     20  S   UNL     1       5.406  -4.890   3.756  0.00  0.00    -0.078 S 
BRANCH  20  21
ATOM     21  C   UNL     1       7.078  -4.315   3.372  0.00  0.00    +0.173 C 
BRANCH  21  22
ATOM     22  C   UNL     1       8.084  -5.298   3.913  0.00  0.00    +0.227 C 
ATOM     23  O   UNL     1       7.707  -6.290   4.501  0.00  0.00    -0.275 OA
ATOM     24  N   UNL     1       9.403  -5.075   3.744  0.00  0.00    -0.285 N 
ATOM     25  H   UNL     1       9.703  -4.322   3.212  0.00  0.00    +0.155 HD
BRANCH  24  26
ATOM     26  C   UNL     1      10.335  -5.927   4.335  0.00  0.00    +0.033 A 
ATOM     27  C   UNL     1      10.063  -6.503   5.572  0.00  0.00    +0.024 A 
ATOM     28  C   UNL     1      10.979  -7.348   6.156  0.00  0.00    +0.017 A 
ATOM     29  C   UNL     1      12.189  -7.620   5.509  0.00  0.00    +0.063 A 
ATOM     30  C   UNL     1      12.461  -7.035   4.268  0.00  0.00    +0.017 A 
ATOM     31  C   UNL     1      11.538  -6.195   3.688  0.00  0.00    +0.024 A 
BRANCH  29  32
ATOM     32  C   UNL     1      13.175  -8.521   6.133  0.00  0.00    +0.387 C 
ATOM     33  O   UNL     1      14.225  -8.756   5.570  0.00  0.00    -0.241 OA
ATOM     34  O   UNL     1      12.911  -9.084   7.329  0.00  0.00    -0.241 OA
ENDBRANCH  29  32
ENDBRANCH  24  26
ENDBRANCH  21  22
ENDBRANCH  20  21
ENDBRANCH  10  20
TORSDOF 7
