REMARK  Name = ZINC40343326
REMARK  8 active torsions:
REMARK  status: ('A' for Active; 'I' for Inactive)
REMARK    1  A    between atoms: C_1  and  C_2
REMARK    2  A    between atoms: C_2  and  C_3
REMARK    3  A    between atoms: C_3  and  O_4
REMARK    4  A    between atoms: O_4  and  C_5
REMARK    5  A    between atoms: C_9  and  C_11
REMARK    6  A    between atoms: C_14  and  C_32
REMARK    7  A    between atoms: N_21  and  C_22
REMARK    8  A    between atoms: C_22  and  C_23
REMARK                            x       y       z     vdW  Elec       q    Type
REMARK                         _______ _______ _______ _____ _____    ______ ____
ROOT
ATOM      1  C   UNL     1       2.148  -6.065   3.443  0.00  0.00    +0.142 C 
ATOM      2  C   UNL     1       3.502  -6.541   2.992  0.00  0.00    +0.035 A 
ATOM      3  C   UNL     1       4.449  -6.601   1.965  0.00  0.00    +0.099 A 
ATOM      4  N   UNL     1       5.486  -7.273   2.423  0.00  0.00    -0.173 NA
ATOM      5  N   UNL     1       5.288  -7.644   3.637  0.00  0.00    -0.272 N 
ATOM      6  H   UNL     1       5.917  -8.152   4.175  0.00  0.00    +0.189 HD
ATOM      7  C   UNL     1       4.061  -7.218   4.059  0.00  0.00    +0.126 A 
ATOM      8  C   UNL     1       3.111  -7.192   5.177  0.00  0.00    +0.266 C 
ATOM      9  O   UNL     1       3.304  -7.702   6.264  0.00  0.00    -0.268 OA
ATOM     10  N   UNL     1       1.994  -6.525   4.829  0.00  0.00    -0.281 N 
ENDROOT
BRANCH   3  11
ATOM     11  C   UNL     1       4.312  -6.014   0.608  0.00  0.00    +0.003 A 
ATOM     12  C   UNL     1       3.067  -5.984  -0.017  0.00  0.00    +0.011 A 
ATOM     13  C   UNL     1       2.944  -5.438  -1.279  0.00  0.00    +0.020 A 
ATOM     14  C   UNL     1       4.056  -4.921  -1.923  0.00  0.00    +0.041 A 
ATOM     15  C   UNL     1       5.294  -4.949  -1.306  0.00  0.00    +0.020 A 
ATOM     16  C   UNL     1       5.426  -5.487  -0.042  0.00  0.00    +0.011 A 
ATOM     17 CL   UNL     1       3.895  -4.236  -3.510  0.00  0.00    -0.084 Cl
ENDBRANCH   3  11
BRANCH   1  22
ATOM     18  C   UNL     1       1.385  -2.554   2.273  0.00  0.00    +0.121 A 
ATOM     19  C   UNL     1       1.962  -1.797   3.283  0.00  0.00    +0.045 A 
ATOM     20  C   UNL     1       2.595  -2.424   4.339  0.00  0.00    +0.004 A 
ATOM     21  C   UNL     1       2.654  -3.804   4.390  0.00  0.00    +0.006 A 
ATOM     22  C   UNL     1       2.081  -4.561   3.384  0.00  0.00    -0.019 A 
ATOM     23  C   UNL     1       1.442  -3.939   2.329  0.00  0.00    +0.051 A 
BRANCH  18  24
ATOM     24  O   UNL     1       0.761  -1.940   1.234  0.00  0.00    -0.492 OA
BRANCH  24  25
ATOM     25  C   UNL     1       0.742  -0.511   1.242  0.00  0.00    +0.229 C 
BRANCH  25  27
ATOM     26  C   UNL     1      -0.019   1.526   0.010  0.00  0.00    +0.007 C 
ATOM     27  C   UNL     1       0.002  -0.004   0.002  0.00  0.00    +0.038 C 
ENDBRANCH  25  27
ENDBRANCH  24  25
ENDBRANCH  18  24
ENDBRANCH   1  22
BRANCH  10  28
ATOM     28  C   UNL     1       0.828  -6.295   5.685  0.00  0.00    +0.144 C 
BRANCH  28  29
ATOM     29  C   UNL     1      -0.152  -7.428   5.513  0.00  0.00    -0.026 A 
ATOM     30  C   UNL     1      -1.132  -7.351   4.541  0.00  0.00    +0.009 A 
ATOM     31  C   UNL     1      -2.032  -8.387   4.379  0.00  0.00    +0.050 A 
ATOM     32  C   UNL     1      -1.954  -9.506   5.192  0.00  0.00    +0.166 A 
ATOM     33  C   UNL     1      -0.967  -9.584   6.171  0.00  0.00    +0.167 A 
ATOM     34  C   UNL     1      -0.065  -8.544   6.324  0.00  0.00    +0.054 A 
ATOM     35  O   UNL     1      -1.100 -10.771   6.832  0.00  0.00    -0.453 OA
ATOM     36  C   UNL     1      -2.427 -11.238   6.521  0.00  0.00    +0.466 C 
ATOM     37  O   UNL     1      -2.706 -10.645   5.239  0.00  0.00    -0.453 OA
ENDBRANCH  28  29
ENDBRANCH  10  28
TORSDOF 7
