REMARK  Name = ZINC02330858
REMARK  4 active torsions:
REMARK  status: ('A' for Active; 'I' for Inactive)
REMARK    1  A    between atoms: C_1  and  C_2
REMARK    2  A    between atoms: C_2  and  C_3
REMARK    3  A    between atoms: C_6  and  N_9
REMARK    4  A    between atoms: C_24  and  C_26
REMARK                            x       y       z     vdW  Elec       q    Type
REMARK                         _______ _______ _______ _____ _____    ______ ____
ROOT
ATOM      1  N   UNL     1      -5.322  -1.969   0.042  0.00  0.00    -0.202 N 
ATOM      2  C   UNL     1      -6.055  -2.241  -1.046  0.00  0.00    +0.257 C 
ATOM      3  O   UNL     1      -5.680  -2.095  -2.194  0.00  0.00    -0.269 OA
ATOM      4  C   UNL     1      -7.340  -2.726  -0.660  0.00  0.00    +0.061 C 
ATOM      5  C   UNL     1      -7.385  -2.709   0.688  0.00  0.00    +0.086 C 
ATOM      6  C   UNL     1      -6.042  -2.240   1.146  0.00  0.00    +0.265 C 
ATOM      7  O   UNL     1      -5.671  -2.123   2.295  0.00  0.00    -0.269 OA
ATOM      8  S   UNL     1      -8.717  -3.106   1.767  0.00  0.00    -0.082 S 
ATOM      9  C   UNL     1      -9.430  -4.569   1.088  0.00  0.00    +0.034 A 
ATOM     10  C   UNL     1      -9.516  -5.728   1.839  0.00  0.00    +0.017 A 
ATOM     11  C   UNL     1     -10.124  -6.848   1.301  0.00  0.00    +0.001 A 
ATOM     12  C   UNL     1     -10.650  -6.799   0.023  0.00  0.00    +0.002 A 
ATOM     13  C   UNL     1     -10.550  -5.650  -0.735  0.00  0.00    +0.024 A 
ATOM     14  C   UNL     1      -9.909  -4.526  -0.219  0.00  0.00    +0.042 A 
ATOM     15  N   UNL     1      -9.662  -3.447  -1.048  0.00  0.00    -0.330 N 
ATOM     16  C   UNL     1      -8.375  -3.188  -1.648  0.00  0.00    +0.174 C 
ATOM     17  H   UNL     1     -10.389  -2.833  -1.236  0.00  0.00    +0.147 HD
ENDROOT
BRANCH   1  21
ATOM     18  C   UNL     1      -1.412  -0.526   0.013  0.00  0.00    -0.048 A 
ATOM     19  C   UNL     1      -2.050  -0.766   1.216  0.00  0.00    +0.005 A 
ATOM     20  C   UNL     1      -3.345  -1.244   1.229  0.00  0.00    +0.024 A 
ATOM     21  C   UNL     1      -4.007  -1.483   0.032  0.00  0.00    +0.045 A 
ATOM     22  C   UNL     1      -3.364  -1.242  -1.174  0.00  0.00    +0.024 A 
ATOM     23  C   UNL     1      -2.071  -0.758  -1.181  0.00  0.00    +0.005 A 
BRANCH  18  25
ATOM     24  C   UNL     1      -0.019   1.526   0.010  0.00  0.00    +0.009 C 
ATOM     25  C   UNL     1       0.002  -0.004   0.002  0.00  0.00    +0.032 C 
ENDBRANCH  18  25
ENDBRANCH   1  21
BRANCH  16  26
ATOM     26  C   UNL     1      -7.885  -4.453  -2.306  0.00  0.00    +0.130 A 
ATOM     27  C   UNL     1      -7.310  -4.536  -3.519  0.00  0.00    +0.047 A 
ATOM     28  C   UNL     1      -7.010  -5.901  -3.737  0.00  0.00    +0.041 A 
ATOM     29  C   UNL     1      -7.420  -6.569  -2.644  0.00  0.00    +0.195 A 
ATOM     30  O   UNL     1      -7.944  -5.686  -1.778  0.00  0.00    -0.466 OA
ENDBRANCH  16  26
TORSDOF 3
