REMARK  Name = ZINC09293586
REMARK  10 active torsions:
REMARK  status: ('A' for Active; 'I' for Inactive)
REMARK    1  A    between atoms: C_1  and  C_2
REMARK    2  A    between atoms: C_7  and  C_8
REMARK    3  A    between atoms: N_11  and  C_12
REMARK    4  A    between atoms: C_12  and  C_14
REMARK    5  A    between atoms: C_17  and  N_20
REMARK    6  A    between atoms: N_20  and  S_21
REMARK    7  A    between atoms: S_21  and  C_24
REMARK    8  A    between atoms: C_27  and  O_30
REMARK    9  A    between atoms: O_30  and  C_31
REMARK   10  A    between atoms: N_32  and  C_33
REMARK                            x       y       z     vdW  Elec       q    Type
REMARK                         _______ _______ _______ _____ _____    ______ ____
ROOT
ATOM      1  C   UNL     1      -3.381  -1.707   1.135  0.00  0.00    +0.039 A 
ATOM      2  C   UNL     1      -2.534  -2.288   0.188  0.00  0.00    +0.015 A 
ATOM      3  C   UNL     1      -1.347  -1.672  -0.141  0.00  0.00    +0.025 A 
ATOM      4  C   UNL     1      -0.992  -0.472   0.469  0.00  0.00    +0.048 A 
ATOM      5  C   UNL     1      -1.831   0.105   1.417  0.00  0.00    +0.025 A 
ATOM      6  C   UNL     1      -3.022  -0.503   1.746  0.00  0.00    +0.015 A 
ENDROOT
BRANCH   1   7
ATOM      7  C   UNL     1      -4.656  -2.366   1.490  0.00  0.00    +0.269 C 
ATOM      8  O   UNL     1      -4.969  -3.417   0.957  0.00  0.00    -0.268 OA
BRANCH   7  19
ATOM      9  C   UNL     1     -11.970  -3.050   5.692  0.00  0.00    +0.044 C 
ATOM     10  C   UNL     1     -10.834  -3.356   4.751  0.00  0.00    -0.046 A 
ATOM     11  C   UNL     1      -9.769  -2.489   4.674  0.00  0.00    +0.030 A 
ATOM     12  C   UNL     1      -8.695  -2.746   3.808  0.00  0.00    +0.058 A 
ATOM     13  C   UNL     1      -8.770  -3.917   3.039  0.00  0.00    +0.039 A 
ATOM     14  C   UNL     1      -9.835  -4.783   3.116  0.00  0.00    +0.020 A 
ATOM     15  C   UNL     1     -10.881  -4.505   3.979  0.00  0.00    -0.046 A 
ATOM     16  C   UNL     1     -12.057  -5.441   4.077  0.00  0.00    +0.044 C 
ATOM     17  S   UNL     1      -7.265  -3.884   2.099  0.00  0.00    -0.052 S 
ATOM     18  C   UNL     1      -6.612  -2.401   2.716  0.00  0.00    +0.166 A 
ATOM     19  N   UNL     1      -5.467  -1.810   2.397  0.00  0.00    -0.152 NA
ATOM     20  N   UNL     1      -7.553  -1.993   3.611  0.00  0.00    -0.324 N 
ATOM     21  C   UNL     1      -7.357  -0.751   4.362  0.00  0.00    +0.151 C 
ENDBRANCH   7  19
ENDBRANCH   1   7
BRANCH   4  22
ATOM     22  N   UNL     1       0.209   0.147   0.135  0.00  0.00    -0.216 N 
ATOM     23  H   UNL     1       0.961   0.109   0.747  0.00  0.00    +0.174 HD
BRANCH  22  24
ATOM     24  S   UNL     1       0.353   0.950  -1.306  0.00  0.00    +0.072 S 
ATOM     25  O   UNL     1       1.658   1.513  -1.328  0.00  0.00    -0.150 OA
ATOM     26  O   UNL     1      -0.110   0.062  -2.314  0.00  0.00    -0.150 OA
BRANCH  24  27
ATOM     27  C   UNL     1      -0.778   2.300  -1.266  0.00  0.00    +0.109 A 
ATOM     28  C   UNL     1      -2.033   2.166  -1.830  0.00  0.00    +0.032 A 
ATOM     29  C   UNL     1      -2.924   3.222  -1.795  0.00  0.00    +0.047 A 
ATOM     30  C   UNL     1      -2.554   4.421  -1.203  0.00  0.00    +0.120 A 
ATOM     31  C   UNL     1      -1.291   4.555  -0.643  0.00  0.00    +0.047 A 
ATOM     32  C   UNL     1      -0.406   3.494  -0.676  0.00  0.00    +0.032 A 
BRANCH  30  33
ATOM     33  O   UNL     1      -3.426   5.462  -1.172  0.00  0.00    -0.495 OA
ATOM     34  C   UNL     1      -4.708   5.253  -1.768  0.00  0.00    +0.277 C 
ENDBRANCH  30  33
ENDBRANCH  24  27
ENDBRANCH  22  24
ENDBRANCH   4  22
TORSDOF 6
