REMARK  Name = ZINC39488292
REMARK  13 active torsions:
REMARK  status: ('A' for Active; 'I' for Inactive)
REMARK    1  A    between atoms: C_1  and  C_2
REMARK    2  A    between atoms: C_2  and  O_3
REMARK    3  A    between atoms: O_3  and  N_4
REMARK    4  A    between atoms: C_6  and  C_29
REMARK    5  A    between atoms: C_6  and  C_30
REMARK    6  A    between atoms: N_7  and  C_10
REMARK    7  A    between atoms: C_10  and  C_11
REMARK    8  A    between atoms: C_11  and  C_23
REMARK    9  A    between atoms: N_14  and  S_17
REMARK   10  A    between atoms: S_17  and  C_20
REMARK   11  A    between atoms: C_20  and  C_21
REMARK   12  A    between atoms: C_20  and  C_22
REMARK   13  A    between atoms: C_35  and  O_36
REMARK                            x       y       z     vdW  Elec       q    Type
REMARK                         _______ _______ _______ _____ _____    ______ ____
ROOT
ATOM      1  C   UNL     1       3.399  -5.044   1.489  0.00  0.00    +0.117 C 
ENDROOT
BRANCH   1   5
ATOM      2  N   UNL     1       2.300  -7.861   3.529  0.00  0.00    -0.162 N 
ATOM      3  C   UNL     1       3.736  -8.151   3.657  0.00  0.00    +0.172 C 
ATOM      4  C   UNL     1       4.412  -7.035   2.836  0.00  0.00    +0.083 C 
ATOM      5  N   UNL     1       3.285  -6.236   2.333  0.00  0.00    -0.272 N 
ATOM      6  C   UNL     1       2.136  -6.773   2.765  0.00  0.00    +0.329 C 
ATOM      7  O   UNL     1       1.045  -6.313   2.492  0.00  0.00    -0.250 OA
ATOM      8  C   UNL     1       5.208  -7.631   1.673  0.00  0.00    +0.039 C 
BRANCH   4   9
ATOM      9  C   UNL     1       5.304  -6.198   3.716  0.00  0.00    +0.019 A 
ATOM     10  C   UNL     1       5.044  -4.851   3.881  0.00  0.00    +0.009 A 
ATOM     11  C   UNL     1       5.863  -4.082   4.687  0.00  0.00    +0.001 A 
ATOM     12  C   UNL     1       6.942  -4.659   5.331  0.00  0.00    +0.004 A 
ATOM     13  C   UNL     1       7.205  -6.005   5.170  0.00  0.00    +0.046 A 
ATOM     14  C   UNL     1       6.383  -6.780   4.365  0.00  0.00    +0.122 A 
BRANCH  14  15
ATOM     15  O   UNL     1       6.636  -8.106   4.209  0.00  0.00    -0.506 OA
ATOM     16  H   UNL     1       7.225  -8.309   3.469  0.00  0.00    +0.292 HD
ENDBRANCH  14  15
ENDBRANCH   4   9
BRANCH   2  17
ATOM     17  O   UNL     1       1.255  -8.616   4.116  0.00  0.00    -0.276 OA
BRANCH  17  19
ATOM     18  C   UNL     1      -0.346 -10.424   4.023  0.00  0.00    +0.036 C 
ATOM     19  C   UNL     1       0.774  -9.680   3.293  0.00  0.00    +0.187 C 
ENDBRANCH  17  19
ENDBRANCH   2  17
ENDBRANCH   1   5
BRANCH   1  20
ATOM     20  C   UNL     1       2.925  -5.375   0.072  0.00  0.00    -0.008 C 
ATOM     21  C   UNL     1       3.024  -4.124  -0.804  0.00  0.00    +0.026 C 
ATOM     22  C   UNL     1       2.169  -3.009  -0.194  0.00  0.00    +0.109 C 
ATOM     23  N   UNL     1       0.800  -3.510  -0.011  0.00  0.00    -0.181 NA
ATOM     24  C   UNL     1       0.599  -4.756   0.741  0.00  0.00    +0.109 C 
ATOM     25  C   UNL     1       1.471  -5.852   0.120  0.00  0.00    +0.026 C 
BRANCH  20  26
ATOM     26  C   UNL     1       3.805  -6.480  -0.515  0.00  0.00    -0.003 C 
ATOM     27  C   UNL     1       5.204  -5.925  -0.791  0.00  0.00    +0.004 C 
ATOM     28  C   UNL     1       6.084  -7.030  -1.378  0.00  0.00    +0.000 C 
ATOM     29  C   UNL     1       5.468  -7.533  -2.685  0.00  0.00    +0.000 C 
ATOM     30  C   UNL     1       4.069  -8.087  -2.409  0.00  0.00    +0.000 C 
ATOM     31  C   UNL     1       3.188  -6.982  -1.822  0.00  0.00    +0.004 C 
ENDBRANCH  20  26
BRANCH  23  32
ATOM     32  S   UNL     1      -0.492  -2.684  -0.637  0.00  0.00    +0.034 S 
ATOM     33  O   UNL     1       0.010  -2.065  -1.813  0.00  0.00    -0.158 OA
ATOM     34  O   UNL     1      -1.534  -3.647  -0.715  0.00  0.00    -0.158 OA
BRANCH  32  35
ATOM     35  C   UNL     1      -0.892  -1.429   0.609  0.00  0.00    +0.142 C 
ATOM     36  C   UNL     1      -2.160  -0.681   0.191  0.00  0.00    +0.033 C 
ATOM     37  C   UNL     1      -1.122  -2.107   1.961  0.00  0.00    +0.033 C 
ENDBRANCH  32  35
ENDBRANCH  23  32
ENDBRANCH   1  20
TORSDOF 9
