REMARK  Name = ZINC65197478
REMARK  7 active torsions:
REMARK  status: ('A' for Active; 'I' for Inactive)
REMARK    1  A    between atoms: C_1  and  C_2
REMARK    2  A    between atoms: C_5  and  S_8
REMARK    3  A    between atoms: S_8  and  N_11
REMARK    4  A    between atoms: C_15  and  C_17
REMARK    5  A    between atoms: N_19  and  N_20
REMARK    6  A    between atoms: N_23  and  C_24
REMARK    7  A    between atoms: C_24  and  C_25
REMARK                            x       y       z     vdW  Elec       q    Type
REMARK                         _______ _______ _______ _____ _____    ______ ____
ROOT
ATOM      1  N   UNL     1       1.145  -5.310   0.525  0.00  0.00    -0.165 NA
ATOM      2  C   UNL     1       1.546  -5.288  -0.893  0.00  0.00    +0.110 C 
ATOM      3  C   UNL     1       2.956  -4.646  -0.897  0.00  0.00    +0.019 C 
ATOM      4  C   UNL     1       3.568  -5.231   0.403  0.00  0.00    +0.031 C 
ATOM      5  C   UNL     1       2.357  -5.287   1.358  0.00  0.00    +0.167 C 
ENDROOT
BRANCH   5   6
ATOM      6  C   UNL     1       2.345  -4.070   2.247  0.00  0.00    +0.248 C 
ATOM      7  O   UNL     1       1.722  -3.084   1.916  0.00  0.00    -0.273 OA
ATOM      8  N   UNL     1       3.028  -4.078   3.409  0.00  0.00    -0.232 N 
ATOM      9  H   UNL     1       3.526  -4.867   3.673  0.00  0.00    +0.173 HD
BRANCH   8  10
ATOM     10  N   UNL     1       3.017  -2.947   4.235  0.00  0.00    -0.218 N 
ATOM     11  C   UNL     1       3.699  -2.955   5.397  0.00  0.00    +0.316 C 
ATOM     12  O   UNL     1       3.690  -1.973   6.115  0.00  0.00    -0.251 OA
ATOM     13  N   UNL     1       4.392  -4.051   5.765  0.00  0.00    -0.298 N 
ATOM     14  H   UNL     1       2.518  -2.158   3.971  0.00  0.00    +0.174 HD
ATOM     15  H   UNL     1       4.399  -4.834   5.193  0.00  0.00    +0.150 HD
BRANCH  13  16
ATOM     16  C   UNL     1       5.134  -4.059   7.028  0.00  0.00    +0.109 C 
BRANCH  16  17
ATOM     17  C   UNL     1       5.827  -5.412   7.204  0.00  0.00    +0.006 C 
ATOM     18  C   UNL     1       5.391  -6.281   8.386  0.00  0.00    +0.005 C 
ATOM     19  C   UNL     1       6.752  -5.581   8.410  0.00  0.00    +0.005 C 
ENDBRANCH  16  17
ENDBRANCH  13  16
ENDBRANCH   8  10
ENDBRANCH   5   6
BRANCH   1  20
ATOM     20  S   UNL     1      -0.412  -5.346   1.088  0.00  0.00    +0.062 S 
ATOM     21  O   UNL     1      -1.212  -4.694   0.111  0.00  0.00    -0.153 OA
ATOM     22  O   UNL     1      -0.364  -4.920   2.442  0.00  0.00    -0.153 OA
BRANCH  20  27
ATOM     23  C   UNL     1      -2.150 -11.124   1.162  0.00  0.00    +0.044 C 
ATOM     24  C   UNL     1      -1.716  -9.681   1.143  0.00  0.00    -0.050 A 
ATOM     25  C   UNL     1      -1.010  -9.158   2.211  0.00  0.00    +0.005 A 
ATOM     26  C   UNL     1      -0.612  -7.834   2.194  0.00  0.00    +0.029 A 
ATOM     27  C   UNL     1      -0.918  -7.034   1.109  0.00  0.00    +0.106 A 
ATOM     28  C   UNL     1      -1.623  -7.557   0.041  0.00  0.00    +0.029 A 
ATOM     29  C   UNL     1      -2.018  -8.882   0.056  0.00  0.00    +0.005 A 
ENDBRANCH  20  27
ENDBRANCH   1  20
TORSDOF 6
