REMARK  Name = ZINC39534231
REMARK  9 active torsions:
REMARK  status: ('A' for Active; 'I' for Inactive)
REMARK    1  A    between atoms: C_4  and  C_7
REMARK    2  A    between atoms: C_7  and  C_8
REMARK    3  A    between atoms: N_11  and  C_15
REMARK    4  A    between atoms: C_15  and  C_17
REMARK    5  A    between atoms: C_15  and  C_20
REMARK    6  A    between atoms: C_17  and  N_18
REMARK    7  A    between atoms: C_23  and  S_26
REMARK    8  A    between atoms: S_26  and  O_29
REMARK    9  A    between atoms: O_29  and  C_30
REMARK                            x       y       z     vdW  Elec       q    Type
REMARK                         _______ _______ _______ _____ _____    ______ ____
ROOT
ATOM      1  C   UNL     1       7.354  -2.419   2.793  0.00  0.00    +0.102 C 
ENDROOT
BRANCH   1   4
ATOM      2  C   UNL     1       5.965   1.063   3.160  0.00  0.00    -0.053 C 
ATOM      3  C   UNL     1       7.022  -0.026   2.969  0.00  0.00    +0.069 C 
ATOM      4  N   UNL     1       6.365  -1.340   2.919  0.00  0.00    -0.297 NA
ATOM      5  C   UNL     1       5.385  -1.392   1.825  0.00  0.00    +0.066 C 
ATOM      6  C   UNL     1       4.341  -0.291   2.026  0.00  0.00    -0.067 C 
ATOM      7  N   UNL     1       5.008   1.018   2.047  0.00  0.00    +0.383 N 
ATOM      8  H   UNL     1       4.318   1.744   2.167  0.00  0.00    -0.085 HD
ATOM      9  H   UNL     1       5.497   1.160   1.177  0.00  0.00    -0.085 HD
BRANCH   2  10
ATOM     10  C   UNL     1       6.645   2.434   3.193  0.00  0.00    +0.020 C 
BRANCH  10  14
ATOM     11  C   UNL     1       3.744   5.444   4.073  0.00  0.00    +0.000 A 
ATOM     12  C   UNL     1       4.428   4.821   5.101  0.00  0.00    +0.000 A 
ATOM     13  C   UNL     1       5.367   3.847   4.816  0.00  0.00    +0.003 A 
ATOM     14  C   UNL     1       5.621   3.495   3.503  0.00  0.00    -0.049 A 
ATOM     15  C   UNL     1       4.936   4.116   2.476  0.00  0.00    +0.003 A 
ATOM     16  C   UNL     1       3.998   5.092   2.761  0.00  0.00    +0.000 A 
ENDBRANCH  10  14
ENDBRANCH   2  10
ENDBRANCH   1   4
BRANCH   1  17
ATOM     17  C   UNL     1       7.973  -2.693   4.139  0.00  0.00    -0.029 A 
ATOM     18  C   UNL     1       7.757  -1.821   5.190  0.00  0.00    +0.007 A 
ATOM     19  C   UNL     1       8.325  -2.072   6.425  0.00  0.00    +0.031 A 
ATOM     20  C   UNL     1       9.110  -3.195   6.609  0.00  0.00    +0.128 A 
ATOM     21  C   UNL     1       9.325  -4.068   5.558  0.00  0.00    +0.031 A 
ATOM     22  C   UNL     1       8.753  -3.819   4.325  0.00  0.00    +0.007 A 
BRANCH  20  23
ATOM     23  S   UNL     1       9.835  -3.515   8.182  0.00  0.00    +0.151 S 
ATOM     24  O   UNL     1      10.968  -4.339   7.947  0.00  0.00    -0.131 OA
ATOM     25  O   UNL     1       9.929  -2.263   8.848  0.00  0.00    -0.131 OA
BRANCH  23  26
ATOM     26  O   UNL     1       8.843  -4.355   8.973  0.00  0.00    -0.342 OA
BRANCH  26  27
ATOM     27  C   UNL     1       8.779  -5.654   8.578  0.00  0.00    +0.157 A 
ATOM     28  C   UNL     1       7.887  -6.035   7.587  0.00  0.00    +0.048 A 
ATOM     29  C   UNL     1       7.825  -7.356   7.186  0.00  0.00    +0.004 A 
ATOM     30  C   UNL     1       8.651  -8.297   7.773  0.00  0.00    +0.000 A 
ATOM     31  C   UNL     1       9.541  -7.919   8.762  0.00  0.00    +0.004 A 
ATOM     32  C   UNL     1       9.611  -6.599   9.161  0.00  0.00    +0.048 A 
ENDBRANCH  26  27
ENDBRANCH  23  26
ENDBRANCH  20  23
ENDBRANCH   1  17
BRANCH   1  33
ATOM     33  C   UNL     1       8.444  -1.998   1.806  0.00  0.00    +0.122 C 
BRANCH  33  34
ATOM     34  N   UNL     1       7.835  -1.694   0.504  0.00  0.00    -0.231 NA
ATOM     35 CL   UNL     1       9.022  -1.219  -0.632  0.00  0.00    -0.024 Cl
ATOM     36  H   UNL     1       7.301  -2.479   0.162  0.00  0.00    +0.141 HD
ENDBRANCH  33  34
ENDBRANCH   1  33
TORSDOF 9
