REMARK  Name = ZINC31052954
REMARK  11 active torsions:
REMARK  status: ('A' for Active; 'I' for Inactive)
REMARK    1  A    between atoms: C_1  and  C_2
REMARK    2  A    between atoms: C_2  and  C_4
REMARK    3  A    between atoms: C_2  and  N_14
REMARK    4  A    between atoms: C_7  and  C_10
REMARK    5  A    between atoms: C_10  and  C_11
REMARK    6  A    between atoms: C_10  and  C_12
REMARK    7  A    between atoms: C_10  and  C_13
REMARK    8  A    between atoms: C_15  and  C_17
REMARK    9  A    between atoms: N_22  and  C_24
REMARK   10  A    between atoms: C_24  and  C_25
REMARK   11  A    between atoms: C_27  and  C_30
REMARK                            x       y       z     vdW  Elec       q    Type
REMARK                         _______ _______ _______ _____ _____    ______ ____
ROOT
ATOM      1  C   UNL     1      -2.447   1.351   2.951  0.00  0.00    +0.058 C 
ATOM      2  C   UNL     1      -3.019   2.748   2.699  0.00  0.00    +0.009 C 
ATOM      3  C   UNL     1      -3.785   3.209   3.942  0.00  0.00    -0.018 C 
ATOM      4  C   UNL     1      -4.888   2.197   4.261  0.00  0.00    -0.078 C 
ATOM      5  N   UNL     1      -4.289   0.876   4.495  0.00  0.00    +0.386 N 
ATOM      6  C   UNL     1      -3.588   0.392   3.299  0.00  0.00    -0.065 C 
ATOM      7  H   UNL     1      -3.546   0.983   5.298  0.00  0.00    -0.081 HD
ENDROOT
BRANCH   1   9
ATOM      8  N   UNL     1      -0.698   1.558   1.213  0.00  0.00    -0.309 N 
ATOM      9  C   UNL     1      -1.741   0.865   1.711  0.00  0.00    +0.215 C 
ATOM     10  O   UNL     1      -2.112  -0.151   1.161  0.00  0.00    -0.276 OA
ATOM     11  H   UNL     1      -0.362   2.479   1.712  0.00  0.00    +0.149 HD
BRANCH   8  13
ATOM     12  C   UNL     1      -0.753   1.593  -1.232  0.00  0.00    +0.033 C 
ATOM     13  C   UNL     1      -0.013   1.086   0.008  0.00  0.00    +0.100 C 
BRANCH  13  14
ATOM     14  C   UNL     1       1.401   1.607  -0.003  0.00  0.00    -0.027 A 
ATOM     15  C   UNL     1       1.663   2.902   0.406  0.00  0.00    +0.006 A 
ATOM     16  C   UNL     1       2.961   3.379   0.400  0.00  0.00    +0.004 A 
ATOM     17  C   UNL     1       3.995   2.564  -0.023  0.00  0.00    -0.042 A 
ATOM     18  C   UNL     1       3.732   1.272  -0.436  0.00  0.00    +0.004 A 
ATOM     19  C   UNL     1       2.435   0.793  -0.426  0.00  0.00    +0.006 A 
BRANCH  17  20
ATOM     20  C   UNL     1       5.409   3.086  -0.032  0.00  0.00    -0.013 C 
ATOM     21  C   UNL     1       5.962   3.034  -1.458  0.00  0.00    +0.015 C 
ATOM     22  C   UNL     1       5.423   4.532   0.468  0.00  0.00    +0.015 C 
ATOM     23  C   UNL     1       6.277   2.221   0.883  0.00  0.00    +0.015 C 
ENDBRANCH  17  20
ENDBRANCH  13  14
ENDBRANCH   8  13
ENDBRANCH   1   9
BRANCH   5  24
ATOM     24  C   UNL     1      -5.302  -0.090   4.939  0.00  0.00    +0.022 C 
BRANCH  24  25
ATOM     25  C   UNL     1      -6.285  -0.335   3.823  0.00  0.00    +0.211 A 
ATOM     26  N   UNL     1      -6.194  -1.252   2.893  0.00  0.00    -0.193 NA
ATOM     27  C   UNL     1      -7.293  -1.097   2.120  0.00  0.00    +0.202 A 
ATOM     28  N   UNL     1      -7.980  -0.104   2.622  0.00  0.00    -0.056 NA
ATOM     29  O   UNL     1      -7.418   0.340   3.601  0.00  0.00    -0.340 OA
BRANCH  27  30
ATOM     30  C   UNL     1      -7.652  -1.903   0.927  0.00  0.00    +0.024 A 
ATOM     31  C   UNL     1      -8.823  -1.627   0.224  0.00  0.00    +0.012 A 
ATOM     32  C   UNL     1      -9.153  -2.379  -0.885  0.00  0.00    +0.002 A 
ATOM     33  C   UNL     1      -8.323  -3.405  -1.300  0.00  0.00    +0.020 A 
ATOM     34  C   UNL     1      -7.158  -3.683  -0.606  0.00  0.00    +0.042 A 
ATOM     35  C   UNL     1      -6.816  -2.933   0.502  0.00  0.00    +0.031 A 
ATOM     36 CL   UNL     1      -6.122  -4.972  -1.134  0.00  0.00    -0.084 Cl
ENDBRANCH  27  30
ENDBRANCH  24  25
ENDBRANCH   5  24
TORSDOF 7
