REMARK  Name = ZINC66604137
REMARK  6 active torsions:
REMARK  status: ('A' for Active; 'I' for Inactive)
REMARK    1  A    between atoms: C_1  and  C_2
REMARK    2  A    between atoms: C_2  and  C_4
REMARK    3  A    between atoms: C_2  and  N_23
REMARK    4  A    between atoms: C_4  and  C_5
REMARK    5  A    between atoms: C_10  and  C_13
REMARK    6  A    between atoms: C_24  and  C_26
REMARK                            x       y       z     vdW  Elec       q    Type
REMARK                         _______ _______ _______ _____ _____    ______ ____
ROOT
ATOM      1  C   UNL     1       0.870  -2.011   1.172  0.00  0.00    +0.217 C 
ATOM      2  O   UNL     1       0.414  -2.615   0.224  0.00  0.00    -0.276 OA
ATOM      3  N   UNL     1       1.491  -2.681   2.163  0.00  0.00    -0.301 N 
ATOM      4  C   UNL     1       2.043  -1.964   3.320  0.00  0.00    +0.108 C 
ATOM      5  C   UNL     1       3.516  -2.352   3.484  0.00  0.00    +0.027 C 
ATOM      6  C   UNL     1       3.631  -3.875   3.576  0.00  0.00    +0.024 C 
ATOM      7  C   UNL     1       3.106  -4.506   2.284  0.00  0.00    +0.027 C 
ATOM      8  C   UNL     1       1.623  -4.143   2.109  0.00  0.00    +0.108 C 
ENDROOT
BRANCH   6   9
ATOM      9  C   UNL     1       5.075  -4.259   3.771  0.00  0.00    -0.019 A 
ATOM     10  C   UNL     1       6.094  -3.983   2.942  0.00  0.00    +0.087 A 
ATOM     11  N   UNL     1       7.259  -4.490   3.449  0.00  0.00    -0.360 N 
ATOM     12  H   UNL     1       8.129  -4.416   3.027  0.00  0.00    +0.165 HD
ATOM     13  C   UNL     1       7.012  -5.120   4.648  0.00  0.00    +0.047 A 
ATOM     14  C   UNL     1       5.634  -4.998   4.906  0.00  0.00    +0.003 A 
ATOM     15  C   UNL     1       5.092  -5.544   6.070  0.00  0.00    +0.010 A 
ATOM     16  C   UNL     1       5.904  -6.194   6.957  0.00  0.00    +0.001 A 
ATOM     17  C   UNL     1       7.264  -6.314   6.709  0.00  0.00    +0.002 A 
ATOM     18  C   UNL     1       7.819  -5.790   5.562  0.00  0.00    +0.026 A 
ENDBRANCH   6   9
BRANCH   1  19
ATOM     19  C   UNL     1       0.742  -0.511   1.242  0.00  0.00    +0.118 C 
BRANCH  19  21
ATOM     20  C   UNL     1      -0.019   1.526   0.010  0.00  0.00    +0.028 C 
ATOM     21  C   UNL     1       0.002  -0.004   0.002  0.00  0.00    +0.079 C 
BRANCH  21  22
ATOM     22  N   UNL     1      -1.372  -0.511   0.012  0.00  0.00    -0.312 N 
ATOM     23  C   UNL     1      -2.051  -0.643  -1.145  0.00  0.00    +0.216 C 
ATOM     24  O   UNL     1      -1.524  -0.341  -2.194  0.00  0.00    -0.276 OA
ATOM     25  H   UNL     1      -1.794  -0.752   0.852  0.00  0.00    +0.149 HD
BRANCH  23  26
ATOM     26  C   UNL     1      -3.465  -1.164  -1.134  0.00  0.00    +0.075 C 
ATOM     27  C   UNL     1      -3.485  -2.571  -0.532  0.00  0.00    +0.013 C 
ATOM     28  C   UNL     1      -4.920  -3.100  -0.521  0.00  0.00    +0.001 C 
ATOM     29  C   UNL     1      -5.456  -3.151  -1.953  0.00  0.00    +0.000 C 
ATOM     30  C   UNL     1      -5.436  -1.745  -2.555  0.00  0.00    +0.001 C 
ATOM     31  C   UNL     1      -4.000  -1.215  -2.566  0.00  0.00    +0.013 C 
ENDBRANCH  23  26
ENDBRANCH  21  22
ENDBRANCH  19  21
ENDBRANCH   1  19
TORSDOF 5
