REMARK  Name = ZINC36600873
REMARK  18 active torsions:
REMARK  status: ('A' for Active; 'I' for Inactive)
REMARK    1  A    between atoms: C_1  and  C_2
REMARK    2  A    between atoms: C_5  and  C_7
REMARK    3  A    between atoms: C_7  and  N_8
REMARK    4  A    between atoms: N_8  and  C_9
REMARK    5  A    between atoms: C_9  and  C_11
REMARK    6  A    between atoms: C_9  and  C_18
REMARK    7  A    between atoms: C_15  and  O_17
REMARK    8  A    between atoms: N_20  and  C_21
REMARK    9  A    between atoms: C_21  and  C_22
REMARK   10  A    between atoms: C_21  and  C_23
REMARK   11  A    between atoms: C_21  and  C_24
REMARK   12  A    between atoms: C_24  and  C_25
REMARK   13  A    between atoms: C_25  and  C_26
REMARK   14  A    between atoms: C_25  and  C_27
REMARK   15  A    between atoms: C_25  and  C_28
REMARK   16  A    between atoms: C_29  and  C_31
REMARK   17  A    between atoms: C_31  and  N_32
REMARK   18  A    between atoms: C_33  and  C_35
REMARK                            x       y       z     vdW  Elec       q    Type
REMARK                         _______ _______ _______ _____ _____    ______ ____
ROOT
ATOM      1  N   UNL     1       1.240  -1.545  -1.377  0.00  0.00    -0.277 N 
ATOM      2  C   UNL     1       0.671  -2.690  -0.949  0.00  0.00    +0.234 C 
ATOM      3  O   UNL     1       1.283  -3.734  -1.019  0.00  0.00    -0.274 OA
ENDROOT
BRANCH   1   4
ATOM      4  C   UNL     1       0.501  -0.283  -1.294  0.00  0.00    +0.183 C 
BRANCH   4   9
ATOM      5  C   UNL     1      -0.534   1.438  -5.920  0.00  0.00    +0.086 C 
ATOM      6  C   UNL     1      -0.669   0.713  -4.606  0.00  0.00    +0.102 A 
ATOM      7  C   UNL     1      -1.714  -0.047  -4.230  0.00  0.00    +0.045 A 
ATOM      8  C   UNL     1      -1.423  -0.529  -2.933  0.00  0.00    +0.046 A 
ATOM      9  C   UNL     1      -0.218  -0.036  -2.594  0.00  0.00    +0.122 A 
ATOM     10  O   UNL     1       0.236   0.711  -3.614  0.00  0.00    -0.463 OA
ENDBRANCH   4   9
ENDBRANCH   1   4
BRANCH   1  11
ATOM     11  C   UNL     1       2.599  -1.564  -1.926  0.00  0.00    +0.193 C 
BRANCH  11  12
ATOM     12  C   UNL     1       3.582  -1.859  -0.823  0.00  0.00    -0.015 A 
ATOM     13  C   UNL     1       3.469  -1.213   0.395  0.00  0.00    +0.006 A 
ATOM     14  C   UNL     1       4.370  -1.482   1.408  0.00  0.00    +0.004 A 
ATOM     15  C   UNL     1       5.386  -2.396   1.207  0.00  0.00    +0.045 A 
ATOM     16  C   UNL     1       5.501  -3.045  -0.013  0.00  0.00    +0.117 A 
ATOM     17  C   UNL     1       4.592  -2.779  -1.027  0.00  0.00    +0.051 A 
BRANCH  16  18
ATOM     18  O   UNL     1       6.500  -3.946  -0.213  0.00  0.00    -0.507 OA
ATOM     19  H   UNL     1       6.264  -4.853   0.023  0.00  0.00    +0.292 HD
ENDBRANCH  16  18
ENDBRANCH  11  12
BRANCH  11  20
ATOM     20  C   UNL     1       2.913  -0.221  -2.534  0.00  0.00    +0.239 C 
ATOM     21  O   UNL     1       2.111   0.685  -2.451  0.00  0.00    -0.273 OA
ATOM     22  N   UNL     1       4.086  -0.027  -3.169  0.00  0.00    -0.308 N 
ATOM     23  H   UNL     1       4.727  -0.751  -3.235  0.00  0.00    +0.149 HD
BRANCH  22  24
ATOM     24  C   UNL     1       4.392   1.278  -3.759  0.00  0.00    +0.030 C 
ATOM     25  C   UNL     1       3.443   1.544  -4.930  0.00  0.00    +0.031 C 
ATOM     26  C   UNL     1       4.215   2.370  -2.702  0.00  0.00    +0.031 C 
BRANCH  24  27
ATOM     27  C   UNL     1       5.837   1.285  -4.263  0.00  0.00    +0.031 C 
BRANCH  27  28
ATOM     28  C   UNL     1       6.719   0.502  -3.288  0.00  0.00    -0.036 C 
ATOM     29  C   UNL     1       6.681  -0.985  -3.648  0.00  0.00    +0.010 C 
ATOM     30  C   UNL     1       8.159   1.012  -3.382  0.00  0.00    +0.010 C 
ATOM     31  C   UNL     1       6.201   0.696  -1.862  0.00  0.00    +0.010 C 
ENDBRANCH  27  28
ENDBRANCH  24  27
ENDBRANCH  22  24
ENDBRANCH  11  20
ENDBRANCH   1  11
BRANCH   2  32
ATOM     32  C   UNL     1      -0.726  -2.671  -0.385  0.00  0.00    +0.200 C 
BRANCH  32  33
ATOM     33  N   UNL     1      -1.113  -4.029   0.006  0.00  0.00    -0.303 N 
ATOM     34  C   UNL     1      -2.330  -4.255   0.539  0.00  0.00    +0.244 C 
ATOM     35  O   UNL     1      -3.106  -3.333   0.696  0.00  0.00    -0.270 OA
ATOM     36  H   UNL     1      -0.494  -4.764  -0.119  0.00  0.00    +0.150 HD
BRANCH  34  37
ATOM     37  C   UNL     1      -2.721  -5.625   0.933  0.00  0.00    +0.037 A 
ATOM     38  C   UNL     1      -1.830  -6.686   0.760  0.00  0.00    +0.013 A 
ATOM     39  C   UNL     1      -2.201  -7.962   1.130  0.00  0.00    +0.001 A 
ATOM     40  C   UNL     1      -3.453  -8.192   1.672  0.00  0.00    +0.000 A 
ATOM     41  C   UNL     1      -4.341  -7.145   1.847  0.00  0.00    +0.001 A 
ATOM     42  C   UNL     1      -3.980  -5.863   1.486  0.00  0.00    +0.013 A 
ENDBRANCH  34  37
ENDBRANCH  32  33
ENDBRANCH   2  32
TORSDOF 12
