REMARK  Name = ZINC06527463
REMARK  6 active torsions:
REMARK  status: ('A' for Active; 'I' for Inactive)
REMARK    1  A    between atoms: C_1  and  C_2
REMARK    2  A    between atoms: N_5  and  C_7
REMARK    3  A    between atoms: C_7  and  C_9
REMARK    4  A    between atoms: C_7  and  C_10
REMARK    5  A    between atoms: N_12  and  C_13
REMARK    6  A    between atoms: C_19  and  C_21
REMARK                            x       y       z     vdW  Elec       q    Type
REMARK                         _______ _______ _______ _____ _____    ______ ____
ROOT
ATOM      1  C   UNL     1       4.183  -0.551  -2.485  0.00  0.00    +0.238 C 
ATOM      2  O   UNL     1       4.824  -0.259  -1.497  0.00  0.00    -0.273 OA
ATOM      3  N   UNL     1       2.839  -0.440  -2.473  0.00  0.00    -0.310 N 
ATOM      4  H   UNL     1       2.327  -0.674  -3.263  0.00  0.00    +0.149 HD
ENDROOT
BRANCH   3   5
ATOM      5  C   UNL     1       2.154   0.032  -1.268  0.00  0.00    +0.076 C 
ATOM      6  C   UNL     1       2.133   1.562  -1.259  0.00  0.00    +0.022 C 
ATOM      7  C   UNL     1       1.417   2.055  -0.000  0.00  0.00    +0.002 C 
ATOM      8  C   UNL     1      -0.019   1.526   0.010  0.00  0.00    +0.000 C 
ATOM      9  C   UNL     1       0.002  -0.004   0.002  0.00  0.00    +0.005 C 
ATOM     10  C   UNL     1       0.718  -0.497  -1.257  0.00  0.00    +0.006 C 
ATOM     11  C   UNL     1       0.739  -2.027  -1.265  0.00  0.00    +0.009 C 
ENDBRANCH   3   5
BRANCH   1  12
ATOM     12  C   UNL     1       4.888  -1.037  -3.724  0.00  0.00    +0.189 C 
ATOM     13  C   UNL     1       4.398  -2.444  -4.071  0.00  0.00    +0.042 C 
BRANCH  12  18
ATOM     14  C   UNL     1       9.713   0.340  -3.605  0.00  0.00    +0.069 C 
ATOM     15  C   UNL     1       8.438  -0.445  -3.442  0.00  0.00    +0.078 A 
ATOM     16  C   UNL     1       8.325  -1.718  -2.872  0.00  0.00    +0.081 A 
ATOM     17  C   UNL     1       7.020  -2.075  -2.905  0.00  0.00    +0.129 A 
ATOM     18  N   UNL     1       6.333  -1.068  -3.484  0.00  0.00    -0.258 N 
ATOM     19  N   UNL     1       7.244  -0.055  -3.809  0.00  0.00    -0.174 NA
ATOM     20 CL   UNL     1       9.629  -2.668  -2.229  0.00  0.00    -0.080 Cl
ENDBRANCH  12  18
ENDBRANCH   1  12
TORSDOF 3
