REMARK  Name = ZINC39664207
REMARK  10 active torsions:
REMARK  status: ('A' for Active; 'I' for Inactive)
REMARK    1  A    between atoms: C_1  and  C_2
REMARK    2  A    between atoms: C_4  and  C_8
REMARK    3  A    between atoms: N_6  and  C_7
REMARK    4  A    between atoms: C_12  and  C_21
REMARK    5  A    between atoms: N_23  and  C_24
REMARK    6  A    between atoms: C_24  and  C_25
REMARK    7  A    between atoms: C_25  and  C_27
REMARK    8  A    between atoms: C_25  and  N_35
REMARK    9  A    between atoms: C_30  and  O_33
REMARK   10  A    between atoms: O_33  and  C_34
REMARK                            x       y       z     vdW  Elec       q    Type
REMARK                         _______ _______ _______ _____ _____    ______ ____
ROOT
ATOM      1  C   UNL     1       0.209  -4.081  -2.008  0.00  0.00    +0.267 C 
ATOM      2  O   UNL     1       0.142  -4.157  -3.220  0.00  0.00    -0.268 OA
ATOM      3  N   UNL     1       0.164  -5.201  -1.259  0.00  0.00    -0.295 N 
ATOM      4  C   UNL     1       0.223  -5.309   0.217  0.00  0.00    +0.121 C 
ATOM      5  C   UNL     1      -0.790  -6.421   0.569  0.00  0.00    +0.100 C 
ATOM      6  C   UNL     1      -0.903  -7.268  -0.710  0.00  0.00    -0.004 C 
ATOM      7  C   UNL     1       0.036  -6.602  -1.727  0.00  0.00    +0.115 C 
ATOM      8  C   UNL     1      -0.457  -8.701  -0.436  0.00  0.00    -0.010 C 
ATOM      9  C   UNL     1      -0.633  -9.537  -1.707  0.00  0.00    -0.082 C 
ATOM     10  N   UNL     1      -2.041  -9.512  -2.120  0.00  0.00    +0.379 N 
ATOM     11  C   UNL     1      -2.436  -8.142  -2.471  0.00  0.00    -0.082 C 
ATOM     12  C   UNL     1      -2.336  -7.247  -1.232  0.00  0.00    -0.010 C 
ATOM     13  H   UNL     1      -2.166 -10.112  -2.922  0.00  0.00    -0.086 HD
ATOM     14  H   UNL     1      -2.619  -9.843  -1.362  0.00  0.00    -0.086 HD
ENDROOT
BRANCH   1  18
ATOM     15  C   UNL     1       0.618   0.902  -1.181  0.00  0.00    +0.065 C 
ATOM     16  C   UNL     1       0.516  -0.592  -1.013  0.00  0.00    +0.037 A 
ATOM     17  C   UNL     1       0.399  -1.505  -2.005  0.00  0.00    +0.057 A 
ATOM     18  C   UNL     1       0.339  -2.762  -1.357  0.00  0.00    +0.147 A 
ATOM     19  N   UNL     1       0.420  -2.531  -0.062  0.00  0.00    -0.167 NA
ATOM     20  N   UNL     1       0.529  -1.270   0.155  0.00  0.00    -0.271 N 
ATOM     21  C   UNL     1       0.647  -0.654   1.480  0.00  0.00    +0.172 C 
ENDBRANCH   1  18
BRANCH   5  22
ATOM     22  C   UNL     1      -0.275  -7.258   1.711  0.00  0.00    +0.218 C 
ATOM     23  O   UNL     1       0.918  -7.417   1.857  0.00  0.00    -0.275 OA
ATOM     24  N   UNL     1      -1.141  -7.830   2.572  0.00  0.00    -0.316 N 
ATOM     25  H   UNL     1      -2.096  -7.702   2.455  0.00  0.00    +0.149 HD
BRANCH  24  26
ATOM     26  C   UNL     1      -0.641  -8.643   3.682  0.00  0.00    +0.093 C 
BRANCH  26  27
ATOM     27  C   UNL     1      -1.820  -9.281   4.419  0.00  0.00    -0.020 C 
BRANCH  27  28
ATOM     28  C   UNL     1      -2.517 -10.255   3.505  0.00  0.00    -0.059 A 
ATOM     29  C   UNL     1      -1.997 -11.523   3.321  0.00  0.00    +0.005 A 
ATOM     30  C   UNL     1      -2.634 -12.417   2.483  0.00  0.00    +0.046 A 
ATOM     31  C   UNL     1      -3.796 -12.042   1.825  0.00  0.00    +0.120 A 
ATOM     32  C   UNL     1      -4.316 -10.770   2.011  0.00  0.00    +0.046 A 
ATOM     33  C   UNL     1      -3.679  -9.881   2.854  0.00  0.00    +0.005 A 
BRANCH  31  34
ATOM     34  O   UNL     1      -4.424 -12.920   0.999  0.00  0.00    -0.495 OA
ATOM     35  C   UNL     1      -5.616 -12.466   0.355  0.00  0.00    +0.277 C 
ENDBRANCH  31  34
ENDBRANCH  27  28
BRANCH  27  36
ATOM     36  N   UNL     1      -1.329  -9.991   5.608  0.00  0.00    +0.385 N 
ATOM     37  C   UNL     1      -0.702  -9.033   6.554  0.00  0.00    -0.078 C 
ATOM     38  C   UNL     1      -0.763  -9.782   7.909  0.00  0.00    -0.020 C 
ATOM     39  C   UNL     1      -2.127 -10.507   7.842  0.00  0.00    -0.020 C 
ATOM     40  C   UNL     1      -2.459 -10.601   6.341  0.00  0.00    -0.078 C 
ATOM     41  H   UNL     1      -0.665 -10.702   5.339  0.00  0.00    -0.081 HD
ENDBRANCH  27  36
ENDBRANCH  26  27
ENDBRANCH  24  26
ENDBRANCH   5  22
TORSDOF 7
