REMARK  Name = ZINC04788981
REMARK  16 active torsions:
REMARK  status: ('A' for Active; 'I' for Inactive)
REMARK    1  A    between atoms: C_1  and  C_2
REMARK    2  A    between atoms: C_7  and  C_19
REMARK    3  A    between atoms: C_9  and  C_13
REMARK    4  A    between atoms: C_10  and  C_12
REMARK    5  A    between atoms: C_13  and  O_15
REMARK    6  A    between atoms: O_15  and  C_16
REMARK    7  A    between atoms: C_16  and  C_17
REMARK    8  A    between atoms: C_16  and  C_18
REMARK    9  A    between atoms: C_21  and  O_28
REMARK   10  A    between atoms: C_22  and  O_27
REMARK   11  A    between atoms: C_23  and  O_25
REMARK   12  A    between atoms: O_25  and  C_26
REMARK   13  A    between atoms: O_28  and  C_29
REMARK   14  A    between atoms: C_32  and  C_34
REMARK   15  A    between atoms: C_34  and  O_36
REMARK   16  A    between atoms: O_36  and  C_37
REMARK                            x       y       z     vdW  Elec       q    Type
REMARK                         _______ _______ _______ _____ _____    ______ ____
ROOT
ATOM      1  C   UNL     1      -2.193   0.624   5.960  0.00  0.00    +0.009 C 
ATOM      2  C   UNL     1      -3.433   0.402   5.092  0.00  0.00    +0.013 C 
ATOM      3  C   UNL     1      -3.012  -0.044   3.690  0.00  0.00    +0.055 C 
ATOM      4  C   UNL     1      -2.179   1.036   3.045  0.00  0.00    +0.016 C 
ATOM      5  C   UNL     1      -2.378   2.338   3.341  0.00  0.00    +0.025 C 
ATOM      6  C   UNL     1      -1.542   3.412   2.692  0.00  0.00    +0.092 C 
ATOM      7  C   UNL     1      -0.849   2.892   1.467  0.00  0.00    +0.065 C 
ATOM      8  C   UNL     1      -0.718   1.572   1.248  0.00  0.00    +0.016 C 
ATOM      9  N   UNL     1      -1.215   0.668   2.145  0.00  0.00    -0.321 N 
ATOM     10  C   UNL     1      -0.013   1.086   0.008  0.00  0.00    +0.061 C 
ATOM     11  C   UNL     1      -3.364   2.729   4.263  0.00  0.00    +0.176 C 
ATOM     12  O   UNL     1      -3.529   3.911   4.495  0.00  0.00    -0.291 OA
ATOM     13  C   UNL     1      -4.218   1.712   4.970  0.00  0.00    +0.171 C 
ATOM     14  H   UNL     1      -0.834  -0.364   2.139  0.00  0.00    +0.152 HD
ENDROOT
BRANCH   6  15
ATOM     15  C   UNL     1      -0.504   3.892   3.674  0.00  0.00    -0.028 A 
ATOM     16  C   UNL     1       0.419   3.003   4.192  0.00  0.00    +0.054 A 
ATOM     17  C   UNL     1       1.378   3.442   5.091  0.00  0.00    +0.165 A 
ATOM     18  C   UNL     1       1.404   4.776   5.481  0.00  0.00    +0.201 A 
ATOM     19  C   UNL     1       0.470   5.665   4.963  0.00  0.00    +0.165 A 
ATOM     20  C   UNL     1      -0.482   5.220   4.059  0.00  0.00    +0.054 A 
BRANCH  19  21
ATOM     21  O   UNL     1       0.491   6.971   5.341  0.00  0.00    -0.491 OA
ATOM     22  C   UNL     1      -0.497   7.829   4.768  0.00  0.00    +0.277 C 
ENDBRANCH  19  21
BRANCH  18  23
ATOM     23  O   UNL     1       2.340   5.209   6.369  0.00  0.00    -0.501 OA
ATOM     24  H   UNL     1       2.359   6.265   6.677  0.00  0.00    +0.292 HD
ENDBRANCH  18  23
BRANCH  17  25
ATOM     25  O   UNL     1       2.290   2.567   5.595  0.00  0.00    -0.491 OA
ATOM     26  C   UNL     1       2.204   1.212   5.150  0.00  0.00    +0.277 C 
ENDBRANCH  17  25
ENDBRANCH   6  15
BRANCH   7  27
ATOM     27  C   UNL     1      -0.329   3.807   0.523  0.00  0.00    +0.338 C 
ATOM     28  O   UNL     1       0.232   3.397  -0.476  0.00  0.00    -0.245 OA
BRANCH  27  29
ATOM     29  O   UNL     1      -0.454   5.135   0.731  0.00  0.00    -0.459 OA
BRANCH  29  30
ATOM     30  C   UNL     1       0.096   6.001  -0.264  0.00  0.00    +0.171 C 
ATOM     31  C   UNL     1      -0.712   7.300  -0.312  0.00  0.00    +0.052 C 
ATOM     32  C   UNL     1       1.551   6.319   0.084  0.00  0.00    +0.052 C 
ENDBRANCH  29  30
ENDBRANCH  27  29
ENDBRANCH   7  27
BRANCH  13  33
ATOM     33  C   UNL     1      -4.572   2.218   6.345  0.00  0.00    +0.318 C 
ATOM     34  O   UNL     1      -4.240   1.591   7.323  0.00  0.00    -0.250 OA
BRANCH  33  35
ATOM     35  O   UNL     1      -5.256   3.365   6.482  0.00  0.00    -0.467 OA
ATOM     36  C   UNL     1      -5.562   3.791   7.836  0.00  0.00    +0.280 C 
ENDBRANCH  33  35
ENDBRANCH  13  33
TORSDOF 9
