REMARK  Name = ZINC58908401
REMARK  5 active torsions:
REMARK  status: ('A' for Active; 'I' for Inactive)
REMARK    1  A    between atoms: C_1  and  O_2
REMARK    2  A    between atoms: O_2  and  C_3
REMARK    3  A    between atoms: C_3  and  C_5
REMARK    4  A    between atoms: C_9  and  N_10
REMARK    5  A    between atoms: C_11  and  C_13
REMARK                            x       y       z     vdW  Elec       q    Type
REMARK                         _______ _______ _______ _____ _____    ______ ____
ROOT
ATOM      1  N   UNL     1      -1.281  -2.312  -2.478  0.00  0.00    -0.279 N 
ATOM      2  C   UNL     1      -1.325  -3.159  -3.526  0.00  0.00    +0.226 C 
ATOM      3  O   UNL     1      -1.370  -4.356  -3.336  0.00  0.00    -0.275 OA
ATOM      4  H   UNL     1      -1.246  -1.355  -2.630  0.00  0.00    +0.155 HD
ENDROOT
BRANCH   2   5
ATOM      5  C   UNL     1      -1.318  -2.619  -4.932  0.00  0.00    +0.116 C 
ATOM      6  C   UNL     1      -0.040  -1.812  -5.162  0.00  0.00    +0.113 C 
ATOM      7  C   UNL     1       1.144  -2.739  -5.240  0.00  0.00    +0.218 C 
ATOM      8  O   UNL     1       2.213  -2.384  -4.791  0.00  0.00    -0.275 OA
ATOM      9  N   UNL     1       1.030  -3.956  -5.801  0.00  0.00    -0.285 N 
ATOM     10  C   UNL     1      -0.199  -4.390  -6.308  0.00  0.00    +0.037 A 
ATOM     11  C   UNL     1      -1.373  -3.764  -5.910  0.00  0.00    -0.014 A 
ATOM     12  C   UNL     1      -2.586  -4.191  -6.411  0.00  0.00    +0.006 A 
ATOM     13  C   UNL     1      -2.633  -5.243  -7.308  0.00  0.00    +0.000 A 
ATOM     14  C   UNL     1      -1.466  -5.869  -7.706  0.00  0.00    +0.002 A 
ATOM     15  C   UNL     1      -0.249  -5.445  -7.209  0.00  0.00    +0.023 A 
ATOM     16  H   UNL     1       1.805  -4.537  -5.854  0.00  0.00    +0.155 HD
ENDBRANCH   2   5
BRANCH   1  21
ATOM     17  C   UNL     1      -1.248  -2.096   0.003  0.00  0.00    +0.091 A 
ATOM     18  C   UNL     1      -1.271  -2.859   1.243  0.00  0.00    -0.021 A 
ATOM     19  C   UNL     1      -1.318  -4.195   1.063  0.00  0.00    -0.004 A 
ATOM     20  S   UNL     1      -1.343  -4.413  -0.695  0.00  0.00    -0.077 S 
ATOM     21  C   UNL     1      -1.288  -2.809  -1.184  0.00  0.00    +0.086 A 
ATOM     22  C   UNL     1      -1.333  -5.260   2.115  0.00  0.00    +0.043 C 
ATOM     23  C   UNL     1      -2.393  -4.912   3.168  0.00  0.00    +0.005 C 
ATOM     24  C   UNL     1      -1.742  -4.055   4.249  0.00  0.00    +0.001 C 
ATOM     25  C   UNL     1      -0.655  -3.173   3.639  0.00  0.00    +0.005 C 
ATOM     26  C   UNL     1      -1.258  -2.210   2.620  0.00  0.00    +0.037 C 
BRANCH  17  27
ATOM     27  C   UNL     1      -1.191  -0.633   0.010  0.00  0.00    +0.342 C 
ATOM     28  O   UNL     1      -2.220   0.016   0.023  0.00  0.00    -0.245 OA
BRANCH  27  30
ATOM     29  C   UNL     1      -0.017   1.425   0.010  0.00  0.00    +0.280 C 
ATOM     30  O   UNL     1       0.002  -0.004   0.002  0.00  0.00    -0.464 OA
ENDBRANCH  27  30
ENDBRANCH  17  27
ENDBRANCH   1  21
TORSDOF 4
