REMARK  Name = ZINC39628631
REMARK  9 active torsions:
REMARK  status: ('A' for Active; 'I' for Inactive)
REMARK    1  A    between atoms: C_1  and  C_2
REMARK    2  A    between atoms: C_3  and  C_13
REMARK    3  A    between atoms: C_4  and  C_7
REMARK    4  A    between atoms: C_17  and  C_26
REMARK    5  A    between atoms: N_28  and  C_29
REMARK    6  A    between atoms: C_29  and  C_30
REMARK    7  A    between atoms: C_30  and  C_31
REMARK    8  A    between atoms: C_31  and  N_32
REMARK    9  A    between atoms: C_37  and  C_39
REMARK                            x       y       z     vdW  Elec       q    Type
REMARK                         _______ _______ _______ _____ _____    ______ ____
ROOT
ATOM      1  C   UNL     1      -2.664  -0.382  -0.023  0.00  0.00    +0.252 C 
ATOM      2  O   UNL     1      -3.260  -0.141  -1.056  0.00  0.00    -0.270 OA
ATOM      3  N   UNL     1      -3.262  -0.169   1.166  0.00  0.00    -0.296 N 
ATOM      4  C   UNL     1      -2.701  -0.394   2.519  0.00  0.00    +0.121 C 
ATOM      5  C   UNL     1      -3.211   0.801   3.356  0.00  0.00    +0.100 C 
ATOM      6  C   UNL     1      -4.479   1.278   2.628  0.00  0.00    -0.004 C 
ATOM      7  C   UNL     1      -4.629   0.348   1.415  0.00  0.00    +0.115 C 
ATOM      8  C   UNL     1      -4.309   2.720   2.161  0.00  0.00    -0.010 C 
ATOM      9  C   UNL     1      -5.603   3.191   1.491  0.00  0.00    -0.082 C 
ATOM     10  N   UNL     1      -6.714   3.091   2.445  0.00  0.00    +0.379 N 
ATOM     11  C   UNL     1      -6.930   1.688   2.817  0.00  0.00    -0.082 C 
ATOM     12  C   UNL     1      -5.692   1.154   3.544  0.00  0.00    -0.010 C 
ATOM     13  H   UNL     1      -6.495   3.627   3.271  0.00  0.00    -0.086 HD
ATOM     14  H   UNL     1      -7.553   3.458   2.021  0.00  0.00    -0.086 HD
ENDROOT
BRANCH   1  17
ATOM     15  C   UNL     1      -0.051   1.333  -0.051  0.00  0.00    +0.090 C 
ATOM     16  C   UNL     1      -0.138  -0.171  -0.084  0.00  0.00    +0.147 A 
ATOM     17  C   UNL     1      -1.288  -0.905  -0.071  0.00  0.00    +0.106 A 
ATOM     18  C   UNL     1      -0.888  -2.319  -0.115  0.00  0.00    +0.126 A 
ATOM     19  N   UNL     1       0.420  -2.344  -0.150  0.00  0.00    -0.077 NA
ATOM     20  O   UNL     1       0.896  -1.014  -0.137  0.00  0.00    -0.359 OA
BRANCH  18  21
ATOM     21  C   UNL     1      -1.795  -3.494  -0.119  0.00  0.00    +0.004 A 
ATOM     22  C   UNL     1      -2.988  -3.458   0.600  0.00  0.00    +0.010 A 
ATOM     23  C   UNL     1      -3.828  -4.554   0.593  0.00  0.00    +0.001 A 
ATOM     24  C   UNL     1      -3.486  -5.685  -0.126  0.00  0.00    +0.000 A 
ATOM     25  C   UNL     1      -2.303  -5.726  -0.842  0.00  0.00    +0.001 A 
ATOM     26  C   UNL     1      -1.459  -4.634  -0.846  0.00  0.00    +0.010 A 
ENDBRANCH  18  21
ENDBRANCH   1  17
BRANCH   5  27
ATOM     27  C   UNL     1      -3.543   0.355   4.757  0.00  0.00    +0.218 C 
ATOM     28  O   UNL     1      -3.934  -0.775   4.957  0.00  0.00    -0.275 OA
ATOM     29  N   UNL     1      -3.406   1.214   5.787  0.00  0.00    -0.315 N 
ATOM     30  H   UNL     1      -3.094   2.118   5.627  0.00  0.00    +0.149 HD
BRANCH  29  31
ATOM     31  C   UNL     1      -3.730   0.781   7.149  0.00  0.00    +0.102 C 
BRANCH  31  32
ATOM     32  C   UNL     1      -3.489   1.937   8.122  0.00  0.00    +0.000 C 
BRANCH  32  33
ATOM     33  C   UNL     1      -3.827   1.484   9.544  0.00  0.00    -0.077 C 
BRANCH  33  34
ATOM     34  N   UNL     1      -3.596   2.594  10.479  0.00  0.00    +0.381 N 
ATOM     35  C   UNL     1      -4.529   3.687  10.178  0.00  0.00    -0.078 C 
ATOM     36  C   UNL     1      -4.239   4.877  11.095  0.00  0.00    -0.019 C 
ATOM     37  C   UNL     1      -4.411   4.444  12.554  0.00  0.00    -0.003 C 
ATOM     38  C   UNL     1      -3.487   3.255  12.835  0.00  0.00    -0.016 C 
ATOM     39  C   UNL     1      -3.805   2.125  11.854  0.00  0.00    -0.072 C 
ATOM     40  C   UNL     1      -2.885   0.935  12.132  0.00  0.00    -0.013 C 
ATOM     41  H   UNL     1      -2.649   2.926  10.378  0.00  0.00    -0.081 HD
ENDBRANCH  33  34
ENDBRANCH  32  33
ENDBRANCH  31  32
ENDBRANCH  29  31
ENDBRANCH   5  27
TORSDOF 7
