REMARK  Name = ZINC32666227
REMARK  8 active torsions:
REMARK  status: ('A' for Active; 'I' for Inactive)
REMARK    1  A    between atoms: C_1  and  C_2
REMARK    2  A    between atoms: C_2  and  C_3
REMARK    3  A    between atoms: C_3  and  N_4
REMARK    4  A    between atoms: N_4  and  C_5
REMARK    5  A    between atoms: C_6  and  N_21
REMARK    6  A    between atoms: N_7  and  C_14
REMARK    7  A    between atoms: C_14  and  C_15
REMARK    8  A    between atoms: C_22  and  C_24
REMARK                            x       y       z     vdW  Elec       q    Type
REMARK                         _______ _______ _______ _____ _____    ______ ____
ROOT
ATOM      1  C   UNL     1      -0.010  -2.526  -2.401  0.00  0.00    +0.140 A 
ATOM      2  C   UNL     1       0.281  -2.558  -3.750  0.00  0.00    +0.128 A 
ATOM      3  N   UNL     1      -0.387  -3.447  -4.560  0.00  0.00    -0.276 N 
ATOM      4  C   UNL     1      -1.313  -4.275  -4.043  0.00  0.00    +0.331 A 
ATOM      5  O   UNL     1      -1.892  -5.054  -4.776  0.00  0.00    -0.246 OA
ATOM      6  N   UNL     1      -1.609  -4.258  -2.732  0.00  0.00    -0.273 N 
ATOM      7  H   UNL     1      -2.281  -4.866  -2.384  0.00  0.00    +0.173 HD
ATOM      8  C   UNL     1      -0.980  -3.411  -1.894  0.00  0.00    +0.277 A 
ATOM      9  O   UNL     1      -1.253  -3.407  -0.705  0.00  0.00    -0.266 OA
ENDROOT
BRANCH   1  10
ATOM     10  N   UNL     1       0.658  -1.627  -1.545  0.00  0.00    -0.260 N 
ATOM     11  C   UNL     1       1.470  -2.096  -0.577  0.00  0.00    +0.252 C 
ATOM     12  O   UNL     1       1.966  -1.328   0.225  0.00  0.00    -0.270 OA
BRANCH  11  13
ATOM     13  C   UNL     1       1.758  -3.543  -0.490  0.00  0.00    +0.049 A 
ATOM     14  C   UNL     1       2.093  -4.277  -1.620  0.00  0.00    +0.053 A 
ATOM     15  C   UNL     1       2.358  -5.641  -1.501  0.00  0.00    +0.131 A 
ATOM     16  N   UNL     1       2.300  -6.259  -0.346  0.00  0.00    -0.235 NA
ATOM     17  C   UNL     1       1.984  -5.616   0.782  0.00  0.00    +0.073 A 
ATOM     18  C   UNL     1       1.706  -4.227   0.752  0.00  0.00    +0.013 A 
ATOM     19  C   UNL     1       1.382  -3.558   1.940  0.00  0.00    +0.011 A 
ATOM     20  C   UNL     1       1.342  -4.250   3.113  0.00  0.00    +0.001 A 
ATOM     21  C   UNL     1       1.621  -5.614   3.148  0.00  0.00    +0.002 A 
ATOM     22  C   UNL     1       1.927  -6.297   2.011  0.00  0.00    +0.028 A 
ATOM     23 CL   UNL     1       2.775  -6.546  -2.922  0.00  0.00    -0.062 Cl
ENDBRANCH  11  13
BRANCH  10  24
ATOM     24  C   UNL     1       0.469  -0.183  -1.708  0.00  0.00    +0.114 C 
BRANCH  24  26
ATOM     25  C   UNL     1      -0.869   1.795  -0.973  0.00  0.00    +0.005 C 
ATOM     26  C   UNL     1      -0.671   0.287  -0.803  0.00  0.00    +0.016 C 
ENDBRANCH  24  26
ENDBRANCH  10  24
ENDBRANCH   1  10
BRANCH   2  27
ATOM     27  N   UNL     1       1.226  -1.712  -4.278  0.00  0.00    -0.343 N 
ATOM     28  H   UNL     1       1.764  -1.159  -3.690  0.00  0.00    +0.144 HD
ATOM     29  H   UNL     1       1.354  -1.667  -5.239  0.00  0.00    +0.144 HD
ENDBRANCH   2  27
BRANCH   3  30
ATOM     30  C   UNL     1      -0.090  -3.491  -5.994  0.00  0.00    +0.163 C 
BRANCH  30  31
ATOM     31  C   UNL     1       1.019  -4.481  -6.246  0.00  0.00    -0.028 A 
ATOM     32  C   UNL     1       2.337  -4.065  -6.215  0.00  0.00    +0.005 A 
ATOM     33  C   UNL     1       3.353  -4.973  -6.446  0.00  0.00    +0.000 A 
ATOM     34  C   UNL     1       3.052  -6.296  -6.708  0.00  0.00    +0.000 A 
ATOM     35  C   UNL     1       1.734  -6.712  -6.739  0.00  0.00    +0.000 A 
ATOM     36  C   UNL     1       0.717  -5.805  -6.503  0.00  0.00    +0.005 A 
ENDBRANCH  30  31
ENDBRANCH   3  30
TORSDOF 7
