REMARK  Name = ZINC05130346
REMARK  7 active torsions:
REMARK  status: ('A' for Active; 'I' for Inactive)
REMARK    1  A    between atoms: C_1  and  C_2
REMARK    2  A    between atoms: C_10  and  C_12
REMARK    3  A    between atoms: C_12  and  C_24
REMARK    4  A    between atoms: C_13  and  C_14
REMARK    5  A    between atoms: C_16  and  O_22
REMARK    6  A    between atoms: C_17  and  O_21
REMARK    7  A    between atoms: O_22  and  C_23
REMARK                            x       y       z     vdW  Elec       q    Type
REMARK                         _______ _______ _______ _____ _____    ______ ____
ROOT
ATOM      1  C   UNL     1       0.111  -5.571   2.236  0.00  0.00    +0.094 C 
ATOM      2  C   UNL     1       0.097  -6.727   1.509  0.00  0.00    +0.030 C 
ENDROOT
BRANCH   1  12
ATOM      3  C   UNL     1      -1.179   1.427   0.138  0.00  0.00    +0.044 C 
ATOM      4  C   UNL     1      -1.002  -0.070   0.112  0.00  0.00    -0.048 A 
ATOM      5  C   UNL     1      -1.170  -0.763  -1.079  0.00  0.00    +0.005 A 
ATOM      6  C   UNL     1      -1.015  -2.119  -1.123  0.00  0.00    +0.030 A 
ATOM      7  C   UNL     1      -0.684  -2.822   0.041  0.00  0.00    +0.089 A 
ATOM      8  C   UNL     1      -0.514  -2.119   1.247  0.00  0.00    +0.067 A 
ATOM      9  C   UNL     1      -0.671  -0.740   1.271  0.00  0.00    +0.031 A 
ATOM     10  N   UNL     1      -0.198  -3.065   2.204  0.00  0.00    -0.337 N 
ATOM     11  H   UNL     1      -0.021  -2.897   3.143  0.00  0.00    +0.167 HD
ATOM     12  C   UNL     1      -0.183  -4.284   1.579  0.00  0.00    +0.150 A 
ATOM     13  N   UNL     1      -0.470  -4.133   0.307  0.00  0.00    -0.227 NA
ENDBRANCH   1  12
BRANCH   2  14
ATOM     14  C   UNL     1       0.227  -8.020   2.187  0.00  0.00    -0.019 A 
ATOM     15  C   UNL     1       0.945  -9.061   1.583  0.00  0.00    +0.057 A 
ATOM     16  C   UNL     1       1.064 -10.277   2.227  0.00  0.00    +0.163 A 
ATOM     17  C   UNL     1       0.471 -10.467   3.475  0.00  0.00    +0.177 A 
ATOM     18  C   UNL     1      -0.242  -9.437   4.075  0.00  0.00    +0.087 A 
ATOM     19  C   UNL     1      -0.361  -8.217   3.444  0.00  0.00    +0.032 A 
ATOM     20 CL   UNL     1      -0.978  -9.683   5.628  0.00  0.00    -0.080 Cl
BRANCH  17  21
ATOM     21  O   UNL     1       0.590 -11.665   4.105  0.00  0.00    -0.502 OA
ATOM     22  H   UNL     1       1.363 -11.731   4.681  0.00  0.00    +0.292 HD
ENDBRANCH  17  21
BRANCH  16  23
ATOM     23  O   UNL     1       1.760 -11.289   1.644  0.00  0.00    -0.491 OA
ATOM     24  C   UNL     1       2.341 -11.024   0.365  0.00  0.00    +0.277 C 
ENDBRANCH  16  23
ENDBRANCH   2  14
BRANCH   1  25
ATOM     25  C   UNL     1       0.411  -5.608   3.635  0.00  0.00    +0.103 C 
ATOM     26  N   UNL     1       0.649  -5.638   4.746  0.00  0.00    -0.191 NA
ENDBRANCH   1  25
TORSDOF 5
