REMARK  Name = ZINC13121742
REMARK  7 active torsions:
REMARK  status: ('A' for Active; 'I' for Inactive)
REMARK    1  A    between atoms: C_1  and  O_2
REMARK    2  A    between atoms: O_2  and  C_3
REMARK    3  A    between atoms: C_8  and  C_9
REMARK    4  A    between atoms: C_12  and  C_19
REMARK    5  A    between atoms: N_14  and  S_15
REMARK    6  A    between atoms: S_15  and  C_18
REMARK    7  A    between atoms: C_20  and  C_32
REMARK                            x       y       z     vdW  Elec       q    Type
REMARK                         _______ _______ _______ _____ _____    ______ ____
ROOT
ATOM      1  C   UNL     1       0.899  -5.444   2.709  0.00  0.00    +0.070 A 
ATOM      2  C   UNL     1      -0.054  -5.785   3.670  0.00  0.00    +0.005 A 
ATOM      3  C   UNL     1       0.412  -6.370   4.936  0.00  0.00    +0.008 A 
ATOM      4  C   UNL     1      -0.502  -6.729   5.932  0.00  0.00    +0.030 A 
ATOM      5  C   UNL     1      -0.048  -7.276   7.111  0.00  0.00    +0.042 A 
ATOM      6  C   UNL     1       1.312  -7.471   7.315  0.00  0.00    +0.022 A 
ATOM      7  C   UNL     1       2.225  -7.122   6.343  0.00  0.00    +0.028 A 
ATOM      8  C   UNL     1       1.788  -6.568   5.143  0.00  0.00    +0.050 A 
ATOM      9  N   UNL     1       2.701  -6.219   4.168  0.00  0.00    -0.322 N 
ATOM     10  H   UNL     1       3.646  -6.365   4.332  0.00  0.00    +0.169 HD
ATOM     11  C   UNL     1       2.316  -5.687   2.995  0.00  0.00    +0.259 A 
ATOM     12  O   UNL     1       3.156  -5.398   2.162  0.00  0.00    -0.267 OA
ATOM     13 CL   UNL     1      -1.180  -7.723   8.349  0.00  0.00    -0.084 Cl
ENDROOT
BRANCH   2  14
ATOM     14  C   UNL     1      -1.493  -5.563   3.422  0.00  0.00    -0.016 A 
ATOM     15  C   UNL     1      -1.996  -4.264   3.323  0.00  0.00    +0.008 A 
ATOM     16  C   UNL     1      -3.341  -4.064   3.091  0.00  0.00    +0.001 A 
ATOM     17  C   UNL     1      -4.191  -5.147   2.958  0.00  0.00    +0.000 A 
ATOM     18  C   UNL     1      -3.700  -6.438   3.055  0.00  0.00    +0.001 A 
ATOM     19  C   UNL     1      -2.356  -6.652   3.280  0.00  0.00    +0.008 A 
ENDBRANCH   2  14
BRANCH   1  22
ATOM     20  C   UNL     1       0.057  -3.328  -0.380  0.00  0.00    +0.157 C 
ATOM     21  C   UNL     1       0.637  -3.401   1.046  0.00  0.00    +0.088 C 
ATOM     22  C   UNL     1       0.488  -4.857   1.427  0.00  0.00    +0.076 C 
ATOM     23  N   UNL     1      -0.056  -5.503   0.452  0.00  0.00    -0.167 NA
ATOM     24  N   UNL     1      -0.352  -4.714  -0.662  0.00  0.00    -0.120 N 
BRANCH  20  30
ATOM     25  C   UNL     1      -0.952  -1.046  -0.629  0.00  0.00    +0.125 A 
ATOM     26  C   UNL     1      -2.050  -0.200  -0.672  0.00  0.00    +0.046 A 
ATOM     27  C   UNL     1      -3.322  -0.712  -0.502  0.00  0.00    +0.004 A 
ATOM     28  C   UNL     1      -3.501  -2.067  -0.290  0.00  0.00    +0.001 A 
ATOM     29  C   UNL     1      -2.408  -2.912  -0.246  0.00  0.00    +0.009 A 
ATOM     30  C   UNL     1      -1.134  -2.405  -0.421  0.00  0.00    +0.018 A 
BRANCH  25  32
ATOM     31  C   UNL     1       0.413   0.864  -1.006  0.00  0.00    +0.277 C 
ATOM     32  O   UNL     1       0.301  -0.545  -0.796  0.00  0.00    -0.495 OA
ENDBRANCH  25  32
ENDBRANCH  20  30
BRANCH  24  33
ATOM     33  S   UNL     1      -1.049  -5.245  -2.067  0.00  0.00    +0.057 S 
ATOM     34  O   UNL     1      -1.891  -6.319  -1.670  0.00  0.00    -0.154 OA
ATOM     35  O   UNL     1      -1.596  -4.077  -2.664  0.00  0.00    -0.154 OA
ATOM     36  C   UNL     1       0.331  -5.869  -3.065  0.00  0.00    +0.220 C 
ENDBRANCH  24  33
ENDBRANCH   1  22
TORSDOF 5
