REMARK  Name = ZINC41572677
REMARK  6 active torsions:
REMARK  status: ('A' for Active; 'I' for Inactive)
REMARK    1  A    between atoms: C_1  and  C_2
REMARK    2  A    between atoms: C_2  and  C_4
REMARK    3  A    between atoms: C_2  and  N_17
REMARK    4  A    between atoms: N_13  and  C_16
REMARK    5  A    between atoms: N_17  and  S_18
REMARK    6  A    between atoms: S_18  and  C_21
REMARK                            x       y       z     vdW  Elec       q    Type
REMARK                         _______ _______ _______ _____ _____    ______ ____
ROOT
ATOM      1  C   UNL     1      -1.412  -0.526   0.013  0.00  0.00    +0.237 C 
ATOM      2  O   UNL     1      -1.808  -1.223  -0.897  0.00  0.00    -0.274 OA
ATOM      3  N   UNL     1      -2.236  -0.217   1.033  0.00  0.00    -0.263 N 
ATOM      4  C   UNL     1      -3.540  -0.698   1.043  0.00  0.00    +0.165 A 
ATOM      5  N   UNL     1      -4.479  -0.498   1.943  0.00  0.00    -0.229 NA
ATOM      6  C   UNL     1      -5.691  -1.025   1.821  0.00  0.00    +0.056 A 
ATOM      7  C   UNL     1      -5.878  -1.779   0.705  0.00  0.00    +0.028 A 
ATOM      8  S   UNL     1      -4.306  -1.674  -0.099  0.00  0.00    -0.055 S 
ATOM      9  C   UNL     1      -7.122  -2.494   0.304  0.00  0.00    +0.128 C 
ATOM     10  N   UNL     1      -8.018  -2.547   1.477  0.00  0.00    -0.300 NA
ATOM     11  C   UNL     1      -8.140  -1.222   2.099  0.00  0.00    +0.090 C 
ATOM     12  C   UNL     1      -6.836  -0.844   2.808  0.00  0.00    +0.071 C 
ATOM     13  C   UNL     1      -9.336  -3.080   1.109  0.00  0.00    +0.105 C 
ATOM     14  H   UNL     1      -1.920   0.341   1.761  0.00  0.00    +0.157 HD
ENDROOT
BRANCH   1  16
ATOM     15  C   UNL     1      -0.019   1.526   0.010  0.00  0.00    +0.035 C 
ATOM     16  C   UNL     1       0.002  -0.004   0.002  0.00  0.00    +0.159 C 
BRANCH  16  17
ATOM     17  N   UNL     1       0.688  -0.476  -1.203  0.00  0.00    -0.178 NA
ATOM     18  H   UNL     1       0.197  -0.571  -2.035  0.00  0.00    +0.149 HD
BRANCH  17  19
ATOM     19  S   UNL     1       2.300  -0.849  -1.146  0.00  0.00    +0.059 S 
ATOM     20  O   UNL     1       2.660  -1.296  -2.446  0.00  0.00    -0.153 OA
ATOM     21  O   UNL     1       2.947   0.245  -0.511  0.00  0.00    -0.153 OA
BRANCH  19  22
ATOM     22  C   UNL     1       2.478  -2.233  -0.071  0.00  0.00    +0.105 A 
ATOM     23  C   UNL     1       2.680  -2.035   1.282  0.00  0.00    +0.028 A 
ATOM     24  C   UNL     1       2.819  -3.121   2.126  0.00  0.00    +0.002 A 
ATOM     25  C   UNL     1       2.756  -4.405   1.617  0.00  0.00    +0.000 A 
ATOM     26  C   UNL     1       2.553  -4.603   0.264  0.00  0.00    +0.002 A 
ATOM     27  C   UNL     1       2.409  -3.517  -0.579  0.00  0.00    +0.028 A 
ENDBRANCH  19  22
ENDBRANCH  17  19
ENDBRANCH  16  17
ENDBRANCH   1  16
TORSDOF 4
