REMARK  Name = ZINC39413097
REMARK  7 active torsions:
REMARK  status: ('A' for Active; 'I' for Inactive)
REMARK    1  A    between atoms: C_1  and  C_2
REMARK    2  A    between atoms: C_2  and  C_17
REMARK    3  A    between atoms: N_5  and  C_9
REMARK    4  A    between atoms: C_9  and  C_10
REMARK    5  A    between atoms: N_20  and  C_23
REMARK    6  A    between atoms: C_23  and  C_24
REMARK    7  A    between atoms: C_29  and  C_30
REMARK                            x       y       z     vdW  Elec       q    Type
REMARK                         _______ _______ _______ _____ _____    ______ ____
ROOT
ATOM      1  C   UNL     1      -1.423  -0.560  -0.041  0.00  0.00    +0.018 C 
ATOM      2  C   UNL     1      -2.083  -0.176  -1.368  0.00  0.00    -0.013 C 
ATOM      3  C   UNL     1      -3.532  -0.666  -1.371  0.00  0.00    -0.078 C 
ATOM      4  N   UNL     1      -4.265  -0.045  -0.262  0.00  0.00    +0.380 N 
ATOM      5  C   UNL     1      -3.682  -0.466   1.018  0.00  0.00    -0.078 C 
ATOM      6  C   UNL     1      -2.238   0.032   1.113  0.00  0.00    -0.013 C 
ATOM      7  H   UNL     1      -4.207   0.959  -0.343  0.00  0.00    -0.082 HD
ENDROOT
BRANCH   1   9
ATOM      8  C   UNL     1      -0.019   1.526   0.010  0.00  0.00    +0.042 C 
ATOM      9  C   UNL     1       0.002  -0.004   0.002  0.00  0.00    +0.112 C 
ATOM     10  C   UNL     1       0.815  -0.520  -1.169  0.00  0.00    +0.247 C 
ATOM     11  O   UNL     1       0.595  -0.342  -2.348  0.00  0.00    -0.273 OA
ATOM     12  N   UNL     1       1.833  -1.217  -0.627  0.00  0.00    -0.220 N 
ATOM     13  C   UNL     1       1.777  -1.214   0.710  0.00  0.00    +0.310 C 
ATOM     14  O   UNL     1       2.586  -1.776   1.421  0.00  0.00    -0.252 OA
ATOM     15  N   UNL     1       0.724  -0.519   1.178  0.00  0.00    -0.285 N 
ATOM     16  H   UNL     1       0.487  -0.383   2.109  0.00  0.00    +0.151 HD
BRANCH  12  17
ATOM     17  C   UNL     1       2.871  -1.896  -1.406  0.00  0.00    +0.153 C 
BRANCH  17  18
ATOM     18  C   UNL     1       4.020  -0.950  -1.644  0.00  0.00    -0.029 A 
ATOM     19  C   UNL     1       4.027  -0.140  -2.764  0.00  0.00    +0.008 A 
ATOM     20  C   UNL     1       5.079   0.729  -2.983  0.00  0.00    +0.038 A 
ATOM     21  C   UNL     1       6.127   0.787  -2.079  0.00  0.00    +0.123 A 
ATOM     22  C   UNL     1       6.119  -0.025  -0.958  0.00  0.00    +0.038 A 
ATOM     23  C   UNL     1       5.063  -0.889  -0.738  0.00  0.00    +0.008 A 
ATOM     24  F   UNL     1       7.157   1.635  -2.293  0.00  0.00    -0.205 F 
ENDBRANCH  17  18
ENDBRANCH  12  17
ENDBRANCH   1   9
BRANCH   4  25
ATOM     25  C   UNL     1      -5.674  -0.458  -0.316  0.00  0.00    -0.063 C 
BRANCH  25  26
ATOM     26  C   UNL     1      -6.464   0.285   0.763  0.00  0.00    +0.066 C 
ATOM     27  C   UNL     1      -6.561   1.762   0.433  0.00  0.00    +0.115 C 
ATOM     28  N   UNL     1      -7.822   2.017   0.299  0.00  0.00    -0.161 NA
ATOM     29  N   UNL     1      -8.617   0.893   0.497  0.00  0.00    -0.153 NA
ATOM     30  C   UNL     1      -7.910  -0.171   0.776  0.00  0.00    +0.077 C 
BRANCH  30  31
ATOM     31  C   UNL     1      -8.410  -1.529   1.046  0.00  0.00    -0.001 A 
ATOM     32  C   UNL     1      -7.514  -2.563   1.334  0.00  0.00    +0.010 A 
ATOM     33  C   UNL     1      -7.990  -3.833   1.585  0.00  0.00    +0.001 A 
ATOM     34  C   UNL     1      -9.350  -4.085   1.552  0.00  0.00    +0.000 A 
ATOM     35  C   UNL     1     -10.243  -3.066   1.266  0.00  0.00    +0.001 A 
ATOM     36  C   UNL     1      -9.783  -1.790   1.020  0.00  0.00    +0.010 A 
ENDBRANCH  30  31
ENDBRANCH  25  26
ENDBRANCH   4  25
TORSDOF 6
