REMARK  Name = ZINC39508332
REMARK  6 active torsions:
REMARK  status: ('A' for Active; 'I' for Inactive)
REMARK    1  A    between atoms: C_4  and  C_7
REMARK    2  A    between atoms: C_7  and  C_8
REMARK    3  A    between atoms: C_15  and  O_29
REMARK    4  A    between atoms: N_18  and  S_19
REMARK    5  A    between atoms: S_19  and  O_22
REMARK    6  A    between atoms: O_22  and  C_23
REMARK                            x       y       z     vdW  Elec       q    Type
REMARK                         _______ _______ _______ _____ _____    ______ ____
ROOT
ATOM      1  C   UNL     1       4.178  -0.710   1.619  0.00  0.00    -0.005 C 
ATOM      2  C   UNL     1       4.783   0.588   2.195  0.00  0.00    +0.006 C 
ATOM      3  C   UNL     1       6.017   0.110   3.002  0.00  0.00    +0.024 C 
ATOM      4  C   UNL     1       6.562  -1.042   2.137  0.00  0.00    +0.049 C 
ATOM      5  C   UNL     1       5.318  -1.745   1.575  0.00  0.00    +0.028 C 
ATOM      6  C   UNL     1       7.393  -2.009   2.993  0.00  0.00    +0.056 C 
ATOM      7  C   UNL     1       8.536  -2.424   2.027  0.00  0.00    +0.132 C 
ATOM      8  C   UNL     1       8.763  -1.115   1.228  0.00  0.00    +0.144 C 
ATOM      9  N   UNL     1       7.415  -0.533   1.065  0.00  0.00    -0.139 NA
ENDROOT
BRANCH   9  10
ATOM     10  S   UNL     1       6.950   0.516  -0.129  0.00  0.00    +0.195 S 
ATOM     11  O   UNL     1       5.545   0.683   0.001  0.00  0.00    -0.119 OA
ATOM     12  O   UNL     1       7.855   1.612  -0.081  0.00  0.00    -0.119 OA
BRANCH  10  13
ATOM     13  O   UNL     1       7.184  -0.184  -1.460  0.00  0.00    -0.333 OA
BRANCH  13  14
ATOM     14  C   UNL     1       6.267  -1.144  -1.748  0.00  0.00    +0.158 A 
ATOM     15  C   UNL     1       6.480  -2.453  -1.339  0.00  0.00    +0.048 A 
ATOM     16  C   UNL     1       5.545  -3.427  -1.633  0.00  0.00    +0.004 A 
ATOM     17  C   UNL     1       4.400  -3.099  -2.334  0.00  0.00    +0.000 A 
ATOM     18  C   UNL     1       4.186  -1.796  -2.743  0.00  0.00    +0.004 A 
ATOM     19  C   UNL     1       5.114  -0.816  -2.446  0.00  0.00    +0.048 A 
ENDBRANCH  13  14
ENDBRANCH  10  13
ENDBRANCH   9  10
BRANCH   7  20
ATOM     20  O   UNL     1       9.711  -2.791   2.753  0.00  0.00    -0.390 OA
ATOM     21  H   UNL     1      10.453  -3.057   2.193  0.00  0.00    +0.210 HD
ENDBRANCH   7  20
BRANCH   1  22
ATOM     22  C   UNL     1       3.643  -0.458   0.208  0.00  0.00    +0.038 C 
BRANCH  22  26
ATOM     23  C   UNL     1       1.281   3.101   0.192  0.00  0.00    +0.000 A 
ATOM     24  C   UNL     1       2.638   3.172  -0.058  0.00  0.00    +0.000 A 
ATOM     25  C   UNL     1       3.403   2.020  -0.053  0.00  0.00    +0.003 A 
ATOM     26  C   UNL     1       2.810   0.798   0.203  0.00  0.00    -0.047 A 
ATOM     27  C   UNL     1       1.452   0.727   0.454  0.00  0.00    +0.003 A 
ATOM     28  C   UNL     1       0.688   1.879   0.448  0.00  0.00    +0.000 A 
ENDBRANCH  22  26
ENDBRANCH   1  22
TORSDOF 6
