REMARK  Name = ZINC04975242
REMARK  5 active torsions:
REMARK  status: ('A' for Active; 'I' for Inactive)
REMARK    1  A    between atoms: C_1  and  C_2
REMARK    2  A    between atoms: C_9  and  C_18
REMARK    3  A    between atoms: C_21  and  O_27
REMARK    4  A    between atoms: C_22  and  N_24
REMARK    5  A    between atoms: O_27  and  C_28
REMARK                            x       y       z     vdW  Elec       q    Type
REMARK                         _______ _______ _______ _____ _____    ______ ____
ROOT
ATOM      1  C   UNL     1      -5.276   2.647  -2.189  0.00  0.00    +0.045 C 
ATOM      2  C   UNL     1      -4.192   1.744  -1.659  0.00  0.00    -0.029 A 
ATOM      3  C   UNL     1      -4.335   0.378  -1.762  0.00  0.00    +0.006 A 
ATOM      4  C   UNL     1      -3.349  -0.464  -1.280  0.00  0.00    +0.020 A 
ATOM      5  C   UNL     1      -2.221   0.074  -0.686  0.00  0.00    +0.046 A 
ATOM      6  C   UNL     1      -2.074   1.441  -0.573  0.00  0.00    -0.001 A 
ATOM      7  C   UNL     1      -3.057   2.303  -1.069  0.00  0.00    +0.036 A 
ATOM      8  N   UNL     1      -2.966   3.692  -1.036  0.00  0.00    -0.336 N 
ATOM      9  C   UNL     1      -1.803   4.263  -0.331  0.00  0.00    +0.105 C 
ATOM     10  C   UNL     1      -0.614   3.389  -0.670  0.00  0.00    +0.029 C 
ATOM     11  C   UNL     1      -0.887   2.046   0.070  0.00  0.00    +0.050 C 
ATOM     12  C   UNL     1       0.441   1.387   0.078  0.00  0.00    -0.023 C 
ATOM     13  C   UNL     1       1.380   2.327   0.052  0.00  0.00    -0.030 C 
ATOM     14  C   UNL     1       0.729   3.711  -0.006  0.00  0.00    +0.033 C 
ATOM     15 CL   UNL     1      -0.983  -0.979  -0.077  0.00  0.00    -0.083 Cl
ATOM     16  H   UNL     1      -3.825   4.103  -0.700  0.00  0.00    +0.147 HD
ENDROOT
BRANCH   9  17
ATOM     17  C   UNL     1      -2.033   4.262   1.158  0.00  0.00    -0.025 A 
ATOM     18  C   UNL     1      -1.353   5.158   1.962  0.00  0.00    +0.009 A 
ATOM     19  C   UNL     1      -1.562   5.159   3.328  0.00  0.00    +0.048 A 
ATOM     20  C   UNL     1      -2.455   4.260   3.892  0.00  0.00    +0.150 A 
ATOM     21  C   UNL     1      -3.137   3.363   3.083  0.00  0.00    +0.168 A 
ATOM     22  C   UNL     1      -2.928   3.370   1.718  0.00  0.00    +0.042 A 
BRANCH  21  23
ATOM     23  N   UNL     1      -4.091   2.403   3.682  0.00  0.00    +0.060 N 
ATOM     24  O   UNL     1      -4.689   1.615   2.972  0.00  0.00    -0.126 OA
ATOM     25  O   UNL     1      -4.278   2.400   4.886  0.00  0.00    -0.126 OA
ENDBRANCH  21  23
BRANCH  20  26
ATOM     26  O   UNL     1      -2.663   4.260   5.235  0.00  0.00    -0.493 OA
ATOM     27  C   UNL     1      -1.927   5.212   6.006  0.00  0.00    +0.277 C 
ENDBRANCH  20  26
ENDBRANCH   9  17
TORSDOF 3
