REMARK  Name = ZINC36548301
REMARK  11 active torsions:
REMARK  status: ('A' for Active; 'I' for Inactive)
REMARK    1  A    between atoms: C_1  and  C_2
REMARK    2  A    between atoms: C_2  and  C_3
REMARK    3  A    between atoms: C_2  and  C_4
REMARK    4  A    between atoms: C_2  and  N_5
REMARK    5  A    between atoms: C_6  and  C_8
REMARK    6  A    between atoms: C_8  and  C_10
REMARK    7  A    between atoms: C_8  and  N_19
REMARK    8  A    between atoms: N_19  and  C_20
REMARK    9  A    between atoms: C_27  and  C_29
REMARK   10  A    between atoms: C_29  and  N_30
REMARK   11  A    between atoms: C_31  and  C_33
REMARK                            x       y       z     vdW  Elec       q    Type
REMARK                         _______ _______ _______ _____ _____    ______ ____
ROOT
ATOM      1  N   UNL     1       3.956   0.152  -2.559  0.00  0.00    -0.253 N 
ATOM      2  C   UNL     1       3.943   1.434  -2.142  0.00  0.00    +0.238 C 
ATOM      3  O   UNL     1       2.888   2.009  -1.983  0.00  0.00    -0.274 OA
ENDROOT
BRANCH   1   4
ATOM      4  C   UNL     1       5.175  -0.511  -2.743  0.00  0.00    +0.056 A 
ATOM      5  C   UNL     1       5.784  -0.515  -3.990  0.00  0.00    +0.025 A 
ATOM      6  C   UNL     1       6.986  -1.171  -4.169  0.00  0.00    +0.002 A 
ATOM      7  C   UNL     1       7.584  -1.824  -3.106  0.00  0.00    +0.002 A 
ATOM      8  C   UNL     1       6.981  -1.823  -1.862  0.00  0.00    +0.022 A 
ATOM      9  C   UNL     1       5.781  -1.163  -1.675  0.00  0.00    +0.062 A 
ATOM     10 CL   UNL     1       5.028  -1.155  -0.111  0.00  0.00    -0.082 Cl
ENDBRANCH   1   4
BRANCH   1  11
ATOM     11  C   UNL     1       2.695  -0.546  -2.819  0.00  0.00    +0.197 C 
BRANCH  11  12
ATOM     12  C   UNL     1       1.912   0.205  -3.865  0.00  0.00    -0.014 A 
ATOM     13  C   UNL     1       0.715   0.809  -3.528  0.00  0.00    +0.010 A 
ATOM     14  C   UNL     1      -0.007   1.500  -4.484  0.00  0.00    +0.050 A 
ATOM     15  C   UNL     1       0.468   1.587  -5.782  0.00  0.00    +0.166 A 
ATOM     16  C   UNL     1       1.673   0.978  -6.122  0.00  0.00    +0.167 A 
ATOM     17  C   UNL     1       2.395   0.293  -5.157  0.00  0.00    +0.055 A 
ATOM     18  O   UNL     1       1.920   1.206  -7.445  0.00  0.00    -0.453 OA
ATOM     19  C   UNL     1       0.658   1.610  -8.007  0.00  0.00    +0.466 C 
ATOM     20  O   UNL     1      -0.041   2.196  -6.893  0.00  0.00    -0.453 OA
ENDBRANCH  11  12
BRANCH  11  22
ATOM     21  N   UNL     1       0.686  -1.225  -1.547  0.00  0.00    -0.309 N 
ATOM     22  C   UNL     1       1.891  -0.622  -1.547  0.00  0.00    +0.239 C 
ATOM     23  O   UNL     1       2.328  -0.140  -0.523  0.00  0.00    -0.273 OA
ATOM     24  H   UNL     1       0.336  -1.611  -2.365  0.00  0.00    +0.149 HD
BRANCH  21  26
ATOM     25  C   UNL     1      -0.391   0.116   0.192  0.00  0.00    +0.031 C 
ATOM     26  C   UNL     1      -0.096  -1.299  -0.310  0.00  0.00    +0.026 C 
ATOM     27  C   UNL     1       0.699  -2.061   0.752  0.00  0.00    +0.031 C 
ATOM     28  C   UNL     1      -1.413  -2.028  -0.582  0.00  0.00    +0.031 C 
ENDBRANCH  21  26
ENDBRANCH  11  22
ENDBRANCH   1  11
BRANCH   2  29
ATOM     29  C   UNL     1       5.241   2.152  -1.874  0.00  0.00    +0.201 C 
BRANCH  29  30
ATOM     30  N   UNL     1       4.959   3.522  -1.436  0.00  0.00    -0.303 N 
ATOM     31  C   UNL     1       5.975   4.356  -1.138  0.00  0.00    +0.244 C 
ATOM     32  O   UNL     1       7.124   3.972  -1.232  0.00  0.00    -0.270 OA
ATOM     33  H   UNL     1       4.042   3.828  -1.361  0.00  0.00    +0.150 HD
BRANCH  31  34
ATOM     34  C   UNL     1       5.691   5.738  -0.696  0.00  0.00    +0.037 A 
ATOM     35  C   UNL     1       4.372   6.180  -0.580  0.00  0.00    +0.013 A 
ATOM     36  C   UNL     1       4.114   7.470  -0.167  0.00  0.00    +0.001 A 
ATOM     37  C   UNL     1       5.159   8.326   0.133  0.00  0.00    +0.000 A 
ATOM     38  C   UNL     1       6.468   7.895   0.021  0.00  0.00    +0.001 A 
ATOM     39  C   UNL     1       6.740   6.605  -0.386  0.00  0.00    +0.013 A 
ENDBRANCH  31  34
ENDBRANCH  29  30
ENDBRANCH   2  29
TORSDOF 8
