REMARK  Name = ZINC09846787
REMARK  5 active torsions:
REMARK  status: ('A' for Active; 'I' for Inactive)
REMARK    1  A    between atoms: C_3  and  C_6
REMARK    2  A    between atoms: C_16  and  C_18
REMARK    3  A    between atoms: C_23  and  C_25
REMARK    4  A    between atoms: C_25  and  N_60
REMARK    5  A    between atoms: C_28  and  C_31
REMARK                            x       y       z     vdW  Elec       q    Type
REMARK                         _______ _______ _______ _____ _____    ______ ____
ROOT
ATOM      1  C   UNL     1       2.297   5.973  -0.220  0.00  0.00    +0.020 C 
ATOM      2  C   UNL     1       3.096   4.894  -0.050  0.00  0.00    -0.023 C 
ATOM      3  C   UNL     1       4.571   5.088   0.131  0.00  0.00    +0.037 C 
ATOM      4  C   UNL     1       5.370   3.801   0.151  0.00  0.00    +0.005 C 
ATOM      5  C   UNL     1       4.612   2.628   0.771  0.00  0.00    +0.012 C 
ATOM      6  C   UNL     1       3.385   2.340  -0.096  0.00  0.00    +0.067 C 
ATOM      7  C   UNL     1       2.529   3.600  -0.047  0.00  0.00    +0.068 C 
ATOM      8  N   UNL     1       1.296   3.249   0.091  0.00  0.00    -0.181 NA
ATOM      9  N   UNL     1       1.126   1.877   0.307  0.00  0.00    -0.186 N 
ATOM     10  C   UNL     1       2.464   1.291   0.551  0.00  0.00    +0.146 C 
ATOM     11  C   UNL     1      -0.043   1.207   0.289  0.00  0.00    +0.219 C 
ATOM     12  O   UNL     1      -0.060   0.010   0.486  0.00  0.00    -0.276 OA
ENDROOT
BRANCH   1  15
ATOM     13  C   UNL     1       3.005   9.681  -0.349  0.00  0.00    +0.008 A 
ATOM     14  C   UNL     1       2.239   8.540  -0.381  0.00  0.00    +0.015 A 
ATOM     15  C   UNL     1       2.873   7.317  -0.225  0.00  0.00    +0.012 A 
ATOM     16  S   UNL     1       4.577   7.812  -0.023  0.00  0.00    -0.097 S 
ATOM     17  C   UNL     1       4.348   9.576  -0.166  0.00  0.00    +0.046 A 
ENDBRANCH   1  15
BRANCH  10  18
ATOM     18  C   UNL     1       2.603  -0.044  -0.134  0.00  0.00    +0.013 A 
ATOM     19  C   UNL     1       3.225  -1.167   0.302  0.00  0.00    +0.013 A 
ATOM     20  C   UNL     1       3.223  -2.290  -0.503  0.00  0.00    +0.008 A 
ATOM     21  C   UNL     1       2.607  -2.233  -1.709  0.00  0.00    +0.045 A 
ATOM     22  S   UNL     1       1.996  -0.556  -1.733  0.00  0.00    -0.100 S 
ENDBRANCH  10  18
BRANCH  11  23
ATOM     23  C   UNL     1      -1.330   1.945   0.019  0.00  0.00    +0.021 C 
BRANCH  23  29
ATOM     24  C   UNL     1      -3.730   1.664  -0.114  0.00  0.00    -0.077 C 
ATOM     25  C   UNL     1      -4.855   0.626  -0.094  0.00  0.00    -0.006 C 
ATOM     26  C   UNL     1      -4.725  -0.284  -1.318  0.00  0.00    +0.071 C 
ATOM     27  C   UNL     1      -3.345  -0.947  -1.307  0.00  0.00    -0.006 C 
ATOM     28  C   UNL     1      -2.264   0.137  -1.292  0.00  0.00    -0.077 C 
ATOM     29  N   UNL     1      -2.429   0.963  -0.077  0.00  0.00    +0.385 N 
ATOM     30  H   UNL     1      -2.404   0.352   0.747  0.00  0.00    -0.081 HD
BRANCH  26  31
ATOM     31  C   UNL     1      -5.793  -1.345  -1.272  0.00  0.00    +0.213 C 
ATOM     32  O   UNL     1      -5.483  -2.517  -1.234  0.00  0.00    -0.276 OA
ATOM     33  N   UNL     1      -7.094  -0.992  -1.274  0.00  0.00    -0.329 N 
ATOM     34  H   UNL     1      -7.342  -0.055  -1.304  0.00  0.00    +0.145 HD
ATOM     35  H   UNL     1      -7.782  -1.675  -1.244  0.00  0.00    +0.145 HD
ENDBRANCH  26  31
ENDBRANCH  23  29
ENDBRANCH  11  23
TORSDOF 5
