REMARK  Name = ZINC03277608
REMARK  5 active torsions:
REMARK  status: ('A' for Active; 'I' for Inactive)
REMARK    1  A    between atoms: C_1  and  O_2
REMARK    2  A    between atoms: O_2  and  C_3
REMARK    3  A    between atoms: C_6  and  C_9
REMARK    4  A    between atoms: C_9  and  C_25
REMARK    5  A    between atoms: C_10  and  C_23
REMARK                            x       y       z     vdW  Elec       q    Type
REMARK                         _______ _______ _______ _____ _____    ______ ____
ROOT
ATOM      1  C   UNL     1       1.527   0.036   6.140  0.00  0.00    +0.194 C 
ATOM      2  C   UNL     1       2.988  -0.312   5.923  0.00  0.00    +0.094 C 
ATOM      3  C   UNL     1       3.918   0.389   6.634  0.00  0.00    +0.097 C 
ATOM      4  N   UNL     1       3.602   1.390   7.526  0.00  0.00    -0.216 N 
ATOM      5  C   UNL     1       4.673   2.026   8.185  0.00  0.00    +0.057 A 
ATOM      6  C   UNL     1       4.564   3.063   9.126  0.00  0.00    +0.025 A 
ATOM      7  C   UNL     1       5.686   3.607   9.705  0.00  0.00    +0.002 A 
ATOM      8  C   UNL     1       6.954   3.154   9.381  0.00  0.00    +0.001 A 
ATOM      9  C   UNL     1       7.088   2.132   8.456  0.00  0.00    +0.017 A 
ATOM     10  C   UNL     1       5.963   1.590   7.879  0.00  0.00    +0.036 A 
ATOM     11  S   UNL     1       5.694   0.304   6.683  0.00  0.00    -0.071 S 
ATOM     12  C   UNL     1       2.293   1.710   7.725  0.00  0.00    +0.312 C 
ATOM     13  O   UNL     1       2.041   2.597   8.518  0.00  0.00    -0.252 OA
ATOM     14  N   UNL     1       1.268   1.115   7.108  0.00  0.00    -0.277 N 
ATOM     15  H   UNL     1       0.357   1.393   7.297  0.00  0.00    +0.152 HD
ENDROOT
BRANCH   1  19
ATOM     16  C   UNL     1      -0.149   1.182   2.380  0.00  0.00    +0.120 A 
ATOM     17  C   UNL     1       0.388  -0.087   2.543  0.00  0.00    +0.046 A 
ATOM     18  C   UNL     1       0.934  -0.453   3.758  0.00  0.00    +0.010 A 
ATOM     19  C   UNL     1       0.936   0.440   4.814  0.00  0.00    -0.010 A 
ATOM     20  C   UNL     1       0.396   1.703   4.655  0.00  0.00    +0.010 A 
ATOM     21  C   UNL     1      -0.146   2.076   3.440  0.00  0.00    +0.046 A 
BRANCH  16  23
ATOM     22  C   UNL     1      -0.650   0.575   0.136  0.00  0.00    +0.277 C 
ATOM     23  O   UNL     1      -0.682   1.547   1.184  0.00  0.00    -0.495 OA
ENDBRANCH  16  23
ENDBRANCH   1  19
BRANCH   1  24
ATOM     24  C   UNL     1       0.801  -1.223   6.621  0.00  0.00    +0.420 C 
ATOM     25  F   UNL     1       0.974  -2.247   5.684  0.00  0.00    -0.168 F 
ATOM     26  F   UNL     1       1.329  -1.623   7.853  0.00  0.00    -0.168 F 
ATOM     27  F   UNL     1      -0.563  -0.948   6.765  0.00  0.00    -0.168 F 
ENDBRANCH   1  24
BRANCH   2  28
ATOM     28  C   UNL     1       3.380  -1.341   5.007  0.00  0.00    +0.100 C 
ATOM     29  N   UNL     1       3.690  -2.157   4.280  0.00  0.00    -0.191 NA
ENDBRANCH   2  28
TORSDOF 4
