REMARK  Name = ZINC09287506
REMARK  4 active torsions:
REMARK  status: ('A' for Active; 'I' for Inactive)
REMARK    1  A    between atoms: C_1  and  C_2
REMARK    2  A    between atoms: C_11  and  C_13
REMARK    3  A    between atoms: C_23  and  C_26
REMARK    4  A    between atoms: C_26  and  C_27
REMARK                            x       y       z     vdW  Elec       q    Type
REMARK                         _______ _______ _______ _____ _____    ______ ____
ROOT
ATOM      1  C   UNL     1       6.295   4.117   2.876  0.00  0.00    +0.066 C 
ATOM      2  C   UNL     1       5.308   3.306   2.078  0.00  0.00    +0.047 A 
ATOM      3  C   UNL     1       5.281   3.414   0.718  0.00  0.00    +0.093 A 
ATOM      4  C   UNL     1       4.347   2.651  -0.010  0.00  0.00    +0.257 A 
ATOM      5  O   UNL     1       4.300   2.716  -1.227  0.00  0.00    -0.267 OA
ATOM      6  N   UNL     1       3.509   1.848   0.669  0.00  0.00    -0.255 N 
ATOM      7  C   UNL     1       3.594   1.769   2.030  0.00  0.00    +0.207 A 
ATOM      8  N   UNL     1       4.463   2.485   2.702  0.00  0.00    -0.221 NA
ATOM      9  N   UNL     1       2.731   0.894   2.663  0.00  0.00    -0.259 N 
ATOM     10  C   UNL     1       2.447  -0.285   1.982  0.00  0.00    +0.165 C 
ATOM     11  C   UNL     1       2.490   1.047  -0.016  0.00  0.00    +0.220 C 
ATOM     12  N   UNL     1       2.282  -1.469   2.661  0.00  0.00    -0.305 N 
ATOM     13  C   UNL     1       2.407  -1.517   4.124  0.00  0.00    +0.108 C 
ATOM     14  C   UNL     1       3.424  -2.593   4.502  0.00  0.00    +0.023 C 
ATOM     15  C   UNL     1       3.017  -3.923   3.861  0.00  0.00    -0.004 C 
ATOM     16  C   UNL     1       3.009  -3.776   2.338  0.00  0.00    +0.023 C 
ATOM     17  C   UNL     1       1.983  -2.712   1.937  0.00  0.00    +0.108 C 
ATOM     18  H   UNL     1       2.345   1.092   3.531  0.00  0.00    +0.158 HD
ATOM     19  N   UNL     1       2.330  -0.297   0.645  0.00  0.00    -0.337 N 
ATOM     20  H   UNL     1       2.145  -1.156   0.114  0.00  0.00    +0.164 HD
ENDROOT
BRANCH  11  21
ATOM     21  C   UNL     1       1.175   1.783   0.000  0.00  0.00    -0.004 A 
ATOM     22  C   UNL     1      -0.013   1.076   0.008  0.00  0.00    +0.009 A 
ATOM     23  C   UNL     1      -1.219   1.750   0.017  0.00  0.00    +0.020 A 
ATOM     24  C   UNL     1      -1.237   3.134   0.030  0.00  0.00    +0.041 A 
ATOM     25  C   UNL     1      -0.048   3.841   0.023  0.00  0.00    +0.020 A 
ATOM     26  C   UNL     1       1.157   3.165   0.009  0.00  0.00    +0.009 A 
ATOM     27 CL   UNL     1      -2.752   3.982   0.048  0.00  0.00    -0.084 Cl
ENDBRANCH  11  21
BRANCH  15  28
ATOM     28  C   UNL     1       4.016  -5.009   4.264  0.00  0.00    +0.038 C 
BRANCH  28  29
ATOM     29  C   UNL     1       3.936  -5.239   5.751  0.00  0.00    -0.047 A 
ATOM     30  C   UNL     1       4.741  -4.513   6.608  0.00  0.00    +0.003 A 
ATOM     31  C   UNL     1       4.664  -4.721   7.972  0.00  0.00    +0.000 A 
ATOM     32  C   UNL     1       3.789  -5.663   8.479  0.00  0.00    +0.000 A 
ATOM     33  C   UNL     1       2.987  -6.394   7.622  0.00  0.00    +0.000 A 
ATOM     34  C   UNL     1       3.061  -6.182   6.258  0.00  0.00    +0.003 A 
ENDBRANCH  28  29
ENDBRANCH  15  28
TORSDOF 3
