REMARK  Name = ZINC23855552
REMARK  5 active torsions:
REMARK  status: ('A' for Active; 'I' for Inactive)
REMARK    1  A    between atoms: C_4  and  C_7
REMARK    2  A    between atoms: C_7  and  C_30
REMARK    3  A    between atoms: N_10  and  C_14
REMARK    4  A    between atoms: C_14  and  N_15
REMARK    5  A    between atoms: C_23  and  C_25
REMARK                            x       y       z     vdW  Elec       q    Type
REMARK                         _______ _______ _______ _____ _____    ______ ____
ROOT
ATOM      1  C   UNL     1       0.002  -0.004   0.002  0.00  0.00    +0.164 C 
ATOM      2  C   UNL     1       0.278  -0.894  -1.193  0.00  0.00    +0.257 C 
ATOM      3  O   UNL     1      -0.480  -1.157  -2.102  0.00  0.00    -0.272 OA
ATOM      4  N   UNL     1       1.542  -1.335  -1.035  0.00  0.00    -0.210 N 
ATOM      5  C   UNL     1       2.097  -0.851   0.082  0.00  0.00    +0.311 C 
ATOM      6  O   UNL     1       3.231  -1.107   0.439  0.00  0.00    -0.252 OA
ATOM      7  N   UNL     1       1.258  -0.050   0.770  0.00  0.00    -0.278 N 
ATOM      8  H   UNL     1       1.350   0.515   1.709  0.00  0.00    +0.152 HD
ENDROOT
BRANCH   1  12
ATOM      9  C   UNL     1      -0.843   3.988  -1.262  0.00  0.00    +0.000 A 
ATOM     10  C   UNL     1       0.096   3.760  -0.274  0.00  0.00    +0.000 A 
ATOM     11  C   UNL     1       0.370   2.468   0.135  0.00  0.00    +0.006 A 
ATOM     12  C   UNL     1      -0.296   1.404  -0.444  0.00  0.00    -0.011 A 
ATOM     13  C   UNL     1      -1.232   1.632  -1.435  0.00  0.00    +0.006 A 
ATOM     14  C   UNL     1      -1.509   2.924  -1.841  0.00  0.00    +0.000 A 
ENDBRANCH   1  12
BRANCH   1  15
ATOM     15  C   UNL     1      -1.139  -0.553   0.820  0.00  0.00    -0.011 A 
ATOM     16  C   UNL     1      -0.998  -0.708   2.186  0.00  0.00    +0.006 A 
ATOM     17  C   UNL     1      -2.046  -1.208   2.936  0.00  0.00    +0.000 A 
ATOM     18  C   UNL     1      -3.232  -1.560   2.319  0.00  0.00    +0.000 A 
ATOM     19  C   UNL     1      -3.371  -1.409   0.952  0.00  0.00    +0.000 A 
ATOM     20  C   UNL     1      -2.324  -0.906   0.202  0.00  0.00    +0.006 A 
ENDBRANCH   1  15
BRANCH   4  21
ATOM     21  C   UNL     1       2.225  -2.231  -1.972  0.00  0.00    +0.205 C 
BRANCH  21  22
ATOM     22  N   UNL     1       2.922  -1.436  -2.991  0.00  0.00    -0.275 NA
ATOM     23  C   UNL     1       1.989  -0.972  -4.027  0.00  0.00    +0.092 C 
ATOM     24  C   UNL     1       2.653   0.167  -4.819  0.00  0.00    +0.058 C 
ATOM     25  C   UNL     1       4.042  -0.266  -5.160  0.00  0.00    -0.004 A 
ATOM     26  C   UNL     1       4.720  -1.319  -4.625  0.00  0.00    -0.015 A 
ATOM     27  C   UNL     1       6.011  -1.535  -5.102  0.00  0.00    +0.013 A 
ATOM     28  C   UNL     1       6.528  -0.717  -6.048  0.00  0.00    +0.046 A 
ATOM     29  S   UNL     1       5.184   0.429  -6.321  0.00  0.00    -0.101 S 
ATOM     30  C   UNL     1       4.051  -2.183  -3.560  0.00  0.00    +0.126 C 
BRANCH  30  31
ATOM     31  C   UNL     1       5.044  -2.506  -2.473  0.00  0.00    +0.011 A 
ATOM     32  C   UNL     1       5.747  -3.646  -2.271  0.00  0.00    +0.013 A 
ATOM     33  C   UNL     1       6.614  -3.717  -1.196  0.00  0.00    +0.008 A 
ATOM     34  C   UNL     1       6.728  -2.648  -0.371  0.00  0.00    +0.045 A 
ATOM     35  S   UNL     1       5.592  -1.487  -1.113  0.00  0.00    -0.100 S 
ENDBRANCH  30  31
ENDBRANCH  21  22
ENDBRANCH   4  21
TORSDOF 5
