REMARK  Name = ZINC18142752
REMARK  12 active torsions:
REMARK  status: ('A' for Active; 'I' for Inactive)
REMARK    1  A    between atoms: C_1  and  C_2
REMARK    2  A    between atoms: C_3  and  C_28
REMARK    3  A    between atoms: C_4  and  N_27
REMARK    4  A    between atoms: C_9  and  C_10
REMARK    5  A    between atoms: C_14  and  O_20
REMARK    6  A    between atoms: C_15  and  O_16
REMARK    7  A    between atoms: O_16  and  C_17
REMARK    8  A    between atoms: C_17  and  C_18
REMARK    9  A    between atoms: C_17  and  C_19
REMARK   10  A    between atoms: O_20  and  C_21
REMARK   11  A    between atoms: C_22  and  C_26
REMARK   12  A    between atoms: C_23  and  C_24
REMARK                            x       y       z     vdW  Elec       q    Type
REMARK                         _______ _______ _______ _____ _____    ______ ____
ROOT
ATOM      1  C   UNL     1       1.076  -1.427  -1.621  0.00  0.00    +0.046 C 
ATOM      2  C   UNL     1       1.540  -2.810  -1.244  0.00  0.00    -0.020 A 
ATOM      3  C   UNL     1       0.787  -3.939  -1.586  0.00  0.00    +0.095 A 
ATOM      4  C   UNL     1       1.257  -5.214  -1.214  0.00  0.00    +0.135 A 
ATOM      5  N   UNL     1       2.391  -5.355  -0.552  0.00  0.00    -0.230 NA
ATOM      6  C   UNL     1       3.136  -4.307  -0.209  0.00  0.00    +0.092 A 
ATOM      7  C   UNL     1       2.724  -2.999  -0.543  0.00  0.00    +0.013 A 
ATOM      8  C   UNL     1       3.758  -2.076  -0.032  0.00  0.00    -0.011 C 
ATOM      9  C   UNL     1       3.749  -0.698  -0.147  0.00  0.00    +0.020 C 
ATOM     10  C   UNL     1       4.753  -2.853   0.602  0.00  0.00    -0.023 C 
ATOM     11  C   UNL     1       4.413  -4.187   0.514  0.00  0.00    +0.081 C 
ATOM     12  C   UNL     1       5.990  -2.310   1.269  0.00  0.00    +0.046 C 
ENDROOT
BRANCH   9  13
ATOM     13  C   UNL     1       2.484   0.033  -0.089  0.00  0.00    +0.021 A 
ATOM     14  C   UNL     1       1.474  -0.371   0.798  0.00  0.00    +0.012 A 
ATOM     15  C   UNL     1       0.286   0.321   0.848  0.00  0.00    +0.004 A 
ATOM     16  C   UNL     1       0.078   1.418   0.025  0.00  0.00    +0.049 A 
ATOM     17  C   UNL     1       1.063   1.831  -0.857  0.00  0.00    +0.162 A 
ATOM     18  C   UNL     1       2.271   1.145  -0.923  0.00  0.00    +0.169 A 
BRANCH  17  19
ATOM     19  O   UNL     1       0.848   2.908  -1.660  0.00  0.00    -0.491 OA
ATOM     20  C   UNL     1      -0.415   3.565  -1.539  0.00  0.00    +0.277 C 
ENDBRANCH  17  19
BRANCH  18  21
ATOM     21  O   UNL     1       3.238   1.547  -1.786  0.00  0.00    -0.485 OA
BRANCH  21  22
ATOM     22  C   UNL     1       3.218   0.974  -3.095  0.00  0.00    +0.168 C 
ATOM     23  C   UNL     1       2.359   1.841  -4.018  0.00  0.00    +0.051 C 
ATOM     24  C   UNL     1       4.645   0.905  -3.643  0.00  0.00    +0.051 C 
ENDBRANCH  21  22
ENDBRANCH  18  21
ENDBRANCH   9  13
BRANCH   4  25
ATOM     25  N   UNL     1       0.518  -6.337  -1.548  0.00  0.00    -0.342 N 
ATOM     26  H   UNL     1       0.835  -7.218  -1.295  0.00  0.00    +0.144 HD
ATOM     27  H   UNL     1      -0.316  -6.242  -2.034  0.00  0.00    +0.144 HD
ENDBRANCH   4  25
BRANCH  11  28
ATOM     28  C   UNL     1       5.178  -5.278   1.040  0.00  0.00    +0.102 C 
ATOM     29  N   UNL     1       5.784  -6.143   1.458  0.00  0.00    -0.191 NA
ENDBRANCH  11  28
BRANCH   3  30
ATOM     30  C   UNL     1      -0.444  -3.800  -2.303  0.00  0.00    +0.103 C 
ATOM     31  N   UNL     1      -1.421  -3.690  -2.873  0.00  0.00    -0.191 NA
ENDBRANCH   3  30
TORSDOF 7
