REMARK  Name = ZINC39928212
REMARK  16 active torsions:
REMARK  status: ('A' for Active; 'I' for Inactive)
REMARK    1  A    between atoms: C_1  and  C_2
REMARK    2  A    between atoms: C_2  and  O_3
REMARK    3  A    between atoms: O_3  and  C_4
REMARK    4  A    between atoms: C_6  and  C_16
REMARK    5  A    between atoms: C_8  and  O_13
REMARK    6  A    between atoms: C_9  and  O_10
REMARK    7  A    between atoms: O_10  and  C_11
REMARK    8  A    between atoms: C_11  and  C_12
REMARK    9  A    between atoms: O_13  and  C_14
REMARK   10  A    between atoms: C_14  and  C_15
REMARK   11  A    between atoms: N_18  and  C_19
REMARK   12  A    between atoms: N_18  and  C_34
REMARK   13  A    between atoms: C_19  and  C_20
REMARK   14  A    between atoms: C_26  and  O_32
REMARK   15  A    between atoms: O_32  and  C_33
REMARK   16  A    between atoms: C_38  and  C_40
REMARK                            x       y       z     vdW  Elec       q    Type
REMARK                         _______ _______ _______ _____ _____    ______ ____
ROOT
ATOM      1  C   UNL     1       0.874  -5.760  -0.285  0.00  0.00    +0.251 C 
ATOM      2  O   UNL     1       1.545  -5.788  -1.299  0.00  0.00    -0.270 OA
ATOM      3  N   UNL     1       0.816  -6.843   0.514  0.00  0.00    -0.266 N 
ENDROOT
BRANCH   3   4
ATOM      4  C   UNL     1       1.641  -7.944   0.262  0.00  0.00    +0.037 A 
ATOM      5  C   UNL     1       1.465  -9.123   0.975  0.00  0.00    +0.023 A 
ATOM      6  C   UNL     1       2.281 -10.208   0.723  0.00  0.00    +0.002 A 
ATOM      7  C   UNL     1       3.272 -10.122  -0.238  0.00  0.00    +0.003 A 
ATOM      8  C   UNL     1       3.450  -8.949  -0.949  0.00  0.00    -0.049 A 
ATOM      9  C   UNL     1       2.633  -7.862  -0.706  0.00  0.00    +0.027 A 
ATOM     10  C   UNL     1       4.531  -8.860  -1.995  0.00  0.00    +0.044 C 
ENDBRANCH   3   4
BRANCH   1  13
ATOM     11  C   UNL     1      -0.069  -2.141   0.077  0.00  0.00    +0.166 A 
ATOM     12  C   UNL     1       0.637  -3.282  -0.255  0.00  0.00    +0.062 A 
ATOM     13  C   UNL     1       0.122  -4.540   0.069  0.00  0.00    +0.044 A 
ATOM     14  C   UNL     1      -1.106  -4.641   0.728  0.00  0.00    +0.062 A 
ATOM     15  C   UNL     1      -1.808  -3.497   1.058  0.00  0.00    +0.166 A 
ATOM     16  C   UNL     1      -1.290  -2.245   0.739  0.00  0.00    +0.204 A 
BRANCH  11  17
ATOM     17  O   UNL     1       0.432  -0.917  -0.237  0.00  0.00    -0.488 OA
BRANCH  17  19
ATOM     18  C   UNL     1       2.088   0.568  -1.183  0.00  0.00    +0.048 C 
ATOM     19  C   UNL     1       1.689  -0.885  -0.916  0.00  0.00    +0.226 C 
ENDBRANCH  17  19
ENDBRANCH  11  17
BRANCH  16  20
ATOM     20  O   UNL     1      -1.979  -1.121   1.069  0.00  0.00    -0.485 OA
BRANCH  20  21
ATOM     21  C   UNL     1      -2.912  -0.626   0.106  0.00  0.00    +0.226 C 
ATOM     22  C   UNL     1      -3.587   0.634   0.651  0.00  0.00    +0.048 C 
ENDBRANCH  20  21
ENDBRANCH  16  20
BRANCH  15  23
ATOM     23  O   UNL     1      -3.003  -3.595   1.699  0.00  0.00    -0.488 OA
BRANCH  23  24
ATOM     24  C   UNL     1      -3.456  -4.909   2.031  0.00  0.00    +0.226 C 
ATOM     25  C   UNL     1      -4.836  -4.822   2.685  0.00  0.00    +0.048 C 
ENDBRANCH  23  24
ENDBRANCH  15  23
ENDBRANCH   1  13
BRANCH   3  26
ATOM     26  C   UNL     1      -0.111  -6.867   1.649  0.00  0.00    +0.131 C 
BRANCH  26  27
ATOM     27  C   UNL     1      -1.359  -7.668   1.271  0.00  0.00    +0.116 C 
ATOM     28  C   UNL     1      -1.838  -8.395   2.512  0.00  0.00    -0.003 C 
ATOM     29  C   UNL     1      -1.930  -9.751   2.447  0.00  0.00    -0.007 A 
ATOM     30  C   UNL     1      -2.386 -10.526   3.603  0.00  0.00    +0.013 A 
ATOM     31  C   UNL     1      -2.465 -11.874   3.501  0.00  0.00    +0.046 A 
ATOM     32  C   UNL     1      -2.121 -12.537   2.314  0.00  0.00    +0.122 A 
ATOM     33  C   UNL     1      -1.687 -11.862   1.194  0.00  0.00    +0.069 A 
ATOM     34  C   UNL     1      -1.573 -10.466   1.208  0.00  0.00    +0.044 A 
ATOM     35  N   UNL     1      -1.150  -9.822   0.117  0.00  0.00    -0.284 N 
ATOM     36  C   UNL     1      -1.021  -8.509   0.060  0.00  0.00    +0.226 C 
ATOM     37  O   UNL     1      -0.631  -7.978  -0.963  0.00  0.00    -0.275 OA
ATOM     38  H   UNL     1      -0.928 -10.343  -0.671  0.00  0.00    +0.155 HD
BRANCH  32  39
ATOM     39  O   UNL     1      -2.219 -13.887   2.266  0.00  0.00    -0.495 OA
ATOM     40  C   UNL     1      -2.674 -14.546   3.450  0.00  0.00    +0.277 C 
ENDBRANCH  32  39
ENDBRANCH  26  27
ENDBRANCH   3  26
TORSDOF 11
