REMARK  Name = ZINC45336387
REMARK  10 active torsions:
REMARK  status: ('A' for Active; 'I' for Inactive)
REMARK    1  A    between atoms: C_1  and  C_2
REMARK    2  A    between atoms: C_2  and  C_4
REMARK    3  A    between atoms: C_2  and  O_17
REMARK    4  A    between atoms: C_4  and  C_6
REMARK    5  A    between atoms: C_9  and  N_12
REMARK    6  A    between atoms: N_12  and  S_13
REMARK    7  A    between atoms: S_13  and  C_16
REMARK    8  A    between atoms: O_17  and  C_18
REMARK    9  A    between atoms: C_18  and  C_20
REMARK   10  A    between atoms: C_20  and  C_21
REMARK                            x       y       z     vdW  Elec       q    Type
REMARK                         _______ _______ _______ _____ _____    ______ ____
ROOT
ATOM      1  C   UNL     1       0.445   1.414  -0.117  0.00  0.00    +0.061 C 
ATOM      2  C   UNL     1       0.516  -0.114  -0.175  0.00  0.00    +0.244 C 
ENDROOT
BRANCH   2   3
ATOM      3  C   UNL     1       1.129  -0.538  -1.485  0.00  0.00    +0.203 C 
ATOM      4  O   UNL     1       2.272  -0.943  -1.516  0.00  0.00    -0.288 OA
BRANCH   3   5
ATOM      5  C   UNL     1       0.343  -0.463  -2.722  0.00  0.00    +0.021 A 
ATOM      6  C   UNL     1      -0.975   0.010  -2.689  0.00  0.00    +0.013 A 
ATOM      7  C   UNL     1      -1.703   0.080  -3.842  0.00  0.00    +0.025 A 
ATOM      8  C   UNL     1      -1.136  -0.319  -5.051  0.00  0.00    +0.048 A 
ATOM      9  C   UNL     1       0.175  -0.789  -5.088  0.00  0.00    +0.025 A 
ATOM     10  C   UNL     1       0.911  -0.857  -3.940  0.00  0.00    +0.013 A 
BRANCH   8  11
ATOM     11  N   UNL     1      -1.880  -0.247  -6.221  0.00  0.00    -0.221 N 
ATOM     12  H   UNL     1      -2.240  -1.055  -6.617  0.00  0.00    +0.173 HD
BRANCH  11  13
ATOM     13  S   UNL     1      -2.150   1.220  -6.942  0.00  0.00    +0.040 S 
ATOM     14  O   UNL     1      -2.935   0.921  -8.088  0.00  0.00    -0.155 OA
ATOM     15  O   UNL     1      -2.666   2.043  -5.905  0.00  0.00    -0.155 OA
ATOM     16  C   UNL     1      -0.507   1.803  -7.444  0.00  0.00    +0.218 C 
ENDBRANCH  11  13
ENDBRANCH   8  11
ENDBRANCH   3   5
ENDBRANCH   2   3
BRANCH   2  17
ATOM     17  O   UNL     1       1.319  -0.594   0.905  0.00  0.00    -0.453 OA
BRANCH  17  18
ATOM     18  C   UNL     1       0.688  -0.871   2.057  0.00  0.00    +0.312 C 
ATOM     19  O   UNL     1      -0.506  -0.710   2.145  0.00  0.00    -0.250 OA
BRANCH  18  20
ATOM     20  C   UNL     1       1.469  -1.382   3.240  0.00  0.00    +0.159 C 
BRANCH  20  21
ATOM     21  C   UNL     1       0.533  -1.612   4.398  0.00  0.00    +0.009 A 
ATOM     22  C   UNL     1       0.260  -0.759   5.394  0.00  0.00    +0.200 A 
ATOM     23  O   UNL     1      -0.622  -1.308   6.247  0.00  0.00    -0.463 OA
ATOM     24  C   UNL     1      -0.968  -2.549   5.848  0.00  0.00    +0.135 A 
ATOM     25  C   UNL     1      -0.267  -2.815   4.659  0.00  0.00    +0.024 A 
ATOM     26  C   UNL     1      -0.433  -4.035   4.010  0.00  0.00    +0.015 A 
ATOM     27  C   UNL     1      -1.290  -4.982   4.535  0.00  0.00    -0.043 A 
ATOM     28  C   UNL     1      -1.985  -4.720   5.707  0.00  0.00    -0.041 A 
ATOM     29  C   UNL     1      -1.822  -3.514   6.362  0.00  0.00    +0.050 A 
ATOM     30  C   UNL     1      -2.848  -5.913   6.063  0.00  0.00    +0.036 C 
ATOM     31  C   UNL     1      -2.944  -6.745   4.767  0.00  0.00    +0.009 C 
ATOM     32  C   UNL     1      -1.641  -6.365   4.030  0.00  0.00    +0.036 C 
ENDBRANCH  20  21
ENDBRANCH  18  20
ENDBRANCH  17  18
ENDBRANCH   2  17
TORSDOF 8
