REMARK  Name = ZINC28293018
REMARK  10 active torsions:
REMARK  status: ('A' for Active; 'I' for Inactive)
REMARK    1  A    between atoms: C_1  and  C_2
REMARK    2  A    between atoms: C_2  and  C_3
REMARK    3  A    between atoms: C_12  and  C_14
REMARK    4  A    between atoms: N_16  and  C_17
REMARK    5  A    between atoms: C_17  and  C_18
REMARK    6  A    between atoms: C_18  and  C_20
REMARK    7  A    between atoms: C_18  and  N_29
REMARK    8  A    between atoms: C_23  and  C_26
REMARK    9  A    between atoms: C_26  and  C_27
REMARK   10  A    between atoms: C_26  and  C_28
REMARK                            x       y       z     vdW  Elec       q    Type
REMARK                         _______ _______ _______ _____ _____    ______ ____
ROOT
ATOM      1  C   UNL     1      -1.611   3.281   5.753  0.00  0.00    +0.094 C 
ENDROOT
BRANCH   1   4
ATOM      2  C   UNL     1      -1.426   4.113   8.036  0.00  0.00    +0.279 C 
ATOM      3  O   UNL     1      -0.230   3.902   7.984  0.00  0.00    -0.267 OA
ATOM      4  N   UNL     1      -2.205   3.836   6.972  0.00  0.00    -0.310 N 
ATOM      5  H   UNL     1      -3.288   4.026   7.018  0.00  0.00    +0.149 HD
BRANCH   2  15
ATOM      6  C   UNL     1      -5.288   6.449  12.593  0.00  0.00    -0.047 A 
ATOM      7  C   UNL     1      -6.002   6.130  11.447  0.00  0.00    +0.007 A 
ATOM      8  C   UNL     1      -5.365   5.611  10.341  0.00  0.00    +0.047 A 
ATOM      9  C   UNL     1      -3.989   5.402  10.369  0.00  0.00    +0.139 A 
ATOM     10  C   UNL     1      -3.273   5.727  11.534  0.00  0.00    +0.064 A 
ATOM     11  C   UNL     1      -3.935   6.252  12.643  0.00  0.00    +0.019 A 
ATOM     12  C   UNL     1      -1.815   5.499  11.547  0.00  0.00    +0.193 A 
ATOM     13  O   UNL     1      -1.137   5.760  12.525  0.00  0.00    -0.287 OA
ATOM     14  C   UNL     1      -1.220   4.942  10.322  0.00  0.00    +0.103 A 
ATOM     15  C   UNL     1      -2.027   4.674   9.269  0.00  0.00    +0.193 A 
ATOM     16  O   UNL     1      -3.349   4.901   9.295  0.00  0.00    -0.450 OA
BRANCH   6  18
ATOM     17  C   UNL     1      -6.463   5.872  14.699  0.00  0.00    +0.009 C 
ATOM     18  C   UNL     1      -6.006   7.015  13.791  0.00  0.00    +0.032 C 
ENDBRANCH   6  18
ENDBRANCH   2  15
ENDBRANCH   1   4
BRANCH   1  19
ATOM     19  C   UNL     1      -2.719   2.938   4.755  0.00  0.00    -0.020 C 
BRANCH  19  20
ATOM     20  N   UNL     1      -3.464   4.157   4.413  0.00  0.00    +0.385 N 
ATOM     21  C   UNL     1      -4.084   4.041   3.087  0.00  0.00    -0.078 C 
ATOM     22  C   UNL     1      -4.968   5.263   2.827  0.00  0.00    -0.019 C 
ATOM     23  C   UNL     1      -4.113   6.530   2.902  0.00  0.00    -0.004 C 
ATOM     24  C   UNL     1      -3.441   6.603   4.276  0.00  0.00    -0.019 C 
ATOM     25  C   UNL     1      -2.601   5.342   4.494  0.00  0.00    -0.078 C 
ATOM     26  H   UNL     1      -4.271   4.280   5.151  0.00  0.00    -0.081 HD
ENDBRANCH  19  20
BRANCH  19  27
ATOM     27  C   UNL     1      -2.108   2.356   3.506  0.00  0.00    -0.059 A 
ATOM     28  C   UNL     1      -2.277   1.016   3.215  0.00  0.00    +0.002 A 
ATOM     29  C   UNL     1      -1.716   0.482   2.069  0.00  0.00    +0.004 A 
ATOM     30  C   UNL     1      -0.989   1.289   1.215  0.00  0.00    -0.045 A 
ATOM     31  C   UNL     1      -0.816   2.628   1.509  0.00  0.00    +0.004 A 
ATOM     32  C   UNL     1      -1.380   3.163   2.652  0.00  0.00    +0.002 A 
BRANCH  30  33
ATOM     33  C   UNL     1      -0.378   0.707  -0.034  0.00  0.00    +0.013 C 
ATOM     34  C   UNL     1       1.141   0.889   0.009  0.00  0.00    +0.012 C 
ATOM     35  C   UNL     1      -0.943   1.425  -1.261  0.00  0.00    +0.012 C 
ENDBRANCH  30  33
ENDBRANCH  19  27
ENDBRANCH   1  19
TORSDOF 7
