REMARK  Name = ZINC04143809
REMARK  2 active torsions:
REMARK  status: ('A' for Active; 'I' for Inactive)
REMARK    1  A    between atoms: C_1  and  C_2
REMARK    2  A    between atoms: C_8  and  N_14
REMARK                            x       y       z     vdW  Elec       q    Type
REMARK                         _______ _______ _______ _____ _____    ______ ____
ROOT
ATOM      1  C   UNL     1      -0.536   1.117   0.302  0.00  0.00    +0.061 C 
ATOM      2  C   UNL     1      -1.157   1.610  -0.979  0.00  0.00    +0.010 C 
ATOM      3  N   UNL     1      -1.091   2.963  -1.185  0.00  0.00    -0.316 N 
ATOM      4  C   UNL     1      -1.578   3.702  -2.275  0.00  0.00    +0.055 A 
ATOM      5  C   UNL     1      -1.327   5.056  -2.133  0.00  0.00    +0.025 A 
ATOM      6  C   UNL     1      -1.736   5.940  -3.116  0.00  0.00    +0.004 A 
ATOM      7  C   UNL     1      -2.395   5.476  -4.238  0.00  0.00    +0.035 A 
ATOM      8  C   UNL     1      -2.650   4.123  -4.387  0.00  0.00    +0.149 A 
ATOM      9  C   UNL     1      -2.243   3.234  -3.408  0.00  0.00    +0.086 A 
ATOM     10  N   UNL     1      -2.587   1.909  -3.729  0.00  0.00    -0.279 N 
ATOM     11  C   UNL     1      -2.350   0.791  -3.014  0.00  0.00    +0.243 C 
ATOM     12  O   UNL     1      -2.750  -0.246  -3.511  0.00  0.00    -0.270 OA
ATOM     13  C   UNL     1      -1.695   0.658  -1.767  0.00  0.00    +0.086 C 
ATOM     14  H   UNL     1      -3.053   1.784  -4.570  0.00  0.00    +0.155 HD
ATOM     15  H   UNL     1      -0.653   3.476  -0.487  0.00  0.00    +0.152 HD
ENDROOT
BRANCH   8  16
ATOM     16  N   UNL     1      -3.356   3.630  -5.590  0.00  0.00    +0.058 N 
ATOM     17  O   UNL     1      -3.013   4.003  -6.688  0.00  0.00    -0.126 OA
ATOM     18  O   UNL     1      -4.275   2.853  -5.476  0.00  0.00    -0.126 OA
ENDBRANCH   8  16
TORSDOF 1
