REMARK  Name = ZINC39592684
REMARK  8 active torsions:
REMARK  status: ('A' for Active; 'I' for Inactive)
REMARK    1  A    between atoms: C_1  and  C_2
REMARK    2  A    between atoms: C_4  and  N_9
REMARK    3  A    between atoms: C_10  and  C_12
REMARK    4  A    between atoms: C_12  and  S_13
REMARK    5  A    between atoms: S_13  and  C_14
REMARK    6  A    between atoms: C_18  and  C_22
REMARK    7  A    between atoms: N_20  and  N_21
REMARK    8  A    between atoms: C_25  and  C_28
REMARK                            x       y       z     vdW  Elec       q    Type
REMARK                         _______ _______ _______ _____ _____    ______ ____
ROOT
ATOM      1  C   UNL     1       0.541  -7.366  -5.069  0.00  0.00    +0.272 C 
ATOM      2  N   UNL     1       1.678  -6.788  -5.798  0.00  0.00    -0.159 NA
ATOM      3  N   UNL     1       1.367  -6.501  -6.957  0.00  0.00    -0.167 NA
ATOM      4  C   UNL     1      -0.039  -6.830  -7.227  0.00  0.00    +0.244 C 
ATOM      5  N   UNL     1      -0.650  -7.017  -5.885  0.00  0.00    -0.183 NA
ENDROOT
BRANCH   4   6
ATOM      6  C   UNL     1      -0.722  -5.681  -7.972  0.00  0.00    +0.195 C 
ATOM      7  C   UNL     1      -0.094  -5.481  -9.340  0.00  0.00    +0.035 C 
ATOM      8  C   UNL     1       0.398  -4.228  -9.289  0.00  0.00    +0.091 C 
ATOM      9  N   UNL     1       0.143  -3.668  -8.078  0.00  0.00    -0.154 NA
ATOM     10  N   UNL     1      -0.471  -4.400  -7.293  0.00  0.00    -0.176 NA
BRANCH   8  11
ATOM     11  C   UNL     1       1.117  -3.555 -10.399  0.00  0.00    +0.002 A 
ATOM     12  C   UNL     1       1.320  -4.221 -11.606  0.00  0.00    +0.013 A 
ATOM     13  C   UNL     1       1.988  -3.592 -12.635  0.00  0.00    +0.039 A 
ATOM     14  C   UNL     1       2.458  -2.298 -12.470  0.00  0.00    +0.123 A 
ATOM     15  C   UNL     1       2.259  -1.632 -11.272  0.00  0.00    +0.039 A 
ATOM     16  C   UNL     1       1.586  -2.252 -10.239  0.00  0.00    +0.013 A 
ATOM     17  F   UNL     1       3.112  -1.685 -13.481  0.00  0.00    -0.205 F 
ENDBRANCH   8  11
ENDBRANCH   4   6
BRANCH   5  18
ATOM     18  N   UNL     1      -1.612  -8.107  -5.895  0.00  0.00    -0.263 NA
ATOM     19  H   UNL     1      -1.926  -8.321  -4.961  0.00  0.00    +0.137 HD
ATOM     20  H   UNL     1      -2.392  -7.896  -6.500  0.00  0.00    +0.137 HD
ENDBRANCH   5  18
BRANCH   1  21
ATOM     21  S   UNL     1       0.411  -6.631  -3.416  0.00  0.00    -0.107 S 
BRANCH  21  22
ATOM     22  C   UNL     1       0.265  -4.851  -3.737  0.00  0.00    +0.168 C 
BRANCH  22  24
ATOM     23  N   UNL     1       0.028  -2.771  -2.420  0.00  0.00    -0.285 N 
ATOM     24  C   UNL     1       0.148  -4.113  -2.428  0.00  0.00    +0.227 C 
ATOM     25  O   UNL     1       0.162  -4.727  -1.382  0.00  0.00    -0.275 OA
ATOM     26  H   UNL     1      -0.060  -2.287  -3.256  0.00  0.00    +0.155 HD
BRANCH  23  30
ATOM     27  C   UNL     1       1.619  -2.350   2.213  0.00  0.00    +0.045 C 
ATOM     28  C   UNL     1       0.793  -1.849   1.057  0.00  0.00    -0.035 A 
ATOM     29  C   UNL     1       0.792  -2.538  -0.141  0.00  0.00    +0.027 A 
ATOM     30  C   UNL     1       0.030  -2.075  -1.206  0.00  0.00    +0.034 A 
ATOM     31  C   UNL     1      -0.729  -0.921  -1.063  0.00  0.00    +0.024 A 
ATOM     32  C   UNL     1      -0.724  -0.236   0.136  0.00  0.00    +0.017 A 
ATOM     33  C   UNL     1       0.032  -0.703   1.197  0.00  0.00    +0.021 A 
ATOM     34 BR   UNL     1       0.029   0.233   2.841  0.00  0.00    -0.050 Br
ENDBRANCH  23  30
ENDBRANCH  22  24
ENDBRANCH  21  22
ENDBRANCH   1  21
TORSDOF 7
