REMARK  Name = ZINC11335334
REMARK  9 active torsions:
REMARK  status: ('A' for Active; 'I' for Inactive)
REMARK    1  A    between atoms: C_1  and  C_2
REMARK    2  A    between atoms: C_2  and  C_4
REMARK    3  A    between atoms: C_2  and  N_14
REMARK    4  A    between atoms: C_15  and  C_17
REMARK    5  A    between atoms: C_17  and  N_73
REMARK    6  A    between atoms: C_18  and  C_19
REMARK    7  A    between atoms: C_18  and  N_73
REMARK    8  A    between atoms: C_31  and  C_32
REMARK    9  A    between atoms: C_31  and  N_73
REMARK                            x       y       z     vdW  Elec       q    Type
REMARK                         _______ _______ _______ _____ _____    ______ ____
ROOT
ATOM      1  N   UNL     1      -4.703   1.487  -0.751  0.00  0.00    +0.392 N 
ATOM      2  H   UNL     1      -3.700   1.589  -0.942  0.00  0.00    -0.080 HD
ENDROOT
BRANCH   1   3
ATOM      3  C   UNL     1      -4.880   0.937   0.609  0.00  0.00    +0.019 C 
BRANCH   3   5
ATOM      4  N   UNL     1      -4.202   1.556   2.907  0.00  0.00    -0.314 N 
ATOM      5  C   UNL     1      -4.104   1.787   1.583  0.00  0.00    +0.197 C 
ATOM      6  O   UNL     1      -3.392   2.679   1.174  0.00  0.00    -0.278 OA
ATOM      7  H   UNL     1      -4.772   0.842   3.233  0.00  0.00    +0.149 HD
BRANCH   4   9
ATOM      8  C   UNL     1      -4.242   3.652   4.165  0.00  0.00    +0.028 C 
ATOM      9  C   UNL     1      -3.449   2.382   3.853  0.00  0.00    +0.076 C 
BRANCH   9  10
ATOM     10  C   UNL     1      -3.217   1.596   5.144  0.00  0.00    -0.010 C 
ATOM     11  C   UNL     1      -4.565   1.217   5.760  0.00  0.00    +0.012 C 
ATOM     12  C   UNL     1      -4.333   0.430   7.052  0.00  0.00    -0.010 C 
ATOM     13  C   UNL     1      -3.546   1.294   8.040  0.00  0.00    +0.007 C 
ATOM     14  C   UNL     1      -2.197   1.673   7.424  0.00  0.00    -0.010 C 
ATOM     15  C   UNL     1      -2.430   2.459   6.133  0.00  0.00    +0.012 C 
ATOM     16  C   UNL     1      -1.404   0.403   7.112  0.00  0.00    +0.007 C 
ATOM     17  C   UNL     1      -2.191  -0.461   6.124  0.00  0.00    -0.010 C 
ATOM     18  C   UNL     1      -3.539  -0.840   6.740  0.00  0.00    +0.007 C 
ATOM     19  C   UNL     1      -2.423   0.325   4.833  0.00  0.00    +0.012 C 
ENDBRANCH   9  10
ENDBRANCH   4   9
ENDBRANCH   3   5
ENDBRANCH   1   3
BRANCH   1  20
ATOM     20  C   UNL     1      -5.347   2.814  -0.846  0.00  0.00    -0.002 C 
BRANCH  20  21
ATOM     21  C   UNL     1      -4.967   3.446  -2.160  0.00  0.00    +0.094 A 
ATOM     22  N   UNL     1      -5.448   4.685  -2.443  0.00  0.00    -0.312 N 
ATOM     23  H   UNL     1      -6.019   5.136  -1.802  0.00  0.00    +0.170 HD
ATOM     24  C   UNL     1      -5.131   5.298  -3.607  0.00  0.00    +0.259 A 
ATOM     25  O   UNL     1      -5.551   6.410  -3.871  0.00  0.00    -0.267 OA
ATOM     26  C   UNL     1      -4.266   4.566  -4.544  0.00  0.00    +0.065 A 
ATOM     27  C   UNL     1      -3.887   5.104  -5.772  0.00  0.00    +0.015 A 
ATOM     28  C   UNL     1      -3.075   4.374  -6.612  0.00  0.00    +0.001 A 
ATOM     29  C   UNL     1      -2.634   3.109  -6.244  0.00  0.00    +0.002 A 
ATOM     30  C   UNL     1      -2.997   2.559  -5.036  0.00  0.00    +0.028 A 
ATOM     31  C   UNL     1      -3.820   3.280  -4.167  0.00  0.00    +0.078 A 
ATOM     32  N   UNL     1      -4.202   2.776  -2.967  0.00  0.00    -0.236 NA
ENDBRANCH  20  21
ENDBRANCH   1  20
BRANCH   1  33
ATOM     33  C   UNL     1      -5.292   0.568  -1.748  0.00  0.00    -0.046 C 
BRANCH  33  34
ATOM     34  C   UNL     1      -4.353  -0.627  -1.927  0.00  0.00    +0.102 C 
ATOM     35  C   UNL     1      -4.812  -1.478  -3.127  0.00  0.00    +0.032 C 
ATOM     36  C   UNL     1      -5.070  -2.879  -2.523  0.00  0.00    +0.030 C 
ATOM     37  C   UNL     1      -4.237  -2.829  -1.217  0.00  0.00    +0.160 C 
ATOM     38  O   UNL     1      -4.406  -1.468  -0.762  0.00  0.00    -0.378 OA
ENDBRANCH  33  34
ENDBRANCH   1  33
TORSDOF 8
