REMARK  Name = ZINC61617000
REMARK  6 active torsions:
REMARK  status: ('A' for Active; 'I' for Inactive)
REMARK    1  A    between atoms: C_1  and  C_2
REMARK    2  A    between atoms: C_5  and  C_24
REMARK    3  A    between atoms: C_10  and  C_12
REMARK    4  A    between atoms: C_12  and  C_14
REMARK    5  A    between atoms: C_12  and  C_20
REMARK    6  A    between atoms: N_21  and  O_22
REMARK                            x       y       z     vdW  Elec       q    Type
REMARK                         _______ _______ _______ _____ _____    ______ ____
ROOT
ATOM      1  C   UNL     1       3.122  -2.087   1.359  0.00  0.00    +0.171 C 
ENDROOT
BRANCH   1   9
ATOM      2  C   UNL     1       0.128   1.853   0.862  0.00  0.00    +0.009 C 
ATOM      3  C   UNL     1       0.079   0.355   0.553  0.00  0.00    +0.004 C 
ATOM      4  C   UNL     1      -1.378  -0.110   0.511  0.00  0.00    +0.009 C 
ATOM      5  C   UNL     1      -1.430  -1.601   0.169  0.00  0.00    +0.004 C 
ATOM      6  C   UNL     1      -0.700  -2.396   1.256  0.00  0.00    +0.111 C 
ATOM      7  N   UNL     1       0.659  -1.857   1.403  0.00  0.00    -0.300 N 
ATOM      8  C   UNL     1       0.827  -0.417   1.644  0.00  0.00    +0.111 C 
ATOM      9  C   UNL     1       1.732  -2.668   1.319  0.00  0.00    +0.230 C 
ATOM     10  O   UNL     1       1.580  -3.867   1.212  0.00  0.00    -0.274 OA
ATOM     11  C   UNL     1      -2.888  -2.058   0.094  0.00  0.00    +0.009 C 
ENDBRANCH   1   9
BRANCH   1  12
ATOM     12  C   UNL     1       3.553  -1.912   2.792  0.00  0.00    -0.028 A 
ATOM     13  C   UNL     1       3.632  -3.010   3.628  0.00  0.00    +0.005 A 
ATOM     14  C   UNL     1       4.027  -2.850   4.943  0.00  0.00    +0.000 A 
ATOM     15  C   UNL     1       4.344  -1.592   5.422  0.00  0.00    +0.000 A 
ATOM     16  C   UNL     1       4.266  -0.495   4.585  0.00  0.00    +0.000 A 
ATOM     17  C   UNL     1       3.875  -0.655   3.269  0.00  0.00    +0.005 A 
ENDBRANCH   1  12
BRANCH   1  18
ATOM     18  C   UNL     1       4.077  -3.018   0.657  0.00  0.00    +0.148 C 
ATOM     19  N   UNL     1       4.733  -3.900   1.334  0.00  0.00    -0.076 NA
ATOM     20  N   UNL     1       4.249  -2.928  -0.707  0.00  0.00    -0.343 N 
ATOM     21  H   UNL     1       3.696  -2.324  -1.227  0.00  0.00    +0.144 HD
ATOM     22  H   UNL     1       4.923  -3.468  -1.147  0.00  0.00    +0.144 HD
BRANCH  19  23
ATOM     23  O   UNL     1       5.630  -4.775   0.674  0.00  0.00    -0.408 OA
ATOM     24  H   UNL     1       6.075  -5.400   1.264  0.00  0.00    +0.328 HD
ENDBRANCH  19  23
ENDBRANCH   1  18
TORSDOF 4
