REMARK  Name = ZINC39778044
REMARK  7 active torsions:
REMARK  status: ('A' for Active; 'I' for Inactive)
REMARK    1  A    between atoms: C_1  and  C_2
REMARK    2  A    between atoms: C_2  and  C_3
REMARK    3  A    between atoms: C_10  and  C_14
REMARK    4  A    between atoms: C_14  and  S_15
REMARK    5  A    between atoms: S_15  and  C_16
REMARK    6  A    between atoms: C_20  and  C_22
REMARK    7  A    between atoms: C_25  and  C_28
REMARK                            x       y       z     vdW  Elec       q    Type
REMARK                         _______ _______ _______ _____ _____    ______ ____
ROOT
ATOM      1  C   UNL     1      -1.968  -3.743   5.455  0.00  0.00    +0.133 C 
ENDROOT
BRANCH   1   8
ATOM      2  C   UNL     1      -1.433  -0.534   0.013  0.00  0.00    +0.152 C 
ATOM      3  N   UNL     1      -1.469  -2.015   0.121  0.00  0.00    -0.266 N 
ATOM      4  N   UNL     1      -1.510  -2.501   1.397  0.00  0.00    -0.206 N 
ATOM      5  C   UNL     1      -1.111  -3.755   1.773  0.00  0.00    +0.272 A 
ATOM      6  O   UNL     1      -0.627  -4.514   0.949  0.00  0.00    -0.266 OA
ATOM      7  C   UNL     1      -1.256  -4.168   3.102  0.00  0.00    +0.096 A 
ATOM      8  C   UNL     1      -1.784  -3.310   4.023  0.00  0.00    +0.060 A 
ATOM      9  N   UNL     1      -2.136  -2.085   3.636  0.00  0.00    -0.226 NA
ATOM     10  C   UNL     1      -1.989  -1.694   2.396  0.00  0.00    +0.191 A 
ATOM     11  S   UNL     1      -2.295  -0.128   1.593  0.00  0.00    -0.062 S 
ATOM     12  H   UNL     1      -2.217  -2.401  -0.436  0.00  0.00    +0.168 HD
BRANCH   2  14
ATOM     13  C   UNL     1      -0.019   1.526   0.010  0.00  0.00    +0.006 C 
ATOM     14  C   UNL     1       0.002  -0.004   0.002  0.00  0.00    +0.032 C 
ENDBRANCH   2  14
ENDBRANCH   1   8
BRANCH   1  15
ATOM     15  S   UNL     1      -0.692  -2.971   6.488  0.00  0.00    -0.080 S 
BRANCH  15  16
ATOM     16  C   UNL     1      -1.039  -3.568   8.110  0.00  0.00    +0.185 A 
ATOM     17  N   UNL     1      -0.352  -3.261   9.232  0.00  0.00    -0.253 N 
ATOM     18  H   UNL     1       0.419  -2.675   9.299  0.00  0.00    +0.191 HD
ATOM     19  N   UNL     1      -0.973  -3.955  10.283  0.00  0.00    -0.152 NA
ATOM     20  C   UNL     1      -1.973  -4.627   9.758  0.00  0.00    +0.182 A 
ATOM     21  N   UNL     1      -2.014  -4.386   8.440  0.00  0.00    -0.201 NA
BRANCH  20  22
ATOM     22  C   UNL     1      -2.909  -5.504  10.505  0.00  0.00    +0.021 A 
ATOM     23  C   UNL     1      -3.931  -6.170   9.831  0.00  0.00    +0.012 A 
ATOM     24  C   UNL     1      -4.798  -6.985  10.530  0.00  0.00    +0.004 A 
ATOM     25  C   UNL     1      -4.654  -7.141  11.897  0.00  0.00    -0.050 A 
ATOM     26  C   UNL     1      -3.641  -6.482  12.571  0.00  0.00    +0.004 A 
ATOM     27  C   UNL     1      -2.765  -5.669  11.881  0.00  0.00    +0.012 A 
ATOM     28  C   UNL     1      -5.604  -8.032  12.655  0.00  0.00    +0.044 C 
ENDBRANCH  20  22
ENDBRANCH  15  16
ENDBRANCH   1  15
TORSDOF 5
