REMARK  Name = ZINC66951701
REMARK  6 active torsions:
REMARK  status: ('A' for Active; 'I' for Inactive)
REMARK    1  A    between atoms: C_1  and  C_2
REMARK    2  A    between atoms: C_3  and  N_11
REMARK    3  A    between atoms: C_7  and  N_8
REMARK    4  A    between atoms: N_14  and  C_15
REMARK    5  A    between atoms: C_15  and  C_16
REMARK    6  A    between atoms: C_16  and  O_26
REMARK                            x       y       z     vdW  Elec       q    Type
REMARK                         _______ _______ _______ _____ _____    ______ ____
ROOT
ATOM      1  N   UNL     1       0.278  -0.248  -2.733  0.00  0.00    -0.269 N 
ATOM      2  C   UNL     1       0.027  -1.067  -3.774  0.00  0.00    +0.304 C 
ATOM      3  O   UNL     1      -0.005  -2.271  -3.607  0.00  0.00    -0.253 OA
ATOM      4  N   UNL     1      -0.189  -0.550  -5.000  0.00  0.00    -0.296 N 
ATOM      5  H   UNL     1       0.377   0.706  -2.879  0.00  0.00    +0.156 HD
ATOM      6  H   UNL     1      -0.163   0.410  -5.134  0.00  0.00    +0.150 HD
ENDROOT
BRANCH   1   9
ATOM      7  C   UNL     1      -0.628   1.334  -0.548  0.00  0.00    +0.048 C 
ATOM      8  C   UNL     1      -0.034  -0.036  -0.347  0.00  0.00    +0.001 A 
ATOM      9  C   UNL     1       0.396  -0.775  -1.442  0.00  0.00    +0.040 A 
ATOM     10  C   UNL     1       0.943  -2.037  -1.253  0.00  0.00    +0.024 A 
ATOM     11  C   UNL     1       1.058  -2.554   0.023  0.00  0.00    +0.004 A 
ATOM     12  C   UNL     1       0.628  -1.816   1.111  0.00  0.00    +0.033 A 
ATOM     13  C   UNL     1       0.088  -0.557   0.926  0.00  0.00    +0.131 A 
BRANCH  13  14
ATOM     14  N   UNL     1      -0.364   0.232   2.094  0.00  0.00    +0.057 N 
ATOM     15  O   UNL     1      -0.346   1.440   2.051  0.00  0.00    -0.126 OA
ATOM     16  O   UNL     1      -0.753  -0.331   3.090  0.00  0.00    -0.126 OA
ENDBRANCH  13  14
ENDBRANCH   1   9
BRANCH   4  17
ATOM     17  C   UNL     1      -0.462  -1.440  -6.132  0.00  0.00    +0.145 C 
BRANCH  17  18
ATOM     18  C   UNL     1      -0.543  -0.617  -7.419  0.00  0.00    +0.107 C 
ATOM     19  C   UNL     1       0.750   0.178  -7.591  0.00  0.00    +0.041 C 
ATOM     20  C   UNL     1       0.741   0.821  -8.984  0.00  0.00    +0.008 C 
ATOM     21  C   UNL     1       0.903  -0.285 -10.025  0.00  0.00    +0.035 C 
ATOM     22  C   UNL     1      -0.093  -1.388  -9.786  0.00  0.00    -0.041 A 
ATOM     23  C   UNL     1      -0.755  -1.543  -8.588  0.00  0.00    -0.011 A 
ATOM     24  C   UNL     1      -1.657  -2.587  -8.431  0.00  0.00    +0.007 A 
ATOM     25  C   UNL     1      -1.899  -3.467  -9.466  0.00  0.00    +0.000 A 
ATOM     26  C   UNL     1      -1.238  -3.309 -10.670  0.00  0.00    +0.000 A 
ATOM     27  C   UNL     1      -0.340  -2.274 -10.827  0.00  0.00    +0.004 A 
BRANCH  18  28
ATOM     28  O   UNL     1      -1.644   0.289  -7.331  0.00  0.00    -0.382 OA
ATOM     29  H   UNL     1      -2.501  -0.144  -7.212  0.00  0.00    +0.211 HD
ENDBRANCH  18  28
ENDBRANCH  17  18
ENDBRANCH   4  17
TORSDOF 5
