REMARK  Name = ZINC52537003
REMARK  4 active torsions:
REMARK  status: ('A' for Active; 'I' for Inactive)
REMARK    1  A    between atoms: C_6  and  S_11
REMARK    2  A    between atoms: S_11  and  N_14
REMARK    3  A    between atoms: N_14  and  C_15
REMARK    4  A    between atoms: C_15  and  C_16
REMARK                            x       y       z     vdW  Elec       q    Type
REMARK                         _______ _______ _______ _____ _____    ______ ____
ROOT
ATOM      1  S   UNL     1       5.231  -2.823  -0.063  0.00  0.00    +0.058 S 
ATOM      2  O   UNL     1       4.984  -4.107  -0.618  0.00  0.00    -0.153 OA
ATOM      3  O   UNL     1       6.181  -1.923  -0.619  0.00  0.00    -0.153 OA
ENDROOT
BRANCH   1   9
ATOM      4  C   UNL     1      -0.016   1.357   0.009  0.00  0.00    +0.001 A 
ATOM      5  C   UNL     1       1.169   2.091   0.002  0.00  0.00    +0.001 A 
ATOM      6  C   UNL     1       2.378   1.468  -0.013  0.00  0.00    +0.008 A 
ATOM      7  C   UNL     1       2.438   0.063  -0.021  0.00  0.00    -0.016 A 
ATOM      8  C   UNL     1       3.668  -0.615  -0.036  0.00  0.00    +0.037 A 
ATOM      9  C   UNL     1       3.687  -1.976  -0.043  0.00  0.00    +0.106 A 
ATOM     10  C   UNL     1       2.502  -2.710  -0.036  0.00  0.00    +0.029 A 
ATOM     11  C   UNL     1       1.292  -2.087  -0.021  0.00  0.00    +0.010 A 
ATOM     12  C   UNL     1       1.233  -0.683  -0.013  0.00  0.00    -0.018 A 
ATOM     13  C   UNL     1       0.002  -0.004   0.002  0.00  0.00    +0.008 A 
ENDBRANCH   1   9
BRANCH   1  14
ATOM     14  N   UNL     1       5.677  -3.066   1.513  0.00  0.00    -0.190 NA
ATOM     15  H   UNL     1       6.469  -2.632   1.866  0.00  0.00    +0.148 HD
BRANCH  14  16
ATOM     16  C   UNL     1       4.873  -3.937   2.375  0.00  0.00    +0.113 C 
BRANCH  16  17
ATOM     17  C   UNL     1       5.674  -4.291   3.630  0.00  0.00    +0.046 C 
ATOM     18  C   UNL     1       4.801  -5.109   4.585  0.00  0.00    +0.047 C 
ATOM     19  C   UNL     1       5.659  -5.707   5.671  0.00  0.00    -0.005 A 
ATOM     20  C   UNL     1       5.048  -6.159   6.829  0.00  0.00    +0.007 A 
ATOM     21  C   UNL     1       5.803  -6.716   7.843  0.00  0.00    +0.000 A 
ATOM     22  C   UNL     1       7.175  -6.824   7.704  0.00  0.00    +0.004 A 
ATOM     23  C   UNL     1       7.788  -6.374   6.553  0.00  0.00    +0.046 A 
ATOM     24  C   UNL     1       7.031  -5.811   5.531  0.00  0.00    +0.124 A 
ATOM     25  O   UNL     1       7.672  -5.370   4.417  0.00  0.00    -0.491 OA
ATOM     26  C   UNL     1       6.892  -5.140   3.244  0.00  0.00    +0.234 C 
ENDBRANCH  16  17
ENDBRANCH  14  16
ENDBRANCH   1  14
TORSDOF 4
