REMARK  Name = ZINC08534675
REMARK  7 active torsions:
REMARK  status: ('A' for Active; 'I' for Inactive)
REMARK    1  A    between atoms: C_1  and  C_2
REMARK    2  A    between atoms: C_4  and  C_27
REMARK    3  A    between atoms: C_6  and  C_8
REMARK    4  A    between atoms: C_6  and  C_9
REMARK    5  A    between atoms: N_11  and  N_12
REMARK    6  A    between atoms: N_12  and  S_13
REMARK    7  A    between atoms: S_13  and  C_16
REMARK                            x       y       z     vdW  Elec       q    Type
REMARK                         _______ _______ _______ _____ _____    ______ ____
ROOT
ATOM      1  C   UNL     1      -0.029   1.567   0.145  0.00  0.00    +0.021 C 
ATOM      2  C   UNL     1      -0.010   0.038   0.083  0.00  0.00    +0.046 C 
ATOM      3  C   UNL     1       0.700  -0.418  -1.197  0.00  0.00    +0.031 C 
ATOM      4  C   UNL     1       0.626  -1.949  -1.265  0.00  0.00    +0.046 C 
ATOM      5  C   UNL     1       1.373  -2.536  -0.063  0.00  0.00    +0.031 C 
ATOM      6  C   UNL     1       0.705  -2.064   1.230  0.00  0.00    +0.047 C 
ATOM      7  C   UNL     1       0.744  -0.518   1.295  0.00  0.00    +0.031 C 
ATOM      8  C   UNL     1       1.459  -2.637   2.431  0.00  0.00    +0.021 C 
ATOM      9  C   UNL     1      -0.819  -2.370  -1.205  0.00  0.00    +0.225 C 
ATOM     10  O   UNL     1      -1.164  -3.394  -1.756  0.00  0.00    -0.275 OA
ATOM     11  N   UNL     1      -1.732  -1.633  -0.554  0.00  0.00    -0.255 N 
ATOM     12  C   UNL     1      -1.422  -0.488   0.092  0.00  0.00    +0.225 C 
ATOM     13  O   UNL     1      -2.286   0.135   0.671  0.00  0.00    -0.275 OA
ATOM     14  C   UNL     1       1.271  -2.439  -2.563  0.00  0.00    +0.021 C 
ATOM     15  H   UNL     1      -2.652  -1.940  -0.535  0.00  0.00    +0.158 HD
ENDROOT
BRANCH   6  16
ATOM     16  C   UNL     1      -0.724  -2.542   1.260  0.00  0.00    +0.234 C 
ATOM     17  O   UNL     1      -1.040  -3.548   0.660  0.00  0.00    -0.274 OA
ATOM     18  N   UNL     1      -1.651  -1.853   1.954  0.00  0.00    -0.231 N 
ATOM     19  H   UNL     1      -1.398  -1.049   2.434  0.00  0.00    +0.171 HD
BRANCH  18  20
ATOM     20  N   UNL     1      -2.979  -2.298   1.983  0.00  0.00    -0.108 NA
ATOM     21  H   UNL     1      -3.458  -2.448   1.153  0.00  0.00    +0.172 HD
BRANCH  20  22
ATOM     22  S   UNL     1      -3.731  -2.568   3.433  0.00  0.00    +0.074 S 
ATOM     23  O   UNL     1      -5.089  -2.865   3.137  0.00  0.00    -0.152 OA
ATOM     24  O   UNL     1      -2.898  -3.458   4.163  0.00  0.00    -0.152 OA
BRANCH  22  25
ATOM     25  C   UNL     1      -3.730  -1.041   4.313  0.00  0.00    +0.107 A 
ATOM     26  C   UNL     1      -2.673  -0.725   5.146  0.00  0.00    +0.028 A 
ATOM     27  C   UNL     1      -2.672   0.473   5.837  0.00  0.00    +0.002 A 
ATOM     28  C   UNL     1      -3.727   1.355   5.693  0.00  0.00    +0.000 A 
ATOM     29  C   UNL     1      -4.783   1.039   4.858  0.00  0.00    +0.002 A 
ATOM     30  C   UNL     1      -4.782  -0.157   4.165  0.00  0.00    +0.028 A 
ENDBRANCH  22  25
ENDBRANCH  20  22
ENDBRANCH  18  20
ENDBRANCH   6  16
TORSDOF 4
