REMARK  Name = ZINC08724703
REMARK  5 active torsions:
REMARK  status: ('A' for Active; 'I' for Inactive)
REMARK    1  A    between atoms: C_3  and  C_11
REMARK    2  A    between atoms: C_11  and  O_13
REMARK    3  A    between atoms: O_13  and  C_14
REMARK    4  A    between atoms: C_14  and  C_15
REMARK    5  A    between atoms: N_20  and  C_21
REMARK                            x       y       z     vdW  Elec       q    Type
REMARK                         _______ _______ _______ _____ _____    ______ ____
ROOT
ATOM      1  C   UNL     1       5.951   3.370   0.423  0.00  0.00    +0.258 C 
ATOM      2  O   UNL     1       5.849   2.164   0.494  0.00  0.00    -0.272 OA
ATOM      3  N   UNL     1       7.167   3.948   0.480  0.00  0.00    -0.237 N 
ATOM      4  C   UNL     1       8.270   3.186   0.616  0.00  0.00    +0.306 C 
ATOM      5  O   UNL     1       8.168   1.977   0.688  0.00  0.00    -0.252 OA
ATOM      6  N   UNL     1       9.486   3.764   0.673  0.00  0.00    -0.294 N 
ATOM      7  H   UNL     1       7.248   4.913   0.422  0.00  0.00    +0.159 HD
ATOM      8  H   UNL     1       9.567   4.729   0.616  0.00  0.00    +0.151 HD
ENDROOT
BRANCH   6   9
ATOM      9  C   UNL     1      10.685   2.936   0.821  0.00  0.00    +0.037 C 
ATOM     10  C   UNL     1      10.595   2.136   2.122  0.00  0.00    +0.029 C 
ATOM     11  C   UNL     1      11.847   1.271   2.277  0.00  0.00    -0.008 C 
ATOM     12  C   UNL     1      13.085   2.168   2.315  0.00  0.00    +0.007 C 
ATOM     13  C   UNL     1      13.176   2.968   1.013  0.00  0.00    -0.008 C 
ATOM     14  C   UNL     1      11.923   3.833   0.858  0.00  0.00    +0.029 C 
ATOM     15  C   UNL     1      13.280   2.005  -0.171  0.00  0.00    +0.007 C 
ATOM     16  C   UNL     1      12.041   1.107  -0.208  0.00  0.00    -0.008 C 
ATOM     17  C   UNL     1      11.951   0.308   1.093  0.00  0.00    +0.007 C 
ATOM     18  C   UNL     1      10.789   1.972  -0.363  0.00  0.00    +0.029 C 
ENDBRANCH   6   9
BRANCH   1  19
ATOM     19  C   UNL     1       4.717   4.222   0.270  0.00  0.00    +0.328 C 
BRANCH  19  20
ATOM     20  O   UNL     1       3.542   3.370   0.235  0.00  0.00    -0.452 OA
BRANCH  20  21
ATOM     21  C   UNL     1       2.348   3.981   0.101  0.00  0.00    +0.343 C 
ATOM     22  O   UNL     1       2.290   5.192   0.017  0.00  0.00    -0.245 OA
BRANCH  21  25
ATOM     23  C   UNL     1      -0.020   1.076   0.005  0.00  0.00    +0.018 A 
ATOM     24  C   UNL     1       1.169   1.781   0.047  0.00  0.00    +0.020 A 
ATOM     25  C   UNL     1       1.112   3.180   0.058  0.00  0.00    +0.097 A 
ATOM     26  C   UNL     1      -0.146   3.807   0.026  0.00  0.00    +0.113 A 
ATOM     27  C   UNL     1      -1.220   1.763  -0.031  0.00  0.00    +0.084 A 
ATOM     28  N   UNL     1      -0.228   5.186   0.035  0.00  0.00    -0.316 N 
ATOM     29  C   UNL     1      -0.457   5.716  -1.333  0.00  0.00    +0.106 C 
ATOM     30  C   UNL     1      -1.034   7.130  -1.074  0.00  0.00    +0.020 C 
ATOM     31  C   UNL     1      -1.925   6.918   0.171  0.00  0.00    +0.020 C 
ATOM     32  C   UNL     1      -1.380   5.644   0.842  0.00  0.00    +0.106 C 
ATOM     33  N   UNL     1      -1.324   3.119  -0.016  0.00  0.00    -0.349 N 
ATOM     34  H   UNL     1      -2.233   3.596  -0.035  0.00  0.00    +0.167 HD
ENDBRANCH  21  25
ENDBRANCH  20  21
ENDBRANCH  19  20
ENDBRANCH   1  19
TORSDOF 5
