REMARK  Name = ZINC05945285
REMARK  13 active torsions:
REMARK  status: ('A' for Active; 'I' for Inactive)
REMARK    1  A    between atoms: C_1  and  C_2
REMARK    2  A    between atoms: C_2  and  C_30
REMARK    3  A    between atoms: C_4  and  N_9
REMARK    4  A    between atoms: C_6  and  C_7
REMARK    5  A    between atoms: C_6  and  C_8
REMARK    6  A    between atoms: N_9  and  C_10
REMARK    7  A    between atoms: N_9  and  C_20
REMARK    8  A    between atoms: C_10  and  C_11
REMARK    9  A    between atoms: C_14  and  N_17
REMARK   10  A    between atoms: N_17  and  C_18
REMARK   11  A    between atoms: N_17  and  C_19
REMARK   12  A    between atoms: C_20  and  N_22
REMARK   13  A    between atoms: N_22  and  C_23
REMARK                            x       y       z     vdW  Elec       q    Type
REMARK                         _______ _______ _______ _____ _____    ______ ____
ROOT
ATOM      1  N   UNL     1       1.240   3.180  -3.690  0.00  0.00    -0.305 N 
ENDROOT
BRANCH   1   5
ATOM      2  C   UNL     1       2.835   3.391   0.950  0.00  0.00    -0.010 C 
ATOM      3  C   UNL     1       1.745   2.767   0.050  0.00  0.00    -0.072 C 
ATOM      4  C   UNL     1       2.077   3.134  -1.395  0.00  0.00    +0.009 C 
ATOM      5  C   UNL     1       0.903   2.798  -2.313  0.00  0.00    +0.073 C 
ATOM      6  C   UNL     1      -0.317   3.596  -1.853  0.00  0.00    +0.009 C 
ATOM      7  C   UNL     1      -0.678   3.233  -0.415  0.00  0.00    -0.072 C 
ATOM      8  C   UNL     1      -1.356   1.858  -0.388  0.00  0.00    -0.010 C 
ATOM      9  C   UNL     1      -1.718   4.264   0.078  0.00  0.00    -0.010 C 
ATOM     10  C   UNL     1       1.828   1.246   0.225  0.00  0.00    -0.010 C 
ATOM     11  N   UNL     1       0.451   3.303   0.551  0.00  0.00    +0.386 N 
ATOM     12  H   UNL     1       0.591   4.287   0.805  0.00  0.00    -0.084 HD
ATOM     13  H   UNL     1       0.188   2.768   1.387  0.00  0.00    -0.084 HD
ENDBRANCH   1   5
BRANCH   1  14
ATOM     14  C   UNL     1       1.348   2.235  -4.644  0.00  0.00    +0.138 C 
ATOM     15  S   UNL     1       1.844   2.667  -6.225  0.00  0.00    -0.018 S 
BRANCH  14  16
ATOM     16  N   UNL     1       1.066   0.949  -4.355  0.00  0.00    -0.296 N 
ATOM     17  H   UNL     1       0.207   0.573  -4.605  0.00  0.00    +0.154 HD
BRANCH  16  18
ATOM     18  C   UNL     1       2.011   0.157  -3.694  0.00  0.00    +0.051 A 
ATOM     19  C   UNL     1       3.225   0.704  -3.302  0.00  0.00    +0.025 A 
ATOM     20  C   UNL     1       4.154  -0.080  -2.645  0.00  0.00    +0.002 A 
ATOM     21  C   UNL     1       3.880  -1.411  -2.387  0.00  0.00    +0.002 A 
ATOM     22  C   UNL     1       2.674  -1.960  -2.780  0.00  0.00    +0.022 A 
ATOM     23  C   UNL     1       1.738  -1.181  -3.433  0.00  0.00    +0.062 A 
ATOM     24 CL   UNL     1       0.224  -1.871  -3.927  0.00  0.00    -0.082 Cl
ENDBRANCH  16  18
ENDBRANCH  14  16
ENDBRANCH   1  14
BRANCH   1  25
ATOM     25  C   UNL     1       1.460   4.589  -4.026  0.00  0.00    +0.142 C 
BRANCH  25  26
ATOM     26  C   UNL     1       2.917   4.928  -3.844  0.00  0.00    -0.030 A 
ATOM     27  C   UNL     1       3.343   5.538  -2.678  0.00  0.00    +0.007 A 
ATOM     28  C   UNL     1       4.679   5.845  -2.506  0.00  0.00    +0.023 A 
ATOM     29  C   UNL     1       5.593   5.549  -3.510  0.00  0.00    +0.029 A 
ATOM     30  C   UNL     1       5.160   4.941  -4.681  0.00  0.00    +0.023 A 
ATOM     31  C   UNL     1       3.824   4.632  -4.845  0.00  0.00    +0.007 A 
BRANCH  29  32
ATOM     32  N   UNL     1       6.943   5.863  -3.341  0.00  0.00    -0.336 N 
ATOM     33  C   UNL     1       7.885   5.664  -4.446  0.00  0.00    +0.129 C 
ATOM     34  C   UNL     1       7.418   6.393  -2.060  0.00  0.00    +0.129 C 
ENDBRANCH  29  32
ENDBRANCH  25  26
ENDBRANCH   1  25
TORSDOF 7
