REMARK  Name = ZINC09235050
REMARK  6 active torsions:
REMARK  status: ('A' for Active; 'I' for Inactive)
REMARK    1  A    between atoms: C_1  and  C_2
REMARK    2  A    between atoms: C_2  and  O_3
REMARK    3  A    between atoms: O_3  and  C_4
REMARK    4  A    between atoms: C_6  and  C_12
REMARK    5  A    between atoms: C_9  and  O_10
REMARK    6  A    between atoms: N_18  and  C_19
REMARK                            x       y       z     vdW  Elec       q    Type
REMARK                         _______ _______ _______ _____ _____    ______ ____
ROOT
ATOM      1  C   UNL     1      -1.283  -5.215   0.022  0.00  0.00    +0.028 C 
ATOM      2  C   UNL     1      -0.794  -6.480  -0.023  0.00  0.00    +0.078 C 
ATOM      3  C   UNL     1       0.112  -7.167   0.917  0.00  0.00    +0.256 C 
ATOM      4  O   UNL     1       0.542  -6.609   1.910  0.00  0.00    -0.269 OA
ATOM      5  N   UNL     1       0.436  -8.417   0.633  0.00  0.00    -0.260 N 
ATOM      6  C   UNL     1      -0.061  -9.032  -0.496  0.00  0.00    +0.166 C 
ATOM      7  N   UNL     1       0.157 -10.255  -0.923  0.00  0.00    -0.224 NA
ATOM      8  S   UNL     1      -1.080  -7.764  -1.232  0.00  0.00    -0.049 S 
ATOM      9  H   UNL     1       1.030  -8.906   1.224  0.00  0.00    +0.157 HD
ENDROOT
BRANCH   1  12
ATOM     10  C   UNL     1      -1.145  -2.464   2.568  0.00  0.00    +0.163 A 
ATOM     11  C   UNL     1      -1.636  -3.356   1.635  0.00  0.00    +0.057 A 
ATOM     12  C   UNL     1      -0.768  -4.263   1.014  0.00  0.00    -0.019 A 
ATOM     13  C   UNL     1       0.593  -4.260   1.344  0.00  0.00    +0.027 A 
ATOM     14  C   UNL     1       1.074  -3.365   2.276  0.00  0.00    +0.063 A 
ATOM     15  C   UNL     1       0.212  -2.463   2.886  0.00  0.00    +0.173 A 
ATOM     16 BR   UNL     1       2.912  -3.362   2.720  0.00  0.00    -0.046 Br
BRANCH  15  17
ATOM     17  O   UNL     1       0.692  -1.580   3.801  0.00  0.00    -0.503 OA
ATOM     18  H   UNL     1       0.680  -1.909   4.710  0.00  0.00    +0.292 HD
ENDBRANCH  15  17
BRANCH  10  19
ATOM     19  O   UNL     1      -1.986  -1.582   3.172  0.00  0.00    -0.489 OA
BRANCH  19  21
ATOM     20  C   UNL     1      -4.147  -0.580   3.576  0.00  0.00    +0.048 C 
ATOM     21  C   UNL     1      -3.364  -1.639   2.798  0.00  0.00    +0.226 C 
ENDBRANCH  19  21
ENDBRANCH  10  19
ENDBRANCH   1  12
BRANCH   7  22
ATOM     22  C   UNL     1      -0.331 -10.653  -2.139  0.00  0.00    +0.085 A 
ATOM     23  C   UNL     1      -0.126  -9.860  -3.270  0.00  0.00    +0.029 A 
ATOM     24  C   UNL     1      -0.621 -10.267  -4.492  0.00  0.00    +0.002 A 
ATOM     25  C   UNL     1      -1.318 -11.457  -4.599  0.00  0.00    +0.002 A 
ATOM     26  C   UNL     1      -1.525 -12.248  -3.483  0.00  0.00    +0.022 A 
ATOM     27  C   UNL     1      -1.030 -11.857  -2.255  0.00  0.00    +0.066 A 
ATOM     28 CL   UNL     1      -1.284 -12.855  -0.857  0.00  0.00    -0.081 Cl
ENDBRANCH   7  22
TORSDOF 5
