REMARK  Name = ZINC40103897
REMARK  8 active torsions:
REMARK  status: ('A' for Active; 'I' for Inactive)
REMARK    1  A    between atoms: C_1  and  N_2
REMARK    2  A    between atoms: N_2  and  C_3
REMARK    3  A    between atoms: N_2  and  C_4
REMARK    4  A    between atoms: C_4  and  C_5
REMARK    5  A    between atoms: C_5  and  N_6
REMARK    6  A    between atoms: N_6  and  C_7
REMARK    7  A    between atoms: C_7  and  C_8
REMARK    8  A    between atoms: N_16  and  C_17
REMARK                            x       y       z     vdW  Elec       q    Type
REMARK                         _______ _______ _______ _____ _____    ______ ____
ROOT
ATOM      1  N   UNL     1      -2.691  -2.702  -0.121  0.00  0.00    -0.283 N 
ATOM      2  C   UNL     1      -3.262  -3.038   1.053  0.00  0.00    +0.307 C 
ATOM      3  O   UNL     1      -4.339  -3.603   1.065  0.00  0.00    -0.252 OA
ATOM      4  N   UNL     1      -2.640  -2.747   2.212  0.00  0.00    -0.269 N 
ATOM      5  H   UNL     1      -1.748  -2.366   2.202  0.00  0.00    +0.156 HD
ENDROOT
BRANCH   4   6
ATOM      6  C   UNL     1      -3.282  -2.995   3.433  0.00  0.00    +0.038 A 
ATOM      7  C   UNL     1      -2.539  -3.366   4.545  0.00  0.00    +0.027 A 
ATOM      8  C   UNL     1      -3.170  -3.612   5.750  0.00  0.00    +0.051 A 
ATOM      9  C   UNL     1      -4.544  -3.488   5.851  0.00  0.00    +0.167 A 
ATOM     10  C   UNL     1      -5.293  -3.114   4.736  0.00  0.00    +0.169 A 
ATOM     11  C   UNL     1      -4.661  -2.864   3.532  0.00  0.00    +0.073 A 
ATOM     12  O   UNL     1      -6.613  -3.062   5.102  0.00  0.00    -0.447 OA
ATOM     13  C   UNL     1      -6.676  -3.881   6.278  0.00  0.00    +0.254 C 
ATOM     14  O   UNL     1      -5.403  -3.669   6.905  0.00  0.00    -0.448 OA
ATOM     15  C   UNL     1      -6.881  -5.356   5.918  0.00  0.00    +0.093 C 
ATOM     16  C   UNL     1      -7.774  -5.900   7.064  0.00  0.00    +0.008 C 
ATOM     17  C   UNL     1      -8.722  -4.710   7.358  0.00  0.00    +0.008 C 
ATOM     18  C   UNL     1      -7.827  -3.461   7.192  0.00  0.00    +0.093 C 
ENDBRANCH   4   6
BRANCH   1  19
ATOM     19  C   UNL     1      -1.394  -2.021  -0.136  0.00  0.00    +0.091 C 
BRANCH  19  20
ATOM     20  C   UNL     1      -1.613  -0.507  -0.102  0.00  0.00    -0.060 C 
BRANCH  20  22
ATOM     21  C   UNL     1      -0.522   1.627  -0.205  0.00  0.00    -0.097 C 
ATOM     22  N   UNL     1      -0.312   0.176  -0.117  0.00  0.00    +0.377 N 
ATOM     23  C   UNL     1       0.421  -0.139   1.116  0.00  0.00    -0.097 C 
ATOM     24  H   UNL     1       0.222  -0.135  -0.915  0.00  0.00    -0.083 HD
ENDBRANCH  20  22
ENDBRANCH  19  20
ENDBRANCH   1  19
BRANCH   1  25
ATOM     25  C   UNL     1      -3.368  -3.018  -1.382  0.00  0.00    +0.144 C 
BRANCH  25  26
ATOM     26  C   UNL     1      -2.940  -4.384  -1.853  0.00  0.00    -0.030 A 
ATOM     27  C   UNL     1      -1.835  -4.517  -2.673  0.00  0.00    +0.005 A 
ATOM     28  C   UNL     1      -1.442  -5.770  -3.105  0.00  0.00    +0.000 A 
ATOM     29  C   UNL     1      -2.154  -6.890  -2.716  0.00  0.00    +0.000 A 
ATOM     30  C   UNL     1      -3.258  -6.756  -1.895  0.00  0.00    +0.000 A 
ATOM     31  C   UNL     1      -3.648  -5.504  -1.460  0.00  0.00    +0.005 A 
ENDBRANCH  25  26
ENDBRANCH   1  25
TORSDOF 6
