REMARK  Name = ZINC13146152
REMARK  11 active torsions:
REMARK  status: ('A' for Active; 'I' for Inactive)
REMARK    1  A    between atoms: C_1  and  C_2
REMARK    2  A    between atoms: C_2  and  C_3
REMARK    3  A    between atoms: C_2  and  C_4
REMARK    4  A    between atoms: C_4  and  C_5
REMARK    5  A    between atoms: C_5  and  N_6
REMARK    6  A    between atoms: C_19  and  C_20
REMARK    7  A    between atoms: C_20  and  N_77
REMARK    8  A    between atoms: C_23  and  C_26
REMARK    9  A    between atoms: C_26  and  C_27
REMARK   10  A    between atoms: C_26  and  C_33
REMARK   11  A    between atoms: C_26  and  O_39
REMARK                            x       y       z     vdW  Elec       q    Type
REMARK                         _______ _______ _______ _____ _____    ______ ____
ROOT
ATOM      1  C   UNL     1       3.130  -0.239   2.507  0.00  0.00    -0.078 C 
ATOM      2  C   UNL     1       2.639   0.434   1.224  0.00  0.00    -0.012 C 
ATOM      3  C   UNL     1       1.145   0.150   1.042  0.00  0.00    +0.026 C 
ATOM      4  C   UNL     1       0.384   0.655   2.271  0.00  0.00    -0.012 C 
ATOM      5  C   UNL     1       0.941  -0.024   3.525  0.00  0.00    -0.078 C 
ATOM      6  N   UNL     1       2.375   0.309   3.655  0.00  0.00    +0.384 N 
ATOM      7  H   UNL     1       2.481   1.330   3.666  0.00  0.00    -0.081 HD
ENDROOT
BRANCH   6   8
ATOM      8  C   UNL     1       2.908  -0.242   4.918  0.00  0.00    -0.001 C 
BRANCH   8  22
ATOM      9  N   UNL     1       1.917   3.139   8.340  0.00  0.00    -0.277 N 
ATOM     10  C   UNL     1       2.882   4.043   8.072  0.00  0.00    +0.263 A 
ATOM     11  O   UNL     1       2.973   5.064   8.728  0.00  0.00    -0.267 OA
ATOM     12  C   UNL     1       3.818   3.778   6.964  0.00  0.00    +0.063 A 
ATOM     13  C   UNL     1       4.827   4.681   6.636  0.00  0.00    +0.015 A 
ATOM     14  C   UNL     1       5.683   4.397   5.593  0.00  0.00    +0.001 A 
ATOM     15  C   UNL     1       5.543   3.221   4.872  0.00  0.00    +0.002 A 
ATOM     16  C   UNL     1       4.546   2.319   5.187  0.00  0.00    +0.027 A 
ATOM     17  C   UNL     1       3.676   2.588   6.233  0.00  0.00    +0.063 A 
ATOM     18  N   UNL     1       2.663   1.701   6.575  0.00  0.00    -0.266 N 
ATOM     19  C   UNL     1       1.810   1.974   7.604  0.00  0.00    +0.239 A 
ATOM     20  N   UNL     1       0.979   0.959   7.687  0.00  0.00    -0.110 NA
ATOM     21  N   UNL     1       1.258   0.089   6.782  0.00  0.00    -0.134 NA
ATOM     22  C   UNL     1       2.276   0.492   6.072  0.00  0.00    +0.123 A 
BRANCH   9  23
ATOM     23  C   UNL     1       0.981   3.386   9.440  0.00  0.00    +0.128 C 
BRANCH  23  24
ATOM     24  C   UNL     1       1.555   2.812  10.737  0.00  0.00    +0.025 C 
BRANCH  24  26
ATOM     25  C   UNL     1       1.091   2.388  13.155  0.00  0.00    +0.007 C 
ATOM     26  C   UNL     1       0.578   3.070  11.885  0.00  0.00    -0.016 C 
ATOM     27  C   UNL     1       0.461   4.577  12.126  0.00  0.00    +0.007 C 
ENDBRANCH  24  26
ENDBRANCH  23  24
ENDBRANCH   9  23
ENDBRANCH   8  22
ENDBRANCH   6   8
BRANCH   3  28
ATOM     28  C   UNL     1       0.636   0.871  -0.207  0.00  0.00    +0.119 C 
BRANCH  28  29
ATOM     29  C   UNL     1      -0.835   0.593  -0.383  0.00  0.00    -0.011 A 
ATOM     30  C   UNL     1      -1.369  -0.604   0.056  0.00  0.00    +0.007 A 
ATOM     31  C   UNL     1      -2.719  -0.857  -0.101  0.00  0.00    +0.000 A 
ATOM     32  C   UNL     1      -3.533   0.083  -0.705  0.00  0.00    +0.000 A 
ATOM     33  C   UNL     1      -2.998   1.278  -1.148  0.00  0.00    +0.000 A 
ATOM     34  C   UNL     1      -1.649   1.533  -0.988  0.00  0.00    +0.007 A 
ENDBRANCH  28  29
BRANCH  28  35
ATOM     35  C   UNL     1       1.388   0.376  -1.415  0.00  0.00    -0.011 A 
ATOM     36  C   UNL     1       1.877  -0.917  -1.442  0.00  0.00    +0.007 A 
ATOM     37  C   UNL     1       2.564  -1.373  -2.552  0.00  0.00    +0.000 A 
ATOM     38  C   UNL     1       2.769  -0.533  -3.631  0.00  0.00    +0.000 A 
ATOM     39  C   UNL     1       2.284   0.761  -3.602  0.00  0.00    +0.000 A 
ATOM     40  C   UNL     1       1.594   1.216  -2.494  0.00  0.00    +0.007 A 
ENDBRANCH  28  35
BRANCH  28  41
ATOM     41  O   UNL     1       0.841   2.278  -0.062  0.00  0.00    -0.379 OA
ATOM     42  H   UNL     1       1.767   2.530   0.055  0.00  0.00    +0.211 HD
ENDBRANCH  28  41
ENDBRANCH   3  28
TORSDOF 9
