REMARK  Name = ZINC63994298
REMARK  15 active torsions:
REMARK  status: ('A' for Active; 'I' for Inactive)
REMARK    1  A    between atoms: C_1  and  C_2
REMARK    2  A    between atoms: C_3  and  C_4
REMARK    3  A    between atoms: C_3  and  C_5
REMARK    4  A    between atoms: C_5  and  N_6
REMARK    5  A    between atoms: N_6  and  C_7
REMARK    6  A    between atoms: N_13  and  C_28
REMARK    7  A    between atoms: C_14  and  C_24
REMARK    8  A    between atoms: C_16  and  N_18
REMARK    9  A    between atoms: C_19  and  C_21
REMARK   10  A    between atoms: C_21  and  O_22
REMARK   11  A    between atoms: O_22  and  C_23
REMARK   12  A    between atoms: C_24  and  O_26
REMARK   13  A    between atoms: O_26  and  C_27
REMARK   14  A    between atoms: C_28  and  C_29
REMARK   15  A    between atoms: C_29  and  C_30
REMARK                            x       y       z     vdW  Elec       q    Type
REMARK                         _______ _______ _______ _____ _____    ______ ____
ROOT
ATOM      1  C   UNL     1       1.898  -4.165   0.823  0.00  0.00    +0.044 A 
ATOM      2  C   UNL     1       3.046  -4.485   0.099  0.00  0.00    +0.033 A 
ATOM      3  C   UNL     1       3.306  -5.815  -0.169  0.00  0.00    +0.015 A 
ATOM      4  C   UNL     1       2.436  -6.798   0.280  0.00  0.00    +0.105 A 
ATOM      5  N   UNL     1       1.350  -6.449   0.969  0.00  0.00    -0.348 N 
ATOM      6  C   UNL     1       1.070  -5.193   1.248  0.00  0.00    +0.107 A 
ATOM      7  N   UNL     1       2.869  -8.070  -0.088  0.00  0.00    -0.301 N 
ATOM      8  C   UNL     1       4.122  -7.980  -0.842  0.00  0.00    +0.208 C 
ATOM      9  C   UNL     1       4.442  -6.478  -0.914  0.00  0.00    +0.138 C 
ATOM     10  H   UNL     1       0.747  -7.143   1.278  0.00  0.00    +0.167 HD
ENDROOT
BRANCH   9  11
ATOM     11  N   UNL     1       5.720  -6.195  -0.255  0.00  0.00    -0.304 N 
ATOM     12  C   UNL     1       6.400  -5.072  -0.558  0.00  0.00    +0.239 C 
ATOM     13  O   UNL     1       5.954  -4.295  -1.376  0.00  0.00    -0.273 OA
ATOM     14  H   UNL     1       6.076  -6.816   0.399  0.00  0.00    +0.149 HD
BRANCH  12  15
ATOM     15  C   UNL     1       7.714  -4.781   0.119  0.00  0.00    +0.255 C 
BRANCH  15  16
ATOM     16  O   UNL     1       8.236  -3.542  -0.367  0.00  0.00    -0.374 OA
ATOM     17  C   UNL     1       9.488  -3.171   0.215  0.00  0.00    +0.194 C 
ENDBRANCH  15  16
ENDBRANCH  12  15
ENDBRANCH   9  11
BRANCH   1  18
ATOM     18  N   UNL     1       1.590  -2.832   1.119  0.00  0.00    -0.339 N 
ATOM     19  H   UNL     1       2.175  -2.120   0.817  0.00  0.00    +0.146 HD
BRANCH  18  20
ATOM     20  C   UNL     1       0.383  -2.512   1.886  0.00  0.00    +0.132 C 
BRANCH  20  23
ATOM     21  C   UNL     1      -0.533   1.188   1.417  0.00  0.00    +0.035 C 
ATOM     22  C   UNL     1      -0.434  -0.305   1.236  0.00  0.00    -0.030 C 
ATOM     23  C   UNL     1       0.284  -1.019   2.067  0.00  0.00    -0.060 C 
ATOM     24  C   UNL     1       1.010  -0.348   3.205  0.00  0.00    +0.040 C 
ENDBRANCH  20  23
ENDBRANCH  18  20
ENDBRANCH   1  18
BRANCH   8  25
ATOM     25  C   UNL     1       3.939  -8.544  -2.228  0.00  0.00    +0.330 C 
ATOM     26  O   UNL     1       2.845  -8.545  -2.741  0.00  0.00    -0.249 OA
BRANCH  25  27
ATOM     27  O   UNL     1       4.992  -9.046  -2.892  0.00  0.00    -0.467 OA
ATOM     28  C   UNL     1       4.747  -9.565  -4.201  0.00  0.00    +0.280 C 
ENDBRANCH  25  27
ENDBRANCH   8  25
BRANCH   7  29
ATOM     29  C   UNL     1       2.172  -9.318   0.234  0.00  0.00    +0.112 C 
BRANCH  29  30
ATOM     30  C   UNL     1       2.633  -9.820   1.604  0.00  0.00    +0.052 C 
BRANCH  30  31
ATOM     31  C   UNL     1       1.957 -11.132   1.912  0.00  0.00    -0.040 C 
ATOM     32  C   UNL     1       2.452 -12.372   1.698  0.00  0.00    -0.001 A 
ATOM     33  C   UNL     1       3.720 -12.853   1.136  0.00  0.00    +0.010 A 
ATOM     34  C   UNL     1       3.934 -14.186   1.047  0.00  0.00    +0.001 A 
ATOM     35  C   UNL     1       2.978 -15.116   1.477  0.00  0.00    +0.002 A 
ATOM     36  C   UNL     1       1.790 -14.751   2.005  0.00  0.00    +0.026 A 
ATOM     37  C   UNL     1       1.459 -13.375   2.146  0.00  0.00    +0.043 A 
ATOM     38  N   UNL     1       0.392 -12.778   2.617  0.00  0.00    -0.380 N 
ATOM     39  C   UNL     1       0.589 -11.327   2.528  0.00  0.00    +0.144 C 
ATOM     40  H   UNL     1      -0.396 -13.221   2.970  0.00  0.00    +0.160 HD
ENDBRANCH  30  31
ENDBRANCH  29  30
ENDBRANCH   7  29
TORSDOF 11
