REMARK  Name = ZINC12879178
REMARK  6 active torsions:
REMARK  status: ('A' for Active; 'I' for Inactive)
REMARK    1  A    between atoms: C_1  and  C_2
REMARK    2  A    between atoms: C_6  and  C_34
REMARK    3  A    between atoms: C_7  and  N_8
REMARK    4  A    between atoms: C_13  and  C_29
REMARK    5  A    between atoms: C_29  and  C_30
REMARK    6  A    between atoms: C_30  and  C_31
REMARK                            x       y       z     vdW  Elec       q    Type
REMARK                         _______ _______ _______ _____ _____    ______ ____
ROOT
ATOM      1  N   UNL     1       2.953  -0.115  -1.566  0.00  0.00    -0.210 N 
ATOM      2  C   UNL     1       1.750   0.450  -1.717  0.00  0.00    +0.228 C 
ATOM      3  O   UNL     1       1.549   1.569  -2.135  0.00  0.00    -0.275 OA
ATOM      4  C   UNL     1       0.679  -0.525  -1.283  0.00  0.00    +0.073 C 
ATOM      5  C   UNL     1       0.002  -0.004   0.002  0.00  0.00    -0.057 C 
ATOM      6  C   UNL     1       1.238  -1.870   0.677  0.00  0.00    +0.050 C 
ATOM      7  C   UNL     1       1.489  -1.772  -0.832  0.00  0.00    +0.088 C 
ATOM      8  C   UNL     1       2.924  -1.362  -1.081  0.00  0.00    +0.229 C 
ATOM      9  O   UNL     1       3.896  -2.056  -0.874  0.00  0.00    -0.275 OA
ATOM     10  C   UNL     1       0.174  -2.881   0.996  0.00  0.00    -0.028 A 
ATOM     11  C   UNL     1      -1.149  -3.010   0.640  0.00  0.00    +0.004 A 
ATOM     12  C   UNL     1      -1.892  -4.080   1.106  0.00  0.00    +0.000 A 
ATOM     13  C   UNL     1      -1.300  -5.021   1.930  0.00  0.00    +0.002 A 
ATOM     14  C   UNL     1       0.026  -4.897   2.288  0.00  0.00    +0.023 A 
ATOM     15  C   UNL     1       0.780  -3.822   1.824  0.00  0.00    +0.036 A 
ATOM     16  N   UNL     1       2.116  -3.482   2.045  0.00  0.00    -0.286 N 
ATOM     17  C   UNL     1       2.464  -2.349   1.407  0.00  0.00    +0.211 C 
ATOM     18  O   UNL     1       3.554  -1.817   1.417  0.00  0.00    -0.277 OA
ATOM     19  H   UNL     1       2.723  -4.003   2.594  0.00  0.00    +0.155 HD
ATOM     20  N   UNL     1       0.839  -0.533   1.082  0.00  0.00    +0.394 N 
ATOM     21  H   UNL     1       0.305  -0.572   1.958  0.00  0.00    -0.083 HD
ATOM     22  H   UNL     1       1.667   0.060   1.212  0.00  0.00    -0.083 HD
ENDROOT
BRANCH   1  29
ATOM     23  C   UNL     1       4.224   1.433   0.456  0.00  0.00    +0.046 C 
ATOM     24  C   UNL     1       4.799   1.311  -0.931  0.00  0.00    -0.028 A 
ATOM     25  C   UNL     1       5.978   1.956  -1.251  0.00  0.00    +0.005 A 
ATOM     26  C   UNL     1       6.503   1.849  -2.525  0.00  0.00    +0.001 A 
ATOM     27  C   UNL     1       5.853   1.092  -3.482  0.00  0.00    +0.005 A 
ATOM     28  C   UNL     1       4.676   0.440  -3.168  0.00  0.00    -0.028 A 
ATOM     29  C   UNL     1       4.147   0.545  -1.889  0.00  0.00    +0.050 A 
ATOM     30  C   UNL     1       3.969  -0.386  -4.211  0.00  0.00    +0.046 C 
ENDBRANCH   1  29
BRANCH   5  31
ATOM     31  C   UNL     1      -0.019   1.526   0.010  0.00  0.00    -0.006 C 
BRANCH  31  32
ATOM     32  C   UNL     1      -0.735   2.019   1.269  0.00  0.00    +0.094 C 
BRANCH  32  33
ATOM     33  C   UNL     1      -0.755   3.526   1.278  0.00  0.00    +0.210 C 
ATOM     34  O   UNL     1      -0.247   4.144   0.366  0.00  0.00    -0.276 OA
ATOM     35  N   UNL     1      -1.338   4.186   2.297  0.00  0.00    -0.329 N 
ATOM     36  H   UNL     1      -1.745   3.692   3.026  0.00  0.00    +0.145 HD
ATOM     37  H   UNL     1      -1.351   5.156   2.303  0.00  0.00    +0.145 HD
ENDBRANCH  32  33
ENDBRANCH  31  32
ENDBRANCH   5  31
TORSDOF 4
