REMARK  Name = ZINC09741101
REMARK  10 active torsions:
REMARK  status: ('A' for Active; 'I' for Inactive)
REMARK    1  A    between atoms: C_1  and  C_2
REMARK    2  A    between atoms: C_5  and  O_30
REMARK    3  A    between atoms: C_6  and  S_8
REMARK    4  A    between atoms: S_8  and  N_11
REMARK    5  A    between atoms: N_11  and  C_12
REMARK    6  A    between atoms: C_12  and  C_13
REMARK    7  A    between atoms: C_13  and  C_15
REMARK    8  A    between atoms: C_13  and  S_20
REMARK    9  A    between atoms: S_20  and  C_23
REMARK   10  A    between atoms: O_30  and  C_31
REMARK                            x       y       z     vdW  Elec       q    Type
REMARK                         _______ _______ _______ _____ _____    ______ ____
ROOT
ATOM      1  C   UNL     1      -2.533   1.387   0.021  0.00  0.00    +0.217 C 
ENDROOT
BRANCH   1   2
ATOM      2  C   UNL     1      -1.103   1.863   0.017  0.00  0.00    +0.131 A 
ATOM      3  C   UNL     1      -0.013   1.076   0.008  0.00  0.00    +0.046 A 
ATOM      4  C   UNL     1       1.111   1.934   0.002  0.00  0.00    +0.041 A 
ATOM      5  C   UNL     1       0.640   3.193   0.012  0.00  0.00    +0.195 A 
ATOM      6  O   UNL     1      -0.702   3.144   0.024  0.00  0.00    -0.466 OA
ENDBRANCH   1   2
BRANCH   1   7
ATOM      7  S   UNL     1      -3.384   2.014  -1.454  0.00  0.00    +0.008 S 
ATOM      8  O   UNL     1      -4.676   1.432  -1.559  0.00  0.00    -0.169 OA
ATOM      9  O   UNL     1      -3.213   3.421  -1.555  0.00  0.00    -0.169 OA
BRANCH   7  10
ATOM     10  C   UNL     1      -2.480   1.352  -2.814  0.00  0.00    +0.089 A 
ATOM     11  C   UNL     1      -1.420   2.060  -3.349  0.00  0.00    +0.030 A 
ATOM     12  C   UNL     1      -0.708   1.540  -4.413  0.00  0.00    +0.040 A 
ATOM     13  C   UNL     1      -1.063   0.314  -4.949  0.00  0.00    +0.124 A 
ATOM     14  C   UNL     1      -2.128  -0.392  -4.416  0.00  0.00    +0.040 A 
ATOM     15  C   UNL     1      -2.836   0.128  -3.349  0.00  0.00    +0.030 A 
ATOM     16  F   UNL     1      -0.370  -0.194  -5.992  0.00  0.00    -0.205 F 
ENDBRANCH   7  10
ENDBRANCH   1   7
BRANCH   1  17
ATOM     17  C   UNL     1      -3.240   1.904   1.276  0.00  0.00    +0.140 C 
BRANCH  17  18
ATOM     18  N   UNL     1      -4.630   1.441   1.280  0.00  0.00    -0.188 NA
ATOM     19  H   UNL     1      -5.025   1.086   0.468  0.00  0.00    +0.148 HD
BRANCH  18  20
ATOM     20  S   UNL     1      -5.526   1.525   2.669  0.00  0.00    +0.062 S 
ATOM     21  O   UNL     1      -6.820   1.034   2.348  0.00  0.00    -0.153 OA
ATOM     22  O   UNL     1      -4.731   0.957   3.701  0.00  0.00    -0.153 OA
BRANCH  20  28
ATOM     23  C   UNL     1      -8.494   5.777   3.320  0.00  0.00    +0.044 C 
ATOM     24  C   UNL     1      -7.124   5.149   3.348  0.00  0.00    -0.048 A 
ATOM     25  C   UNL     1      -6.021   5.912   3.683  0.00  0.00    +0.007 A 
ATOM     26  C   UNL     1      -4.765   5.339   3.709  0.00  0.00    +0.048 A 
ATOM     27  C   UNL     1      -4.611   3.994   3.404  0.00  0.00    +0.146 A 
ATOM     28  C   UNL     1      -5.718   3.232   3.063  0.00  0.00    +0.147 A 
ATOM     29  C   UNL     1      -6.973   3.810   3.038  0.00  0.00    +0.035 A 
BRANCH  27  30
ATOM     30  O   UNL     1      -3.377   3.426   3.435  0.00  0.00    -0.493 OA
ATOM     31  C   UNL     1      -2.283   4.272   3.795  0.00  0.00    +0.277 C 
ENDBRANCH  27  30
ENDBRANCH  20  28
ENDBRANCH  18  20
ENDBRANCH  17  18
ENDBRANCH   1  17
TORSDOF 8
