REMARK  Name = ZINC08826460
REMARK  10 active torsions:
REMARK  status: ('A' for Active; 'I' for Inactive)
REMARK    1  A    between atoms: C_3  and  S_29
REMARK    2  A    between atoms: C_6  and  C_7
REMARK    3  A    between atoms: C_7  and  C_8
REMARK    4  A    between atoms: C_8  and  N_9
REMARK    5  A    between atoms: C_10  and  C_12
REMARK    6  A    between atoms: C_12  and  S_13
REMARK    7  A    between atoms: S_13  and  C_14
REMARK    8  A    between atoms: C_17  and  S_20
REMARK    9  A    between atoms: S_20  and  N_23
REMARK   10  A    between atoms: S_29  and  N_32
REMARK                            x       y       z     vdW  Elec       q    Type
REMARK                         _______ _______ _______ _____ _____    ______ ____
ROOT
ATOM      1  N   UNL     1       3.347   0.867  -9.207  0.00  0.00    -0.314 N 
ATOM      2  C   UNL     1       3.434  -0.134  -8.310  0.00  0.00    +0.223 C 
ATOM      3  O   UNL     1       4.195  -1.059  -8.505  0.00  0.00    -0.275 OA
ATOM      4  H   UNL     1       2.739   1.607  -9.051  0.00  0.00    +0.149 HD
ENDROOT
BRANCH   1   5
ATOM      5  C   UNL     1       4.171   0.840 -10.418  0.00  0.00    +0.109 C 
BRANCH   5   6
ATOM      6  C   UNL     1       3.882   2.084 -11.260  0.00  0.00    +0.054 C 
BRANCH   6  12
ATOM      7  C   UNL     1       5.983   2.639 -12.502  0.00  0.00    +0.005 A 
ATOM      8  C   UNL     1       6.762   2.609 -13.644  0.00  0.00    +0.029 A 
ATOM      9  C   UNL     1       6.285   2.004 -14.791  0.00  0.00    +0.105 A 
ATOM     10  C   UNL     1       5.029   1.425 -14.796  0.00  0.00    +0.029 A 
ATOM     11  C   UNL     1       4.252   1.451 -13.653  0.00  0.00    +0.005 A 
ATOM     12  C   UNL     1       4.730   2.056 -12.506  0.00  0.00    -0.046 A 
BRANCH   9  13
ATOM     13  S   UNL     1       7.276   1.970 -16.247  0.00  0.00    +0.056 S 
ATOM     14  O   UNL     1       8.626   2.099 -15.822  0.00  0.00    -0.153 OA
ATOM     15  O   UNL     1       6.824   0.867 -17.021  0.00  0.00    -0.153 OA
BRANCH  13  16
ATOM     16  N   UNL     1       6.920   3.334 -17.114  0.00  0.00    -0.204 NA
ATOM     17  H   UNL     1       6.265   3.966 -16.778  0.00  0.00    +0.144 HD
ATOM     18  H   UNL     1       7.367   3.503 -17.959  0.00  0.00    +0.144 HD
ENDBRANCH  13  16
ENDBRANCH   9  13
ENDBRANCH   6  12
ENDBRANCH   5   6
ENDBRANCH   1   5
BRANCH   2  19
ATOM     19  C   UNL     1       2.586  -0.106  -7.064  0.00  0.00    +0.171 C 
BRANCH  19  20
ATOM     20  S   UNL     1       2.929  -1.581  -6.066  0.00  0.00    -0.097 S 
BRANCH  20  21
ATOM     21  C   UNL     1       1.875  -1.402  -4.665  0.00  0.00    +0.097 A 
ATOM     22  C   UNL     1       1.879  -2.376  -3.670  0.00  0.00    +0.037 A 
ATOM     23  C   UNL     1       1.047  -2.223  -2.576  0.00  0.00    +0.032 A 
ATOM     24  C   UNL     1       0.236  -1.096  -2.513  0.00  0.00    +0.124 A 
ATOM     25  C   UNL     1       0.280  -0.173  -3.538  0.00  0.00    +0.140 A 
ATOM     26  N   UNL     1       1.087  -0.342  -4.567  0.00  0.00    -0.247 NA
BRANCH  24  27
ATOM     27  S   UNL     1      -0.843  -0.853  -1.141  0.00  0.00    +0.062 S 
ATOM     28  O   UNL     1      -1.095  -2.138  -0.589  0.00  0.00    -0.153 OA
ATOM     29  O   UNL     1      -1.887   0.000  -1.592  0.00  0.00    -0.153 OA
BRANCH  27  30
ATOM     30  N   UNL     1       0.002  -0.004   0.002  0.00  0.00    -0.177 NA
ATOM     31  C   UNL     1      -0.018   1.465   0.010  0.00  0.00    +0.109 C 
ATOM     32  C   UNL     1       1.426   1.978  -0.001  0.00  0.00    +0.017 C 
ATOM     33  C   UNL     1       2.194   1.353   1.166  0.00  0.00    +0.003 C 
ATOM     34  C   UNL     1       2.220  -0.169   1.005  0.00  0.00    +0.017 C 
ATOM     35  C   UNL     1       0.786  -0.706   1.028  0.00  0.00    +0.109 C 
ENDBRANCH  27  30
ENDBRANCH  24  27
ENDBRANCH  20  21
ENDBRANCH  19  20
ENDBRANCH   2  19
TORSDOF 10
