REMARK  Name = ZINC36783714
REMARK  10 active torsions:
REMARK  status: ('A' for Active; 'I' for Inactive)
REMARK    1  A    between atoms: C_1  and  C_2
REMARK    2  A    between atoms: C_2  and  N_3
REMARK    3  A    between atoms: C_12  and  S_13
REMARK    4  A    between atoms: S_13  and  C_14
REMARK    5  A    between atoms: C_14  and  C_15
REMARK    6  A    between atoms: N_17  and  C_18
REMARK    7  A    between atoms: C_19  and  C_26
REMARK    8  A    between atoms: C_21  and  C_25
REMARK    9  A    between atoms: C_23  and  C_24
REMARK   10  A    between atoms: C_28  and  C_32
REMARK                            x       y       z     vdW  Elec       q    Type
REMARK                         _______ _______ _______ _____ _____    ______ ____
ROOT
ATOM      1  N   UNL     1      -2.171  -2.008  -0.184  0.00  0.00    -0.288 N 
ATOM      2  C   UNL     1      -2.814  -1.890   0.992  0.00  0.00    +0.263 A 
ATOM      3  O   UNL     1      -2.341  -2.373   2.007  0.00  0.00    -0.267 OA
ATOM      4  C   UNL     1      -4.062  -1.191   1.035  0.00  0.00    +0.076 A 
ATOM      5  C   UNL     1      -4.926  -0.947   2.192  0.00  0.00    -0.023 A 
ATOM      6  C   UNL     1      -6.062  -0.255   1.972  0.00  0.00    -0.004 A 
ATOM      7  S   UNL     1      -6.052   0.108   0.237  0.00  0.00    -0.073 S 
ATOM      8  C   UNL     1      -4.517  -0.674  -0.190  0.00  0.00    +0.117 A 
ATOM      9  N   UNL     1      -3.832  -0.825  -1.317  0.00  0.00    -0.216 NA
ATOM     10  C   UNL     1      -2.683  -1.469  -1.328  0.00  0.00    +0.173 A 
ATOM     11  C   UNL     1      -7.106   0.121   2.979  0.00  0.00    +0.046 C 
ATOM     12  C   UNL     1      -6.880  -0.717   4.246  0.00  0.00    -0.009 C 
ATOM     13  C   UNL     1      -5.395  -0.659   4.615  0.00  0.00    +0.008 C 
ATOM     14  C   UNL     1      -4.574  -1.444   3.591  0.00  0.00    +0.037 C 
ATOM     15  C   UNL     1      -7.720  -0.150   5.393  0.00  0.00    +0.008 C 
ENDROOT
BRANCH   1  17
ATOM     16  C   UNL     1       0.252  -1.739   0.014  0.00  0.00    +0.027 C 
ATOM     17  C   UNL     1      -0.893  -2.723  -0.235  0.00  0.00    +0.124 C 
ENDBRANCH   1  17
BRANCH  10  18
ATOM     18  S   UNL     1      -1.799  -1.644  -2.842  0.00  0.00    -0.078 S 
BRANCH  18  19
ATOM     19  C   UNL     1      -2.838  -0.790  -4.059  0.00  0.00    +0.173 C 
BRANCH  19  20
ATOM     20  C   UNL     1      -2.188  -0.865  -5.417  0.00  0.00    +0.228 C 
ATOM     21  O   UNL     1      -1.128  -1.439  -5.550  0.00  0.00    -0.275 OA
ATOM     22  N   UNL     1      -2.785  -0.295  -6.482  0.00  0.00    -0.284 N 
ATOM     23  H   UNL     1      -3.667   0.099  -6.391  0.00  0.00    +0.155 HD
BRANCH  22  24
ATOM     24  C   UNL     1      -2.134  -0.273  -7.720  0.00  0.00    +0.039 A 
ATOM     25  C   UNL     1      -2.766  -0.779  -8.848  0.00  0.00    -0.029 A 
ATOM     26  C   UNL     1      -2.120  -0.755 -10.069  0.00  0.00    +0.008 A 
ATOM     27  C   UNL     1      -0.845  -0.229 -10.168  0.00  0.00    -0.050 A 
ATOM     28  C   UNL     1      -0.213   0.275  -9.046  0.00  0.00    +0.008 A 
ATOM     29  C   UNL     1      -0.856   0.260  -7.824  0.00  0.00    -0.029 A 
ATOM     30  C   UNL     1      -0.169   0.817  -6.604  0.00  0.00    +0.045 C 
ATOM     31  C   UNL     1      -0.143  -0.205 -11.502  0.00  0.00    +0.044 C 
ATOM     32  C   UNL     1      -4.155  -1.353  -8.741  0.00  0.00    +0.045 C 
ENDBRANCH  22  24
ENDBRANCH  19  20
ENDBRANCH  18  19
ENDBRANCH  10  18
TORSDOF 5
