REMARK  Name = ZINC04572762
REMARK  8 active torsions:
REMARK  status: ('A' for Active; 'I' for Inactive)
REMARK    1  A    between atoms: C_1  and  C_2
REMARK    2  A    between atoms: C_8  and  C_9
REMARK    3  A    between atoms: C_8  and  N_62
REMARK    4  A    between atoms: C_9  and  C_10
REMARK    5  A    between atoms: C_10  and  N_11
REMARK    6  A    between atoms: C_17  and  C_26
REMARK    7  A    between atoms: N_22  and  C_23
REMARK    8  A    between atoms: C_23  and  C_24
REMARK                            x       y       z     vdW  Elec       q    Type
REMARK                         _______ _______ _______ _____ _____    ______ ____
ROOT
ATOM      1  N   UNL     1      -0.970   1.504  -1.075  0.00  0.00    -0.292 N 
ATOM      2  C   UNL     1      -0.239   0.987   0.091  0.00  0.00    +0.159 C 
ATOM      3  C   UNL     1      -1.031   1.458   1.290  0.00  0.00    +0.043 C 
ATOM      4  C   UNL     1      -2.079   2.155   0.800  0.00  0.00    +0.058 C 
ATOM      5  C   UNL     1      -2.037   2.179  -0.609  0.00  0.00    +0.247 C 
ATOM      6  O   UNL     1      -2.858   2.739  -1.313  0.00  0.00    -0.270 OA
ATOM      7  C   UNL     1      -3.055   2.752   1.794  0.00  0.00    +0.142 C 
ATOM      8  N   UNL     1      -2.778   2.520   3.221  0.00  0.00    -0.288 N 
ATOM      9  C   UNL     1      -1.689   1.800   3.555  0.00  0.00    +0.307 C 
ATOM     10  O   UNL     1      -1.452   1.602   4.731  0.00  0.00    -0.252 OA
ATOM     11  N   UNL     1      -0.859   1.295   2.633  0.00  0.00    -0.253 N 
ATOM     12  H   UNL     1      -3.366   2.876   3.905  0.00  0.00    +0.151 HD
ENDROOT
BRANCH   7  13
ATOM     13  C   UNL     1      -3.098   4.241   1.566  0.00  0.00    -0.023 A 
ATOM     14  C   UNL     1      -2.105   5.049   2.087  0.00  0.00    +0.006 A 
ATOM     15  C   UNL     1      -2.142   6.415   1.875  0.00  0.00    +0.000 A 
ATOM     16  C   UNL     1      -3.177   6.973   1.148  0.00  0.00    +0.000 A 
ATOM     17  C   UNL     1      -4.173   6.166   0.631  0.00  0.00    +0.000 A 
ATOM     18  C   UNL     1      -4.134   4.800   0.841  0.00  0.00    +0.006 A 
ENDBRANCH   7  13
BRANCH   1  19
ATOM     19  C   UNL     1      -0.605   1.319  -2.482  0.00  0.00    +0.106 C 
BRANCH  19  20
ATOM     20  C   UNL     1      -1.263   0.045  -3.016  0.00  0.00    +0.000 C 
BRANCH  20  21
ATOM     21  C   UNL     1      -0.881  -0.148  -4.485  0.00  0.00    -0.077 C 
BRANCH  21  28
ATOM     22  C   UNL     1      -2.073  -0.132  -7.034  0.00  0.00    -0.013 C 
ATOM     23  C   UNL     1      -1.462  -1.414  -6.465  0.00  0.00    -0.072 C 
ATOM     24  C   UNL     1      -2.253  -2.623  -6.969  0.00  0.00    -0.016 C 
ATOM     25  C   UNL     1      -1.651  -3.902  -6.381  0.00  0.00    -0.003 C 
ATOM     26  C   UNL     1      -1.672  -3.811  -4.853  0.00  0.00    -0.019 C 
ATOM     27  C   UNL     1      -0.897  -2.568  -4.410  0.00  0.00    -0.078 C 
ATOM     28  N   UNL     1      -1.542  -1.370  -4.989  0.00  0.00    +0.381 N 
ATOM     29  H   UNL     1      -2.529  -1.355  -4.710  0.00  0.00    -0.081 HD
ENDBRANCH  21  28
ENDBRANCH  20  21
ENDBRANCH  19  20
ENDBRANCH   1  19
BRANCH  11  30
ATOM     30  C   UNL     1       0.300   0.525   3.092  0.00  0.00    +0.141 C 
BRANCH  30  31
ATOM     31  C   UNL     1      -0.076  -0.930   3.205  0.00  0.00    -0.015 C 
ATOM     32  C   UNL     1       0.623  -1.838   2.571  0.00  0.00    +0.005 C 
ENDBRANCH  30  31
ENDBRANCH  11  30
TORSDOF 7
