REMARK  Name = ZINC21882663
REMARK  11 active torsions:
REMARK  status: ('A' for Active; 'I' for Inactive)
REMARK    1  A    between atoms: C_1  and  C_2
REMARK    2  A    between atoms: C_5  and  N_30
REMARK    3  A    between atoms: C_6  and  C_8
REMARK    4  A    between atoms: C_12  and  S_15
REMARK    5  A    between atoms: S_15  and  C_16
REMARK    6  A    between atoms: C_16  and  C_18
REMARK    7  A    between atoms: C_16  and  C_19
REMARK    8  A    between atoms: N_21  and  C_22
REMARK    9  A    between atoms: C_26  and  C_29
REMARK   10  A    between atoms: C_27  and  C_28
REMARK   11  A    between atoms: C_31  and  C_33
REMARK                            x       y       z     vdW  Elec       q    Type
REMARK                         _______ _______ _______ _____ _____    ______ ____
ROOT
ATOM      1  C   UNL     1      -2.789   0.277  -0.452  0.00  0.00    +0.161 A 
ATOM      2  C   UNL     1      -2.938  -1.180  -0.365  0.00  0.00    +0.300 A 
ATOM      3  O   UNL     1      -1.966  -1.916  -0.363  0.00  0.00    -0.263 OA
ATOM      4  N   UNL     1      -4.195  -1.677  -0.282  0.00  0.00    -0.180 NA
ATOM      5  C   UNL     1      -5.243  -0.804  -0.294  0.00  0.00    +0.213 A 
ATOM      6  N   UNL     1      -5.048   0.499  -0.378  0.00  0.00    -0.122 NA
ATOM      7  N   UNL     1      -3.879   1.025  -0.454  0.00  0.00    -0.141 NA
ENDROOT
BRANCH   1  13
ATOM      8  C   UNL     1       0.599   2.888  -3.020  0.00  0.00    +0.044 C 
ATOM      9  C   UNL     1       0.187   2.152  -1.771  0.00  0.00    -0.050 A 
ATOM     10  C   UNL     1       1.064   2.061  -0.704  0.00  0.00    +0.005 A 
ATOM     11  C   UNL     1       0.697   1.388   0.446  0.00  0.00    +0.024 A 
ATOM     12  C   UNL     1      -0.556   0.800   0.536  0.00  0.00    +0.043 A 
ATOM     13  C   UNL     1      -1.448   0.895  -0.540  0.00  0.00    +0.029 A 
ATOM     14  C   UNL     1      -1.063   1.572  -1.697  0.00  0.00    +0.015 A 
BRANCH  12  15
ATOM     15  N   UNL     1      -0.929   0.119   1.699  0.00  0.00    -0.285 N 
ATOM     16  C   UNL     1      -0.007  -0.564   2.405  0.00  0.00    +0.214 C 
ATOM     17  O   UNL     1       1.161  -0.519   2.081  0.00  0.00    -0.276 OA
ATOM     18  C   UNL     1      -0.427  -1.383   3.598  0.00  0.00    +0.109 C 
ATOM     19  H   UNL     1      -1.976   0.142   2.037  0.00  0.00    +0.155 HD
ENDBRANCH  12  15
ENDBRANCH   1  13
BRANCH   5  20
ATOM     20  S   UNL     1      -6.888  -1.428  -0.195  0.00  0.00    -0.072 S 
BRANCH  20  21
ATOM     21  C   UNL     1      -7.816   0.125  -0.252  0.00  0.00    +0.137 C 
ATOM     22  C   UNL     1      -7.604   0.796  -1.610  0.00  0.00    +0.029 C 
BRANCH  21  23
ATOM     23  C   UNL     1      -9.283  -0.160  -0.055  0.00  0.00    +0.230 C 
ATOM     24  O   UNL     1      -9.716  -1.275  -0.253  0.00  0.00    -0.274 OA
ATOM     25  N   UNL     1     -10.114   0.825   0.340  0.00  0.00    -0.284 N 
ATOM     26  H   UNL     1      -9.737   1.853   0.445  0.00  0.00    +0.155 HD
BRANCH  25  27
ATOM     27  C   UNL     1     -11.455   0.540   0.617  0.00  0.00    +0.037 A 
ATOM     28  C   UNL     1     -12.125  -0.433  -0.113  0.00  0.00    +0.023 A 
ATOM     29  C   UNL     1     -13.449  -0.712   0.163  0.00  0.00    +0.002 A 
ATOM     30  C   UNL     1     -14.108  -0.023   1.165  0.00  0.00    +0.004 A 
ATOM     31  C   UNL     1     -13.444   0.947   1.893  0.00  0.00    -0.046 A 
ATOM     32  C   UNL     1     -12.118   1.226   1.626  0.00  0.00    -0.026 A 
ATOM     33  C   UNL     1     -11.393   2.279   2.425  0.00  0.00    +0.046 C 
ATOM     34  C   UNL     1     -14.166   1.695   2.984  0.00  0.00    +0.044 C 
ENDBRANCH  25  27
ENDBRANCH  21  23
ENDBRANCH  20  21
ENDBRANCH   5  20
TORSDOF 6
