REMARK  Name = ZINC40268045
REMARK  3 active torsions:
REMARK  status: ('A' for Active; 'I' for Inactive)
REMARK    1  A    between atoms: C_1  and  N_2
REMARK    2  A    between atoms: C_10  and  C_11
REMARK    3  A    between atoms: C_11  and  N_13
REMARK                            x       y       z     vdW  Elec       q    Type
REMARK                         _______ _______ _______ _____ _____    ______ ____
ROOT
ATOM      1  C   UNL     1       0.017  -0.341   2.515  0.00  0.00    +0.287 C 
ATOM      2  O   UNL     1       0.029  -1.147   3.430  0.00  0.00    -0.266 OA
ENDROOT
BRANCH   1   3
ATOM      3  N   UNL     1       0.016   0.972   2.779  0.00  0.00    -0.141 NA
ATOM      4  C   UNL     1      -0.077   1.397   4.033  0.00  0.00    +0.199 A 
ATOM      5  N   UNL     1      -0.061   0.603   5.138  0.00  0.00    -0.326 N 
ATOM      6  H   UNL     1       0.021  -0.364   5.142  0.00  0.00    +0.169 HD
ATOM      7  C   UNL     1      -0.181   1.415   6.261  0.00  0.00    +0.065 A 
ATOM      8  C   UNL     1      -0.221   1.149   7.622  0.00  0.00    +0.028 A 
ATOM      9  C   UNL     1      -0.350   2.188   8.522  0.00  0.00    +0.002 A 
ATOM     10  C   UNL     1      -0.440   3.494   8.073  0.00  0.00    +0.002 A 
ATOM     11  C   UNL     1      -0.402   3.770   6.721  0.00  0.00    +0.028 A 
ATOM     12  C   UNL     1      -0.272   2.734   5.808  0.00  0.00    +0.065 A 
ATOM     13  N   UNL     1      -0.199   2.696   4.419  0.00  0.00    -0.326 N 
ATOM     14  H   UNL     1      -0.231   3.464   3.827  0.00  0.00    +0.169 HD
ENDBRANCH   1   3
BRANCH   1  24
ATOM     15  C   UNL     1      -0.013   1.464   0.011  0.00  0.00    +0.149 C 
ATOM     16  N   UNL     1      -0.009  -0.002   0.001  0.00  0.00    -0.339 N 
ATOM     17  C   UNL     1      -0.012  -0.795  -1.122  0.00  0.00    +0.049 A 
ATOM     18  C   UNL     1      -0.019  -0.516  -2.486  0.00  0.00    +0.026 A 
ATOM     19  C   UNL     1      -0.020  -1.550  -3.396  0.00  0.00    +0.002 A 
ATOM     20  C   UNL     1      -0.015  -2.871  -2.967  0.00  0.00    +0.001 A 
ATOM     21  C   UNL     1      -0.008  -3.169  -1.635  0.00  0.00    +0.010 A 
ATOM     22  C   UNL     1      -0.006  -2.135  -0.690  0.00  0.00    +0.001 A 
ATOM     23  C   UNL     1       0.001  -2.112   0.727  0.00  0.00    +0.041 A 
ATOM     24  C   UNL     1       0.004  -0.812   1.118  0.00  0.00    +0.107 A 
ENDBRANCH   1  24
TORSDOF 2
