REMARK  Name = ZINC12658439
REMARK  17 active torsions:
REMARK  status: ('A' for Active; 'I' for Inactive)
REMARK    1  A    between atoms: C_1  and  C_2
REMARK    2  A    between atoms: C_2  and  O_3
REMARK    3  A    between atoms: O_3  and  C_4
REMARK    4  A    between atoms: C_4  and  C_6
REMARK    5  A    between atoms: C_7  and  C_36
REMARK    6  A    between atoms: C_12  and  C_14
REMARK    7  A    between atoms: C_17  and  O_22
REMARK    8  A    between atoms: C_18  and  O_20
REMARK    9  A    between atoms: O_20  and  C_21
REMARK   10  A    between atoms: O_22  and  C_23
REMARK   11  A    between atoms: C_23  and  C_24
REMARK   12  A    between atoms: C_25  and  C_35
REMARK   13  A    between atoms: C_27  and  C_31
REMARK   14  A    between atoms: C_29  and  C_30
REMARK   15  A    between atoms: C_31  and  C_32
REMARK   16  A    between atoms: C_31  and  C_33
REMARK   17  A    between atoms: C_31  and  C_34
REMARK                            x       y       z     vdW  Elec       q    Type
REMARK                         _______ _______ _______ _____ _____    ______ ____
ROOT
ATOM      1  C   UNL     1       7.455  -2.858  -2.515  0.00  0.00    -0.019 A 
ATOM      2  C   UNL     1       6.816  -2.504  -1.341  0.00  0.00    +0.009 A 
ATOM      3  C   UNL     1       5.623  -1.808  -1.383  0.00  0.00    +0.050 A 
ATOM      4  C   UNL     1       5.058  -1.474  -2.604  0.00  0.00    +0.162 A 
ATOM      5  C   UNL     1       5.702  -1.830  -3.785  0.00  0.00    +0.162 A 
ATOM      6  C   UNL     1       6.901  -2.523  -3.736  0.00  0.00    +0.055 A 
ENDROOT
BRANCH   1  13
ATOM      7  C   UNL     1       8.489  -5.043  -2.880  0.00  0.00    +0.078 C 
ATOM      8  C   UNL     1       9.169  -5.528  -3.942  0.00  0.00    +0.019 C 
ATOM      9  N   UNL     1      10.070  -4.754  -4.614  0.00  0.00    -0.300 N 
ATOM     10  C   UNL     1      10.347  -3.485  -4.290  0.00  0.00    +0.135 C 
ATOM     11  S   UNL     1      11.499  -2.625  -5.220  0.00  0.00    -0.019 S 
ATOM     12  N   UNL     1       9.749  -2.862  -3.256  0.00  0.00    -0.315 N 
ATOM     13  C   UNL     1       8.759  -3.612  -2.463  0.00  0.00    +0.141 C 
ATOM     14  C   UNL     1       8.931  -6.947  -4.390  0.00  0.00    +0.061 C 
ATOM     15  H   UNL     1      10.535  -5.145  -5.370  0.00  0.00    +0.154 HD
ATOM     16  H   UNL     1       9.964  -1.942  -3.039  0.00  0.00    +0.149 HD
BRANCH   7  17
ATOM     17  C   UNL     1       7.557  -5.845  -2.181  0.00  0.00    +0.339 C 
ATOM     18  O   UNL     1       7.255  -6.942  -2.611  0.00  0.00    -0.245 OA
BRANCH  17  19
ATOM     19  O   UNL     1       7.001  -5.392  -1.038  0.00  0.00    -0.462 OA
BRANCH  19  21
ATOM     20  C   UNL     1       5.527  -5.575   0.869  0.00  0.00    +0.048 C 
ATOM     21  C   UNL     1       6.155  -6.297  -0.325  0.00  0.00    +0.229 C 
ENDBRANCH  19  21
ENDBRANCH  17  19
ENDBRANCH   7  17
ENDBRANCH   1  13
BRANCH   5  22
ATOM     22  O   UNL     1       5.155  -1.499  -4.985  0.00  0.00    -0.491 OA
ATOM     23  C   UNL     1       5.926  -1.791  -6.152  0.00  0.00    +0.277 C 
ENDBRANCH   5  22
BRANCH   4  24
ATOM     24  O   UNL     1       3.881  -0.794  -2.647  0.00  0.00    -0.484 OA
BRANCH  24  25
ATOM     25  C   UNL     1       3.278  -0.462  -1.395  0.00  0.00    +0.265 C 
BRANCH  25  26
ATOM     26  C   UNL     1       1.991   0.284  -1.640  0.00  0.00    -0.005 A 
ATOM     27  C   UNL     1       0.803  -0.411  -1.765  0.00  0.00    -0.044 A 
ATOM     28  C   UNL     1      -0.377   0.273  -1.989  0.00  0.00    +0.008 A 
ATOM     29  C   UNL     1      -0.369   1.652  -2.088  0.00  0.00    -0.041 A 
ATOM     30  C   UNL     1       0.819   2.347  -1.962  0.00  0.00    +0.008 A 
ATOM     31  C   UNL     1       2.000   1.663  -1.739  0.00  0.00    -0.044 A 
ATOM     32  C   UNL     1       3.295   2.420  -1.602  0.00  0.00    +0.044 C 
ATOM     33  C   UNL     1       0.794  -1.914  -1.657  0.00  0.00    +0.044 C 
BRANCH  29  34
ATOM     34  C   UNL     1      -1.655   2.397  -2.338  0.00  0.00    -0.013 C 
ATOM     35  C   UNL     1      -2.639   2.114  -1.201  0.00  0.00    +0.015 C 
ATOM     36  C   UNL     1      -1.370   3.899  -2.404  0.00  0.00    +0.015 C 
ATOM     37  C   UNL     1      -2.262   1.935  -3.664  0.00  0.00    +0.015 C 
ENDBRANCH  29  34
ENDBRANCH  25  26
ENDBRANCH  24  25
ENDBRANCH   4  24
TORSDOF 9
