REMARK  Name = ZINC41586504
REMARK  12 active torsions:
REMARK  status: ('A' for Active; 'I' for Inactive)
REMARK    1  A    between atoms: C_1  and  C_2
REMARK    2  A    between atoms: C_2  and  O_3
REMARK    3  A    between atoms: O_3  and  C_4
REMARK    4  A    between atoms: C_4  and  C_6
REMARK    5  A    between atoms: N_11  and  C_13
REMARK    6  A    between atoms: C_13  and  C_14
REMARK    7  A    between atoms: C_15  and  O_35
REMARK    8  A    between atoms: C_22  and  C_23
REMARK    9  A    between atoms: C_26  and  C_29
REMARK   10  A    between atoms: C_29  and  C_30
REMARK   11  A    between atoms: C_29  and  C_31
REMARK   12  A    between atoms: C_29  and  C_32
REMARK                            x       y       z     vdW  Elec       q    Type
REMARK                         _______ _______ _______ _____ _____    ______ ____
ROOT
ATOM      1  C   UNL     1       2.763  -5.977  -5.132  0.00  0.00    +0.020 A 
ATOM      2  C   UNL     1       1.924  -6.246  -6.202  0.00  0.00    +0.122 A 
ATOM      3  C   UNL     1       2.362  -7.030  -7.266  0.00  0.00    +0.046 A 
ATOM      4  C   UNL     1       3.629  -7.543  -7.264  0.00  0.00    +0.019 A 
ATOM      5  C   UNL     1       4.484  -7.280  -6.194  0.00  0.00    +0.068 A 
ATOM      6  C   UNL     1       4.055  -6.486  -5.118  0.00  0.00    +0.144 A 
ATOM      7  O   UNL     1       5.051  -6.368  -4.213  0.00  0.00    -0.451 OA
ATOM      8  C   UNL     1       6.164  -7.034  -4.599  0.00  0.00    +0.176 C 
ATOM      9  C   UNL     1       7.332  -7.110  -3.913  0.00  0.00    +0.058 C 
ATOM     10  C   UNL     1       5.873  -7.673  -5.893  0.00  0.00    +0.231 C 
ATOM     11  O   UNL     1       6.617  -8.361  -6.570  0.00  0.00    -0.283 OA
ENDROOT
BRANCH   9  12
ATOM     12  C   UNL     1       7.426  -6.547  -2.559  0.00  0.00    -0.021 A 
ATOM     13  C   UNL     1       6.276  -6.085  -1.907  0.00  0.00    +0.008 A 
ATOM     14  C   UNL     1       6.373  -5.559  -0.637  0.00  0.00    +0.005 A 
ATOM     15  C   UNL     1       7.603  -5.485  -0.006  0.00  0.00    -0.042 A 
ATOM     16  C   UNL     1       8.745  -5.939  -0.644  0.00  0.00    +0.005 A 
ATOM     17  C   UNL     1       8.664  -6.474  -1.911  0.00  0.00    +0.008 A 
BRANCH  15  18
ATOM     18  C   UNL     1       7.700  -4.907   1.383  0.00  0.00    -0.013 C 
ATOM     19  C   UNL     1       6.840  -5.734   2.340  0.00  0.00    +0.015 C 
ATOM     20  C   UNL     1       9.157  -4.940   1.848  0.00  0.00    +0.015 C 
ATOM     21  C   UNL     1       7.202  -3.461   1.369  0.00  0.00    +0.015 C 
ENDBRANCH  15  18
ENDBRANCH   9  12
BRANCH   2  22
ATOM     22  O   UNL     1       0.664  -5.740  -6.213  0.00  0.00    -0.506 OA
ATOM     23  H   UNL     1       0.593  -4.870  -6.629  0.00  0.00    +0.292 HD
ENDBRANCH   2  22
BRANCH   1  24
ATOM     24  C   UNL     1       2.275  -5.127  -3.988  0.00  0.00    -0.036 C 
BRANCH  24  29
ATOM     25  C   UNL     1       2.219  -1.401  -3.540  0.00  0.00    +0.081 C 
ATOM     26  C   UNL     1       3.725  -1.137  -3.622  0.00  0.00    +0.011 C 
ATOM     27  C   UNL     1       4.340  -2.069  -4.670  0.00  0.00    -0.018 C 
ATOM     28  C   UNL     1       4.026  -3.520  -4.302  0.00  0.00    -0.078 C 
ATOM     29  N   UNL     1       2.571  -3.715  -4.265  0.00  0.00    +0.383 N 
ATOM     30  C   UNL     1       1.982  -2.877  -3.214  0.00  0.00    -0.064 C 
ATOM     31  H   UNL     1       2.176  -3.460  -5.157  0.00  0.00    -0.081 HD
BRANCH  25  32
ATOM     32  C   UNL     1       1.617  -0.544  -2.457  0.00  0.00    +0.308 C 
ATOM     33  O   UNL     1       1.053  -1.060  -1.521  0.00  0.00    -0.251 OA
BRANCH  32  34
ATOM     34  O   UNL     1       1.705   0.794  -2.533  0.00  0.00    -0.465 OA
BRANCH  34  36
ATOM     35  C   UNL     1       1.312   3.039  -1.730  0.00  0.00    +0.048 C 
ATOM     36  C   UNL     1       1.112   1.544  -1.471  0.00  0.00    +0.229 C 
ENDBRANCH  34  36
ENDBRANCH  32  34
ENDBRANCH  25  32
ENDBRANCH  24  29
ENDBRANCH   1  24
TORSDOF 8
