REMARK  Name = ZINC63806951
REMARK  2 active torsions:
REMARK  status: ('A' for Active; 'I' for Inactive)
REMARK    1  A    between atoms: C_10  and  C_12
REMARK    2  A    between atoms: N_14  and  C_15
REMARK                            x       y       z     vdW  Elec       q    Type
REMARK                         _______ _______ _______ _____ _____    ______ ____
ROOT
ATOM      1  C   UNL     1       4.802   0.494  -0.156  0.00  0.00    +0.242 C 
ATOM      2  O   UNL     1       5.068  -0.487   0.506  0.00  0.00    -0.273 OA
ATOM      3  N   UNL     1       5.081   1.724   0.320  0.00  0.00    -0.284 N 
ATOM      4  H   UNL     1       4.935   2.504  -0.238  0.00  0.00    +0.155 HD
ENDROOT
BRANCH   1  14
ATOM      5  C   UNL     1      -0.005   1.286   0.028  0.00  0.00    +0.001 C 
ATOM      6  C   UNL     1       1.310   2.028   0.025  0.00  0.00    +0.004 C 
ATOM      7  C   UNL     1       1.988   1.938  -1.349  0.00  0.00    +0.036 C 
ATOM      8  C   UNL     1       2.669   0.583  -1.429  0.00  0.00    -0.001 C 
ATOM      9  C   UNL     1       2.048  -0.568  -1.448  0.00  0.00    +0.127 C 
ATOM     10  C   UNL     1       0.533  -0.721  -1.383  0.00  0.00    +0.076 C 
ATOM     11  C   UNL     1       0.082  -0.222  -0.006  0.00  0.00    +0.008 C 
ATOM     12  O   UNL     1       2.919  -1.608  -1.521  0.00  0.00    -0.410 OA
ATOM     13  N   UNL     1       4.221  -1.077  -1.966  0.00  0.00    -0.140 NA
ATOM     14  C   UNL     1       4.158   0.338  -1.510  0.00  0.00    +0.208 C 
ATOM     15  H   UNL     1       4.982  -1.567  -1.520  0.00  0.00    +0.168 HD
ENDBRANCH   1  14
BRANCH   3  16
ATOM     16  C   UNL     1       5.578   1.874   1.606  0.00  0.00    +0.034 C 
ATOM     17  C   UNL     1       4.910   2.664   2.516  0.00  0.00    +0.029 C 
ATOM     18  C   UNL     1       5.470   2.697   3.799  0.00  0.00    -0.016 C 
ATOM     19  C   UNL     1       5.504   3.642   4.759  0.00  0.00    +0.025 C 
ATOM     20  C   UNL     1       6.440   3.272   5.745  0.00  0.00    +0.106 C 
ATOM     21  N   UNL     1       6.946   2.089   5.525  0.00  0.00    -0.279 NA
ATOM     22  C   UNL     1       6.271   1.534   4.360  0.00  0.00    +0.158 C 
ATOM     23  C   UNL     1       7.180   1.039   3.276  0.00  0.00    +0.006 C 
ATOM     24  C   UNL     1       6.810   1.187   2.002  0.00  0.00    +0.021 C 
ENDBRANCH   3  16
TORSDOF 2
