REMARK  Name = ZINC35843333
REMARK  3 active torsions:
REMARK  status: ('A' for Active; 'I' for Inactive)
REMARK    1  A    between atoms: C_1  and  C_2
REMARK    2  A    between atoms: N_24  and  C_27
REMARK    3  A    between atoms: C_32  and  C_33
REMARK                            x       y       z     vdW  Elec       q    Type
REMARK                         _______ _______ _______ _____ _____    ______ ____
ROOT
ATOM      1  C   UNL     1      -0.018   1.503   0.010  0.00  0.00    +0.045 C 
ATOM      2  C   UNL     1       0.002  -0.004   0.002  0.00  0.00    -0.029 A 
ATOM      3  C   UNL     1       0.006  -0.685  -1.198  0.00  0.00    +0.005 A 
ATOM      4  C   UNL     1       0.024  -2.068  -1.216  0.00  0.00    +0.001 A 
ATOM      5  C   UNL     1       0.040  -2.772  -0.025  0.00  0.00    +0.008 A 
ATOM      6  C   UNL     1       0.039  -2.096   1.175  0.00  0.00    +0.004 A 
ATOM      7  C   UNL     1       0.023  -0.705   1.205  0.00  0.00    +0.042 A 
ATOM      8  N   UNL     1       0.027  -0.251   2.526  0.00  0.00    -0.283 N 
ATOM      9  C   UNL     1       0.053  -1.265   3.412  0.00  0.00    +0.243 C 
ATOM     10  O   UNL     1       0.061  -1.169   4.621  0.00  0.00    -0.273 OA
ATOM     11  C   UNL     1       0.057  -2.539   2.611  0.00  0.00    +0.138 C 
ATOM     12  C   UNL     1       1.307  -3.372   2.922  0.00  0.00    +0.123 C 
ATOM     13  C   UNL     1       0.824  -4.846   2.854  0.00  0.00    +0.107 C 
ATOM     14  C   UNL     1      -0.679  -4.764   2.526  0.00  0.00    +0.071 C 
ATOM     15  N   UNL     1      -1.099  -3.393   2.930  0.00  0.00    -0.281 NA
ATOM     16  C   UNL     1      -1.266  -3.485   4.400  0.00  0.00    +0.086 C 
ATOM     17  C   UNL     1      -1.863  -4.884   4.654  0.00  0.00    +0.017 C 
ATOM     18  C   UNL     1      -1.451  -5.744   3.428  0.00  0.00    +0.021 C 
ATOM     19  C   UNL     1       1.579  -5.407   1.671  0.00  0.00    +0.232 C 
ATOM     20  O   UNL     1       1.494  -6.545   1.260  0.00  0.00    -0.274 OA
ATOM     21  N   UNL     1       2.357  -4.452   1.147  0.00  0.00    -0.210 N 
ATOM     22  C   UNL     1       2.291  -3.258   1.779  0.00  0.00    +0.233 C 
ATOM     23  O   UNL     1       2.910  -2.259   1.484  0.00  0.00    -0.274 OA
ATOM     24  H   UNL     1       0.013   0.686   2.776  0.00  0.00    +0.155 HD
ENDROOT
BRANCH  21  25
ATOM     25  C   UNL     1       3.182  -4.672   0.035  0.00  0.00    +0.048 A 
ATOM     26  C   UNL     1       2.697  -4.445  -1.246  0.00  0.00    +0.024 A 
ATOM     27  C   UNL     1       3.511  -4.661  -2.341  0.00  0.00    +0.003 A 
ATOM     28  C   UNL     1       4.809  -5.104  -2.162  0.00  0.00    +0.020 A 
ATOM     29  C   UNL     1       5.296  -5.331  -0.887  0.00  0.00    +0.046 A 
ATOM     30  C   UNL     1       4.487  -5.111   0.212  0.00  0.00    -0.010 A 
ATOM     31  C   UNL     1       5.019  -5.353   1.602  0.00  0.00    +0.047 C 
ATOM     32 CL   UNL     1       6.926  -5.887  -0.666  0.00  0.00    -0.083 Cl
ENDBRANCH  21  25
TORSDOF 1
