REMARK  Name = ZINC12848173
REMARK  8 active torsions:
REMARK  status: ('A' for Active; 'I' for Inactive)
REMARK    1  A    between atoms: C_1  and  C_2
REMARK    2  A    between atoms: C_2  and  C_3
REMARK    3  A    between atoms: C_6  and  N_9
REMARK    4  A    between atoms: C_10  and  C_12
REMARK    5  A    between atoms: C_12  and  S_13
REMARK    6  A    between atoms: S_13  and  C_14
REMARK    7  A    between atoms: C_16  and  C_26
REMARK    8  A    between atoms: C_19  and  C_22
REMARK                            x       y       z     vdW  Elec       q    Type
REMARK                         _______ _______ _______ _____ _____    ______ ____
ROOT
ATOM      1  C   UNL     1       2.694  -3.001   9.765  0.00  0.00    +0.129 C 
ATOM      2  N   UNL     1       2.110  -3.183  10.997  0.00  0.00    -0.319 N 
ATOM      3  C   UNL     1       2.890  -3.836  12.059  0.00  0.00    +0.105 C 
ATOM      4  C   UNL     1       4.314  -3.262  12.003  0.00  0.00    +0.060 C 
ATOM      5  C   UNL     1       4.899  -3.553  10.619  0.00  0.00    +0.187 C 
ATOM      6  N   UNL     1       3.963  -3.161   9.572  0.00  0.00    -0.357 N 
ATOM      7  H   UNL     1       1.202  -2.885  11.162  0.00  0.00    +0.148 HD
ATOM      8  H   UNL     1       4.313  -3.007   8.680  0.00  0.00    +0.162 HD
ENDROOT
BRANCH   3   9
ATOM      9  C   UNL     1       2.928  -5.325  11.826  0.00  0.00    -0.027 A 
ATOM     10  C   UNL     1       3.081  -5.820  10.544  0.00  0.00    +0.005 A 
ATOM     11  C   UNL     1       3.115  -7.185  10.330  0.00  0.00    +0.000 A 
ATOM     12  C   UNL     1       2.996  -8.055  11.398  0.00  0.00    +0.000 A 
ATOM     13  C   UNL     1       2.843  -7.560  12.680  0.00  0.00    +0.000 A 
ATOM     14  C   UNL     1       2.814  -6.195  12.894  0.00  0.00    +0.005 A 
ENDBRANCH   3   9
BRANCH   5  15
ATOM     15  C   UNL     1       6.205  -2.774  10.450  0.00  0.00    +0.410 C 
ATOM     16  F   UNL     1       7.115  -3.169  11.436  0.00  0.00    -0.168 F 
ATOM     17  F   UNL     1       6.744  -3.037   9.186  0.00  0.00    -0.168 F 
ATOM     18  F   UNL     1       5.950  -1.404  10.572  0.00  0.00    -0.168 F 
ENDBRANCH   5  15
BRANCH   1  19
ATOM     19  S   UNL     1       1.677  -2.542   8.401  0.00  0.00    -0.083 S 
BRANCH  19  20
ATOM     20  C   UNL     1       2.836  -2.423   7.010  0.00  0.00    +0.173 C 
BRANCH  20  22
ATOM     21  N   UNL     1       2.746  -1.883   4.598  0.00  0.00    -0.285 N 
ATOM     22  C   UNL     1       2.085  -2.032   5.763  0.00  0.00    +0.227 C 
ATOM     23  O   UNL     1       0.887  -1.852   5.809  0.00  0.00    -0.275 OA
ATOM     24  H   UNL     1       3.689  -2.102   4.544  0.00  0.00    +0.155 HD
BRANCH  21  28
ATOM     25  C   UNL     1       0.736  -0.485   1.228  0.00  0.00    -0.048 A 
ATOM     26  C   UNL     1       0.375  -0.033   2.483  0.00  0.00    +0.005 A 
ATOM     27  C   UNL     1       1.039  -0.494   3.603  0.00  0.00    +0.023 A 
ATOM     28  C   UNL     1       2.071  -1.414   3.466  0.00  0.00    +0.033 A 
ATOM     29  C   UNL     1       2.431  -1.866   2.204  0.00  0.00    +0.023 A 
ATOM     30  C   UNL     1       1.759  -1.404   1.089  0.00  0.00    +0.005 A 
BRANCH  25  32
ATOM     31  C   UNL     1      -1.189  -0.885  -0.284  0.00  0.00    +0.009 C 
ATOM     32  C   UNL     1       0.009   0.021   0.008  0.00  0.00    +0.032 C 
ENDBRANCH  25  32
ENDBRANCH  21  28
ENDBRANCH  20  22
ENDBRANCH  19  20
ENDBRANCH   1  19
TORSDOF 7
