REMARK  Name = ZINC43769252
REMARK  18 active torsions:
REMARK  status: ('A' for Active; 'I' for Inactive)
REMARK    1  A    between atoms: C_1  and  C_2
REMARK    2  A    between atoms: C_2  and  O_4
REMARK    3  A    between atoms: O_4  and  C_5
REMARK    4  A    between atoms: C_7  and  O_33
REMARK    5  A    between atoms: C_11  and  C_32
REMARK    6  A    between atoms: C_12  and  O_19
REMARK    7  A    between atoms: C_16  and  C_17
REMARK    8  A    between atoms: C_16  and  C_18
REMARK    9  A    between atoms: C_20  and  O_31
REMARK   10  A    between atoms: C_21  and  C_30
REMARK   11  A    between atoms: C_23  and  C_27
REMARK   12  A    between atoms: C_23  and  C_28
REMARK   13  A    between atoms: O_33  and  C_34
REMARK   14  A    between atoms: C_34  and  C_36
REMARK   15  A    between atoms: C_36  and  C_37
REMARK   16  A    between atoms: C_37  and  N_38
REMARK   17  A    between atoms: N_38  and  C_39
REMARK   18  A    between atoms: N_38  and  C_40
REMARK                            x       y       z     vdW  Elec       q    Type
REMARK                         _______ _______ _______ _____ _____    ______ ____
ROOT
ATOM      1  C   UNL     1       0.110  -1.921  -0.960  0.00  0.00    +0.252 C 
ATOM      2  C   UNL     1      -1.250  -2.611  -1.137  0.00  0.00    +0.224 C 
ATOM      3  C   UNL     1      -1.809  -2.245  -2.508  0.00  0.00    +0.051 C 
ATOM      4  C   UNL     1      -0.909  -2.854  -3.592  0.00  0.00    +0.039 C 
ATOM      5  C   UNL     1      -1.469  -2.444  -4.964  0.00  0.00    +0.124 C 
ATOM      6  C   UNL     1      -2.889  -2.989  -5.115  0.00  0.00    +0.032 C 
ATOM      7  C   UNL     1      -3.793  -2.320  -4.091  0.00  0.00    +0.009 C 
ATOM      8  C   UNL     1      -3.288  -2.509  -2.659  0.00  0.00    -0.028 C 
ATOM      9  C   UNL     1      -3.701  -3.889  -2.146  0.00  0.00    +0.011 C 
ATOM     10  C   UNL     1      -4.071  -1.460  -1.826  0.00  0.00    +0.011 C 
ATOM     11  C   UNL     1       0.481  -2.267  -3.435  0.00  0.00    +0.164 C 
ATOM     12  C   UNL     1       1.088  -2.375  -2.037  0.00  0.00    +0.144 C 
ATOM     13  O   UNL     1       2.245  -1.541  -2.015  0.00  0.00    -0.356 OA
ATOM     14  C   UNL     1       3.259  -1.619  -2.988  0.00  0.00    +0.092 C 
ATOM     15  C   UNL     1       2.837  -2.067  -4.382  0.00  0.00    +0.116 C 
ATOM     16  C   UNL     1       1.537  -2.853  -4.347  0.00  0.00    +0.171 C 
ATOM     17  O   UNL     1       1.410  -3.853  -5.001  0.00  0.00    -0.294 OA
ATOM     18  C   UNL     1       4.402  -2.529  -2.501  0.00  0.00    +0.046 C 
ATOM     19  C   UNL     1       1.534  -3.805  -1.720  0.00  0.00    +0.049 C 
ATOM     20  C   UNL     1      -0.897  -4.378  -3.518  0.00  0.00    +0.017 C 
ENDROOT
BRANCH   5  21
ATOM     21  O   UNL     1      -0.654  -2.964  -6.011  0.00  0.00    -0.391 OA
ATOM     22  H   UNL     1      -0.961  -2.736  -6.899  0.00  0.00    +0.210 HD
ENDBRANCH   5  21
BRANCH  14  23
ATOM     23  C   UNL     1       3.862  -0.223  -3.131  0.00  0.00    -0.000 C 
ATOM     24  C   UNL     1       3.403   0.766  -2.405  0.00  0.00    +0.007 C 
ENDBRANCH  14  23
BRANCH  11  25
ATOM     25  O   UNL     1       0.395  -0.857  -3.760  0.00  0.00    -0.377 OA
ATOM     26  H   UNL     1       1.236  -0.385  -3.690  0.00  0.00    +0.211 HD
ENDBRANCH  11  25
BRANCH   1  27
ATOM     27  O   UNL     1      -0.058  -0.504  -1.017  0.00  0.00    -0.455 OA
BRANCH  27  29
ATOM     28  C   UNL     1      -0.515   1.620   0.157  0.00  0.00    +0.136 C 
ATOM     29  C   UNL     1      -0.325   0.125   0.139  0.00  0.00    +0.304 C 
ATOM     30  O   UNL     1      -0.412  -0.508   1.165  0.00  0.00    -0.251 OA
ENDBRANCH  27  29
ENDBRANCH   1  27
BRANCH   2  31
ATOM     31  O   UNL     1      -2.097  -2.168  -0.075  0.00  0.00    -0.457 OA
BRANCH  31  32
ATOM     32  C   UNL     1      -2.085  -2.890   1.057  0.00  0.00    +0.306 C 
ATOM     33  O   UNL     1      -1.377  -3.866   1.143  0.00  0.00    -0.251 OA
BRANCH  32  34
ATOM     34  C   UNL     1      -2.953  -2.483   2.220  0.00  0.00    +0.102 C 
BRANCH  34  35
ATOM     35  C   UNL     1      -2.751  -3.466   3.375  0.00  0.00    -0.068 C 
BRANCH  35  36
ATOM     36  N   UNL     1      -3.597  -3.070   4.509  0.00  0.00    +0.376 N 
ATOM     37  C   UNL     1      -5.011  -3.198   4.132  0.00  0.00    -0.097 C 
ATOM     38  C   UNL     1      -3.315  -3.941   5.658  0.00  0.00    -0.097 C 
ATOM     39  H   UNL     1      -3.400  -2.112   4.756  0.00  0.00    -0.083 HD
ENDBRANCH  35  36
ENDBRANCH  34  35
ENDBRANCH  32  34
ENDBRANCH  31  32
ENDBRANCH   2  31
TORSDOF 10
