REMARK  Name = ZINC39483532
REMARK  6 active torsions:
REMARK  status: ('A' for Active; 'I' for Inactive)
REMARK    1  A    between atoms: C_4  and  O_7
REMARK    2  A    between atoms: O_7  and  S_8
REMARK    3  A    between atoms: S_8  and  C_11
REMARK    4  A    between atoms: C_26  and  C_27
REMARK    5  A    between atoms: C_29  and  O_34
REMARK    6  A    between atoms: C_31  and  O_33
REMARK                            x       y       z     vdW  Elec       q    Type
REMARK                         _______ _______ _______ _____ _____    ______ ____
ROOT
ATOM      1  C   UNL     1       2.894  -2.159   1.070  0.00  0.00    +0.154 A 
ATOM      2  C   UNL     1       1.648  -1.853   1.569  0.00  0.00    +0.033 A 
ATOM      3  C   UNL     1       0.817  -2.849   2.066  0.00  0.00    +0.003 A 
ATOM      4  C   UNL     1       1.222  -4.166   2.064  0.00  0.00    +0.015 A 
ATOM      5  C   UNL     1       2.476  -4.500   1.558  0.00  0.00    +0.067 A 
ATOM      6  C   UNL     1       3.329  -3.488   1.057  0.00  0.00    +0.107 A 
ATOM      7  N   UNL     1       4.545  -3.829   0.601  0.00  0.00    -0.227 NA
ATOM      8  C   UNL     1       4.959  -5.079   0.563  0.00  0.00    +0.140 A 
ATOM      9  N   UNL     1       4.165  -6.129   0.953  0.00  0.00    -0.293 N 
ATOM     10  C   UNL     1       2.954  -5.887   1.519  0.00  0.00    +0.262 A 
ATOM     11  O   UNL     1       2.279  -6.795   1.967  0.00  0.00    -0.267 OA
ATOM     12  C   UNL     1       4.562  -7.517   0.752  0.00  0.00    +0.127 C 
ATOM     13  C   UNL     1       6.058  -7.729   0.714  0.00  0.00    +0.026 C 
ATOM     14  C   UNL     1       6.768  -6.743  -0.197  0.00  0.00    +0.040 C 
ATOM     15  C   UNL     1       6.330  -5.338   0.103  0.00  0.00    -0.004 C 
ATOM     16  C   UNL     1       7.194  -4.316  -0.050  0.00  0.00    +0.015 C 
ENDROOT
BRANCH  16  17
ATOM     17  C   UNL     1       8.512  -4.551  -0.663  0.00  0.00    -0.018 A 
ATOM     18  C   UNL     1       8.657  -5.514  -1.666  0.00  0.00    +0.053 A 
ATOM     19  C   UNL     1       9.899  -5.731  -2.239  0.00  0.00    +0.121 A 
ATOM     20  C   UNL     1      10.998  -4.995  -1.820  0.00  0.00    +0.090 A 
ATOM     21  C   UNL     1      10.859  -4.037  -0.825  0.00  0.00    +0.121 A 
ATOM     22  C   UNL     1       9.621  -3.808  -0.249  0.00  0.00    +0.053 A 
BRANCH  21  23
ATOM     23  O   UNL     1      11.939  -3.320  -0.418  0.00  0.00    -0.507 OA
ATOM     24  H   UNL     1      12.077  -2.501  -0.913  0.00  0.00    +0.292 HD
ENDBRANCH  21  23
BRANCH  19  25
ATOM     25  O   UNL     1      10.041  -6.667  -3.214  0.00  0.00    -0.507 OA
ATOM     26  H   UNL     1       9.906  -6.327  -4.109  0.00  0.00    +0.292 HD
ENDBRANCH  19  25
ENDBRANCH  16  17
BRANCH   1  27
ATOM     27  S   UNL     1       3.933  -0.882   0.443  0.00  0.00    +0.153 S 
ATOM     28  O   UNL     1       5.267  -1.365   0.528  0.00  0.00    -0.131 OA
ATOM     29  O   UNL     1       3.518   0.324   1.069  0.00  0.00    -0.131 OA
BRANCH  27  30
ATOM     30  O   UNL     1       3.619  -0.733  -1.039  0.00  0.00    -0.342 OA
BRANCH  30  34
ATOM     31  C   UNL     1       0.053   1.190  -1.815  0.00  0.00    +0.000 A 
ATOM     32  C   UNL     1       1.220   1.921  -1.699  0.00  0.00    +0.004 A 
ATOM     33  C   UNL     1       2.416   1.280  -1.440  0.00  0.00    +0.048 A 
ATOM     34  C   UNL     1       2.444  -0.100  -1.294  0.00  0.00    +0.157 A 
ATOM     35  C   UNL     1       1.271  -0.831  -1.410  0.00  0.00    +0.048 A 
ATOM     36  C   UNL     1       0.078  -0.185  -1.670  0.00  0.00    +0.004 A 
ENDBRANCH  30  34
ENDBRANCH  27  30
ENDBRANCH   1  27
TORSDOF 6
