REMARK  Name = ZINC36697465
REMARK  11 active torsions:
REMARK  status: ('A' for Active; 'I' for Inactive)
REMARK    1  A    between atoms: C_1  and  C_2
REMARK    2  A    between atoms: C_3  and  C_35
REMARK    3  A    between atoms: C_11  and  C_13
REMARK    4  A    between atoms: C_13  and  S_14
REMARK    5  A    between atoms: S_14  and  C_15
REMARK    6  A    between atoms: C_15  and  C_17
REMARK    7  A    between atoms: C_15  and  C_18
REMARK    8  A    between atoms: N_20  and  C_21
REMARK    9  A    between atoms: C_21  and  C_22
REMARK   10  A    between atoms: C_22  and  C_24
REMARK   11  A    between atoms: C_22  and  N_29
REMARK                            x       y       z     vdW  Elec       q    Type
REMARK                         _______ _______ _______ _____ _____    ______ ____
ROOT
ATOM      1  C   UNL     1       1.236  -7.612   4.690  0.00  0.00    +0.226 C 
ATOM      2  O   UNL     1       1.302  -8.022   3.550  0.00  0.00    -0.275 OA
ATOM      3  N   UNL     1       1.253  -8.480   5.720  0.00  0.00    -0.316 N 
ATOM      4  H   UNL     1       1.201  -8.152   6.632  0.00  0.00    +0.149 HD
ENDROOT
BRANCH   1   5
ATOM      5  C   UNL     1       1.134  -6.132   4.953  0.00  0.00    +0.129 C 
ATOM      6  C   UNL     1      -0.324  -5.764   5.239  0.00  0.00    +0.029 C 
BRANCH   5   7
ATOM      7  S   UNL     1       1.715  -5.217   3.498  0.00  0.00    -0.141 S 
BRANCH   7   8
ATOM      8  C   UNL     1       1.673  -3.482   4.025  0.00  0.00    +0.144 C 
BRANCH   8  19
ATOM      9  C   UNL     1       3.594   1.165  -0.409  0.00  0.00    +0.045 C 
ATOM     10  C   UNL     1       3.458  -0.335  -0.371  0.00  0.00    -0.026 A 
ATOM     11  C   UNL     1       3.777  -1.073  -1.447  0.00  0.00    -0.008 A 
ATOM     12  S   UNL     1       3.453  -2.743  -0.912  0.00  0.00    -0.073 S 
ATOM     13  C   UNL     1       2.899  -2.401   0.739  0.00  0.00    +0.116 A 
ATOM     14  C   UNL     1       2.987  -1.000   0.829  0.00  0.00    +0.075 A 
ATOM     15  C   UNL     1       2.596  -0.435   2.087  0.00  0.00    +0.260 A 
ATOM     16  O   UNL     1       2.633   0.771   2.263  0.00  0.00    -0.267 OA
ATOM     17  N   UNL     1       2.187  -1.257   3.071  0.00  0.00    -0.310 N 
ATOM     18  H   UNL     1       1.921  -0.881   3.925  0.00  0.00    +0.170 HD
ATOM     19  C   UNL     1       2.139  -2.602   2.894  0.00  0.00    +0.121 A 
ATOM     20  N   UNL     1       2.480  -3.147   1.756  0.00  0.00    -0.226 NA
ATOM     21  C   UNL     1       4.286  -0.603  -2.785  0.00  0.00    +0.052 C 
ENDBRANCH   8  19
ENDBRANCH   7   8
ENDBRANCH   5   7
ENDBRANCH   1   5
BRANCH   3  22
ATOM     22  C   UNL     1       1.352  -9.919   5.464  0.00  0.00    +0.096 C 
BRANCH  22  23
ATOM     23  C   UNL     1       1.485 -10.666   6.793  0.00  0.00    +0.016 C 
BRANCH  23  24
ATOM     24  N   UNL     1       2.649 -10.154   7.529  0.00  0.00    +0.387 N 
ATOM     25  C   UNL     1       3.844 -10.258   6.683  0.00  0.00    -0.078 C 
ATOM     26  C   UNL     1       5.044  -9.651   7.414  0.00  0.00    -0.019 C 
ATOM     27  C   UNL     1       5.275 -10.412   8.723  0.00  0.00    -0.004 C 
ATOM     28  C   UNL     1       3.997 -10.360   9.565  0.00  0.00    -0.019 C 
ATOM     29  C   UNL     1       2.835 -10.940   8.754  0.00  0.00    -0.078 C 
ATOM     30  H   UNL     1       2.493  -9.187   7.771  0.00  0.00    -0.081 HD
ENDBRANCH  23  24
BRANCH  23  31
ATOM     31  C   UNL     1       1.667 -12.138   6.526  0.00  0.00    +0.093 A 
ATOM     32  C   UNL     1       0.753 -13.098   6.755  0.00  0.00    +0.043 A 
ATOM     33  C   UNL     1       1.339 -14.323   6.363  0.00  0.00    +0.041 A 
ATOM     34  C   UNL     1       2.576 -14.039   5.919  0.00  0.00    +0.195 A 
ATOM     35  O   UNL     1       2.768 -12.713   6.015  0.00  0.00    -0.469 OA
ENDBRANCH  23  31
ENDBRANCH  22  23
ENDBRANCH   3  22
TORSDOF 8
