REMARK  Name = ZINC40985212
REMARK  10 active torsions:
REMARK  status: ('A' for Active; 'I' for Inactive)
REMARK    1  A    between atoms: C_1  and  C_2
REMARK    2  A    between atoms: C_3  and  C_17
REMARK    3  A    between atoms: C_5  and  C_7
REMARK    4  A    between atoms: C_10  and  O_13
REMARK    5  A    between atoms: O_13  and  C_14
REMARK    6  A    between atoms: C_14  and  C_15
REMARK    7  A    between atoms: C_14  and  C_16
REMARK    8  A    between atoms: C_17  and  N_18
REMARK    9  A    between atoms: C_21  and  C_24
REMARK   10  A    between atoms: N_26  and  C_27
REMARK                            x       y       z     vdW  Elec       q    Type
REMARK                         _______ _______ _______ _____ _____    ______ ____
ROOT
ATOM      1  N   UNL     1      -2.720  -0.483  -2.976  0.00  0.00    +0.383 N 
ATOM      2  C   UNL     1      -2.587  -1.837  -3.528  0.00  0.00    -0.078 C 
ATOM      3  C   UNL     1      -2.759  -1.791  -5.048  0.00  0.00    -0.006 C 
ATOM      4  C   UNL     1      -4.146  -1.236  -5.383  0.00  0.00    +0.071 C 
ATOM      5  C   UNL     1      -4.301   0.145  -4.740  0.00  0.00    -0.006 C 
ATOM      6  C   UNL     1      -4.072   0.027  -3.231  0.00  0.00    -0.078 C 
ATOM      7  H   UNL     1      -2.044   0.124  -3.414  0.00  0.00    -0.081 HD
ENDROOT
BRANCH   4   8
ATOM      8  C   UNL     1      -4.293  -1.115  -6.878  0.00  0.00    +0.216 C 
ATOM      9  O   UNL     1      -3.379  -1.441  -7.605  0.00  0.00    -0.276 OA
ATOM     10  N   UNL     1      -5.441  -0.646  -7.406  0.00  0.00    -0.308 N 
ATOM     11  H   UNL     1      -6.172  -0.386  -6.824  0.00  0.00    +0.149 HD
BRANCH  10  12
ATOM     12  C   UNL     1      -5.583  -0.528  -8.860  0.00  0.00    +0.104 C 
ATOM     13  C   UNL     1      -6.654   0.527  -9.209  0.00  0.00    +0.032 C 
ATOM     14  C   UNL     1      -7.934  -0.327  -9.332  0.00  0.00    +0.037 C 
ATOM     15  C   UNL     1      -7.451  -1.710  -9.715  0.00  0.00    -0.042 A 
ATOM     16  C   UNL     1      -6.098  -1.826  -9.443  0.00  0.00    -0.024 A 
ATOM     17  C   UNL     1      -5.438  -3.012  -9.715  0.00  0.00    +0.006 A 
ATOM     18  C   UNL     1      -6.124  -4.082 -10.258  0.00  0.00    +0.000 A 
ATOM     19  C   UNL     1      -7.474  -3.969 -10.529  0.00  0.00    +0.000 A 
ATOM     20  C   UNL     1      -8.139  -2.782 -10.257  0.00  0.00    +0.004 A 
ENDBRANCH  10  12
ENDBRANCH   4   8
BRANCH   1  21
ATOM     21  C   UNL     1      -2.477  -0.521  -1.528  0.00  0.00    -0.019 C 
BRANCH  21  24
ATOM     22  C   UNL     1      -0.029   1.405  -1.266  0.00  0.00    +0.088 C 
ATOM     23  C   UNL     1       0.003  -0.097  -1.156  0.00  0.00    +0.124 A 
ATOM     24  C   UNL     1      -1.049  -0.927  -1.268  0.00  0.00    +0.066 A 
ATOM     25  N   UNL     1      -0.602  -2.183  -1.108  0.00  0.00    -0.216 NA
ATOM     26  C   UNL     1       0.694  -2.143  -0.901  0.00  0.00    +0.228 A 
ATOM     27  O   UNL     1       1.092  -0.859  -0.932  0.00  0.00    -0.440 OA
BRANCH  26  28
ATOM     28  C   UNL     1       1.568  -3.312  -0.676  0.00  0.00    +0.037 A 
ATOM     29  C   UNL     1       1.028  -4.600  -0.679  0.00  0.00    +0.017 A 
ATOM     30  C   UNL     1       1.847  -5.689  -0.470  0.00  0.00    +0.046 A 
ATOM     31  C   UNL     1       3.207  -5.506  -0.256  0.00  0.00    +0.121 A 
ATOM     32  C   UNL     1       3.748  -4.227  -0.253  0.00  0.00    +0.046 A 
ATOM     33  C   UNL     1       2.937  -3.133  -0.467  0.00  0.00    +0.017 A 
BRANCH  31  34
ATOM     34  O   UNL     1       4.011  -6.582  -0.050  0.00  0.00    -0.489 OA
BRANCH  34  35
ATOM     35  C   UNL     1       3.375  -7.857   0.052  0.00  0.00    +0.167 C 
ATOM     36  C   UNL     1       3.158  -8.432  -1.349  0.00  0.00    +0.051 C 
ATOM     37  C   UNL     1       4.261  -8.806   0.862  0.00  0.00    +0.051 C 
ENDBRANCH  34  35
ENDBRANCH  31  34
ENDBRANCH  26  28
ENDBRANCH  21  24
ENDBRANCH   1  21
TORSDOF 7
