REMARK  Name = ZINC16822003
REMARK  5 active torsions:
REMARK  status: ('A' for Active; 'I' for Inactive)
REMARK    1  A    between atoms: C_1  and  C_2
REMARK    2  A    between atoms: C_2  and  C_4
REMARK    3  A    between atoms: C_2  and  S_15
REMARK    4  A    between atoms: N_6  and  C_7
REMARK    5  A    between atoms: S_15  and  C_16
REMARK                            x       y       z     vdW  Elec       q    Type
REMARK                         _______ _______ _______ _____ _____    ______ ____
ROOT
ATOM      1  C   UNL     1      -0.136  -0.087   2.816  0.00  0.00    +0.176 A 
ATOM      2  N   UNL     1      -1.236   0.569   2.551  0.00  0.00    -0.223 NA
ATOM      3  C   UNL     1      -2.069   1.000   3.530  0.00  0.00    +0.077 A 
ATOM      4  C   UNL     1      -3.241   1.700   3.231  0.00  0.00    +0.028 A 
ATOM      5  C   UNL     1      -4.063   2.124   4.251  0.00  0.00    +0.002 A 
ATOM      6  C   UNL     1      -3.742   1.865   5.576  0.00  0.00    +0.001 A 
ATOM      7  C   UNL     1      -2.591   1.176   5.896  0.00  0.00    +0.013 A 
ATOM      8  C   UNL     1      -1.746   0.739   4.880  0.00  0.00    +0.043 A 
ATOM      9  C   UNL     1      -0.506   0.000   5.166  0.00  0.00    +0.150 A 
ATOM     10  N   UNL     1       0.260  -0.394   4.091  0.00  0.00    -0.271 N 
ATOM     11  C   UNL     1       1.356  -1.066   4.601  0.00  0.00    +0.076 A 
ATOM     12  C   UNL     1       2.460  -1.681   4.027  0.00  0.00    +0.028 A 
ATOM     13  C   UNL     1       3.404  -2.282   4.833  0.00  0.00    +0.002 A 
ATOM     14  C   UNL     1       3.258  -2.276   6.213  0.00  0.00    +0.002 A 
ATOM     15  C   UNL     1       2.178  -1.677   6.797  0.00  0.00    +0.030 A 
ATOM     16  C   UNL     1       1.208  -1.060   6.000  0.00  0.00    +0.090 A 
ATOM     17  N   UNL     1       0.062  -0.392   6.281  0.00  0.00    -0.227 NA
ENDROOT
BRANCH   1  18
ATOM     18  S   UNL     1       0.879  -0.605   1.472  0.00  0.00    -0.075 S 
BRANCH  18  20
ATOM     19  C   UNL     1      -0.019   1.526   0.010  0.00  0.00    +0.029 C 
ATOM     20  C   UNL     1       0.002  -0.004   0.002  0.00  0.00    +0.137 C 
BRANCH  20  21
ATOM     21  C   UNL     1       0.707  -0.490  -1.238  0.00  0.00    +0.226 C 
ATOM     22  O   UNL     1       1.864  -0.849  -1.176  0.00  0.00    -0.275 OA
ATOM     23  N   UNL     1       0.053  -0.526  -2.415  0.00  0.00    -0.310 N 
ATOM     24  H   UNL     1      -0.873  -0.239  -2.465  0.00  0.00    +0.149 HD
BRANCH  23  25
ATOM     25  C   UNL     1       0.738  -0.999  -3.621  0.00  0.00    +0.095 C 
ATOM     26  C   UNL     1       0.638  -2.531  -3.697  0.00  0.00    +0.046 C 
ATOM     27  C   UNL     1       1.088  -2.975  -5.119  0.00  0.00    +0.168 C 
ATOM     28  S   UNL     1       0.294  -1.668  -6.147  0.00  0.00    -0.029 S 
ATOM     29  O   UNL     1      -0.986  -2.122  -6.564  0.00  0.00    -0.174 OA
ATOM     30  O   UNL     1       1.227  -1.215  -7.119  0.00  0.00    -0.174 OA
ATOM     31  C   UNL     1       0.079  -0.365  -4.869  0.00  0.00    +0.188 C 
ENDBRANCH  23  25
ENDBRANCH  20  21
ENDBRANCH  18  20
ENDBRANCH   1  18
TORSDOF 4
