REMARK  Name = ZINC09490409
REMARK  12 active torsions:
REMARK  status: ('A' for Active; 'I' for Inactive)
REMARK    1  A    between atoms: C_1  and  C_2
REMARK    2  A    between atoms: C_6  and  C_23
REMARK    3  A    between atoms: N_10  and  C_11
REMARK    4  A    between atoms: C_13  and  O_21
REMARK    5  A    between atoms: C_14  and  O_19
REMARK    6  A    between atoms: C_15  and  O_17
REMARK    7  A    between atoms: O_17  and  C_18
REMARK    8  A    between atoms: O_19  and  C_20
REMARK    9  A    between atoms: O_21  and  C_22
REMARK   10  A    between atoms: N_25  and  C_26
REMARK   11  A    between atoms: C_31  and  C_36
REMARK   12  A    between atoms: C_33  and  C_35
REMARK                            x       y       z     vdW  Elec       q    Type
REMARK                         _______ _______ _______ _____ _____    ______ ____
ROOT
ATOM      1  C   UNL     1       8.422   0.350  -0.075  0.00  0.00    +0.086 C 
ATOM      2  C   UNL     1       6.915   0.309  -0.061  0.00  0.00    +0.112 A 
ATOM      3  N   UNL     1       6.142   1.355  -0.048  0.00  0.00    -0.232 NA
ATOM      4  C   UNL     1       4.841   0.960  -0.039  0.00  0.00    +0.090 A 
ATOM      5  C   UNL     1       3.630   1.649  -0.029  0.00  0.00    +0.043 A 
ATOM      6  C   UNL     1       2.436   0.935  -0.016  0.00  0.00    +0.039 A 
ATOM      7  C   UNL     1       2.452  -0.467  -0.024  0.00  0.00    +0.015 A 
ATOM      8  C   UNL     1       3.636  -1.144  -0.039  0.00  0.00    +0.029 A 
ATOM      9  C   UNL     1       4.840  -0.447  -0.046  0.00  0.00    +0.074 A 
ATOM     10  N   UNL     1       6.165  -0.829  -0.060  0.00  0.00    -0.296 N 
ENDROOT
BRANCH  10  11
ATOM     11  C   UNL     1       6.651  -2.144  -0.072  0.00  0.00    +0.055 A 
ATOM     12  C   UNL     1       6.430  -2.975   1.018  0.00  0.00    +0.075 A 
ATOM     13  C   UNL     1       6.905  -4.277   1.006  0.00  0.00    +0.167 A 
ATOM     14  C   UNL     1       7.614  -4.747  -0.094  0.00  0.00    +0.204 A 
ATOM     15  C   UNL     1       7.839  -3.913  -1.183  0.00  0.00    +0.167 A 
ATOM     16  C   UNL     1       7.358  -2.613  -1.171  0.00  0.00    +0.075 A 
BRANCH  15  17
ATOM     17  O   UNL     1       8.532  -4.371  -2.259  0.00  0.00    -0.491 OA
ATOM     18  C   UNL     1       8.727  -3.459  -3.342  0.00  0.00    +0.277 C 
ENDBRANCH  15  17
BRANCH  14  19
ATOM     19  O   UNL     1       8.086  -6.024  -0.105  0.00  0.00    -0.488 OA
ATOM     20  C   UNL     1       9.398  -6.234   0.420  0.00  0.00    +0.277 C 
ENDBRANCH  14  19
BRANCH  13  21
ATOM     21  O   UNL     1       6.684  -5.092   2.071  0.00  0.00    -0.491 OA
ATOM     22  C   UNL     1       5.949  -4.543   3.167  0.00  0.00    +0.277 C 
ENDBRANCH  13  21
ENDBRANCH  10  11
BRANCH   6  23
ATOM     23  C   UNL     1       1.147   1.655   0.000  0.00  0.00    +0.244 C 
ATOM     24  O   UNL     1       1.130   2.871   0.007  0.00  0.00    -0.270 OA
ATOM     25  N   UNL     1      -0.011   0.966   0.007  0.00  0.00    -0.308 N 
ATOM     26  H   UNL     1       0.002  -0.004   0.002  0.00  0.00    +0.149 HD
BRANCH  25  27
ATOM     27  C   UNL     1      -1.290   1.681   0.017  0.00  0.00    +0.076 C 
ATOM     28  C   UNL     1      -1.667   2.032   1.458  0.00  0.00    +0.022 C 
ATOM     29  C   UNL     1      -3.002   2.779   1.468  0.00  0.00    +0.002 C 
ATOM     30  C   UNL     1      -4.088   1.890   0.859  0.00  0.00    +0.003 C 
ATOM     31  C   UNL     1      -3.711   1.539  -0.582  0.00  0.00    -0.009 C 
ATOM     32  C   UNL     1      -2.376   0.792  -0.592  0.00  0.00    +0.009 C 
ATOM     33  C   UNL     1      -2.504  -0.492   0.229  0.00  0.00    +0.009 C 
ATOM     34  C   UNL     1      -4.797   0.651  -1.191  0.00  0.00    +0.008 C 
ENDBRANCH  25  27
ENDBRANCH   6  23
TORSDOF 6
