REMARK  Name = ZINC01407910
REMARK  14 active torsions:
REMARK  status: ('A' for Active; 'I' for Inactive)
REMARK    1  A    between atoms: C_1  and  C_2
REMARK    2  A    between atoms: C_7  and  C_8
REMARK    3  A    between atoms: C_8  and  N_9
REMARK    4  A    between atoms: N_9  and  C_10
REMARK    5  A    between atoms: C_10  and  C_12
REMARK    6  A    between atoms: C_10  and  C_15
REMARK    7  A    between atoms: C_12  and  C_13
REMARK    8  A    between atoms: C_12  and  C_14
REMARK    9  A    between atoms: N_17  and  C_18
REMARK   10  A    between atoms: C_27  and  C_29
REMARK   11  A    between atoms: C_29  and  S_30
REMARK   12  A    between atoms: S_30  and  C_31
REMARK   13  A    between atoms: C_33  and  C_38
REMARK   14  A    between atoms: C_35  and  C_37
REMARK                            x       y       z     vdW  Elec       q    Type
REMARK                         _______ _______ _______ _____ _____    ______ ____
ROOT
ATOM      1  N   UNL     1       4.941   5.875   0.696  0.00  0.00    -0.285 N 
ATOM      2  C   UNL     1       4.219   4.814   0.285  0.00  0.00    +0.227 C 
ATOM      3  O   UNL     1       3.096   4.974  -0.145  0.00  0.00    -0.275 OA
ENDROOT
BRANCH   1   4
ATOM      4  C   UNL     1       6.324   5.691   1.143  0.00  0.00    +0.144 C 
BRANCH   4  11
ATOM      5  C   UNL     1       5.216   4.418   3.489  0.00  0.00    +0.044 C 
ATOM      6  C   UNL     1       5.972   5.715   3.621  0.00  0.00    -0.046 A 
ATOM      7  C   UNL     1       6.135   6.296   4.865  0.00  0.00    +0.003 A 
ATOM      8  C   UNL     1       6.829   7.485   4.987  0.00  0.00    +0.000 A 
ATOM      9  C   UNL     1       7.359   8.094   3.865  0.00  0.00    +0.000 A 
ATOM     10  C   UNL     1       7.200   7.511   2.622  0.00  0.00    +0.005 A 
ATOM     11  C   UNL     1       6.502   6.324   2.499  0.00  0.00    -0.027 A 
ENDBRANCH   4  11
ENDBRANCH   1   4
BRANCH   1  12
ATOM     12  C   UNL     1       4.343   7.212   0.695  0.00  0.00    +0.165 C 
BRANCH  12  13
ATOM     13  C   UNL     1       5.246   8.165  -0.045  0.00  0.00    +0.238 C 
ATOM     14  O   UNL     1       6.428   7.917  -0.159  0.00  0.00    -0.273 OA
ATOM     15  N   UNL     1       4.740   9.293  -0.582  0.00  0.00    -0.284 N 
ATOM     16  H   UNL     1       3.813   9.533  -0.423  0.00  0.00    +0.155 HD
BRANCH  15  17
ATOM     17  C   UNL     1       5.552  10.121  -1.368  0.00  0.00    +0.037 A 
ATOM     18  C   UNL     1       6.516   9.562  -2.197  0.00  0.00    +0.027 A 
ATOM     19  C   UNL     1       7.315  10.377  -2.977  0.00  0.00    +0.051 A 
ATOM     20  C   UNL     1       7.163  11.753  -2.927  0.00  0.00    +0.166 A 
ATOM     21  C   UNL     1       6.200  12.316  -2.092  0.00  0.00    +0.168 A 
ATOM     22  C   UNL     1       5.397  11.499  -1.315  0.00  0.00    +0.072 A 
ATOM     23  O   UNL     1       6.250  13.674  -2.223  0.00  0.00    -0.453 OA
ATOM     24  C   UNL     1       7.523  13.955  -2.835  0.00  0.00    +0.466 C 
ATOM     25  O   UNL     1       7.816  12.759  -3.580  0.00  0.00    -0.453 OA
ENDBRANCH  15  17
ENDBRANCH  12  13
BRANCH  12  26
ATOM     26  C   UNL     1       4.167   7.693   2.137  0.00  0.00    +0.012 C 
ATOM     27  C   UNL     1       3.665   9.138   2.135  0.00  0.00    +0.009 C 
ATOM     28  C   UNL     1       3.150   6.801   2.851  0.00  0.00    +0.009 C 
ENDBRANCH  12  26
ENDBRANCH   1  12
BRANCH   2  29
ATOM     29  C   UNL     1       4.806   3.428   0.361  0.00  0.00    +0.173 C 
BRANCH  29  30
ATOM     30  S   UNL     1       3.582   2.222  -0.207  0.00  0.00    -0.077 S 
BRANCH  30  31
ATOM     31  C   UNL     1       4.507   0.734  -0.018  0.00  0.00    +0.189 A 
ATOM     32  N   UNL     1       3.945  -0.423  -0.339  0.00  0.00    -0.227 NA
ATOM     33  C   UNL     1       4.612  -1.557  -0.209  0.00  0.00    +0.043 A 
ATOM     34  C   UNL     1       5.913  -1.526   0.269  0.00  0.00    +0.046 A 
ATOM     35  C   UNL     1       6.470  -0.300   0.595  0.00  0.00    +0.043 A 
ATOM     36  N   UNL     1       5.748   0.798   0.442  0.00  0.00    -0.227 NA
ATOM     37  C   UNL     1       7.881  -0.218   1.119  0.00  0.00    +0.066 C 
ATOM     38  C   UNL     1       3.965  -2.868  -0.576  0.00  0.00    +0.066 C 
ENDBRANCH  30  31
ENDBRANCH  29  30
ENDBRANCH   2  29
TORSDOF 9
