REMARK  Name = ZINC12034262
REMARK  7 active torsions:
REMARK  status: ('A' for Active; 'I' for Inactive)
REMARK    1  A    between atoms: C_6  and  C_7
REMARK    2  A    between atoms: C_7  and  N_8
REMARK    3  A    between atoms: C_9  and  C_11
REMARK    4  A    between atoms: C_15  and  C_20
REMARK    5  A    between atoms: C_20  and  O_32
REMARK    6  A    between atoms: C_25  and  C_26
REMARK    7  A    between atoms: C_25  and  N_70
REMARK                            x       y       z     vdW  Elec       q    Type
REMARK                         _______ _______ _______ _____ _____    ______ ____
ROOT
ATOM      1  C   UNL     1       6.818  -3.304   7.167  0.00  0.00    +0.190 A 
ATOM      2  C   UNL     1       6.492  -3.570   5.876  0.00  0.00    +0.063 A 
ATOM      3  C   UNL     1       5.827  -2.370   5.371  0.00  0.00    +0.021 A 
ATOM      4  C   UNL     1       5.259  -2.014   4.145  0.00  0.00    +0.018 A 
ATOM      5  C   UNL     1       4.703  -0.776   3.990  0.00  0.00    -0.015 A 
ATOM      6  C   UNL     1       4.688   0.126   5.045  0.00  0.00    +0.010 A 
ATOM      7  C   UNL     1       5.238  -0.207   6.264  0.00  0.00    +0.047 A 
ATOM      8  C   UNL     1       5.815  -1.460   6.444  0.00  0.00    +0.136 A 
ATOM      9  O   UNL     1       6.415  -2.057   7.492  0.00  0.00    -0.450 OA
ENDROOT
BRANCH   5  10
ATOM     10  C   UNL     1       4.095  -0.389   2.667  0.00  0.00    +0.088 C 
ATOM     11  C   UNL     1       4.221   1.124   2.468  0.00  0.00    +0.021 C 
ATOM     12  C   UNL     1       3.548   1.519   1.151  0.00  0.00    -0.076 C 
ATOM     13  C   UNL     1       1.987  -0.325   1.330  0.00  0.00    -0.076 C 
ATOM     14  C   UNL     1       2.613  -0.775   2.651  0.00  0.00    +0.021 C 
ATOM     15  N   UNL     1       2.120   1.142   1.211  0.00  0.00    +0.380 N 
ATOM     16  H   UNL     1       1.693   1.583   2.034  0.00  0.00    -0.082 HD
BRANCH  10  17
ATOM     17  O   UNL     1       4.776  -1.068   1.610  0.00  0.00    -0.384 OA
ATOM     18  H   UNL     1       4.737  -2.032   1.672  0.00  0.00    +0.211 HD
ENDBRANCH  10  17
BRANCH  15  19
ATOM     19  C   UNL     1       1.423   1.615  -0.003  0.00  0.00    -0.075 C 
BRANCH  19  20
ATOM     20  C   UNL     1      -0.021   1.111   0.024  0.00  0.00    -0.028 C 
ATOM     21  C   UNL     1      -0.734   1.669   1.257  0.00  0.00    +0.002 C 
ATOM     22  C   UNL     1      -2.179   1.165   1.283  0.00  0.00    +0.000 C 
ATOM     23  C   UNL     1      -2.905   1.631   0.020  0.00  0.00    +0.000 C 
ATOM     24  C   UNL     1      -2.192   1.073  -1.214  0.00  0.00    +0.000 C 
ATOM     25  C   UNL     1      -0.748   1.577  -1.240  0.00  0.00    +0.002 C 
ENDBRANCH  19  20
ENDBRANCH  15  19
ENDBRANCH   5  10
BRANCH   1  27
ATOM     26  N   UNL     1       7.782  -3.859   9.340  0.00  0.00    -0.305 N 
ATOM     27  C   UNL     1       7.508  -4.232   8.074  0.00  0.00    +0.280 C 
ATOM     28  O   UNL     1       7.831  -5.338   7.683  0.00  0.00    -0.267 OA
ATOM     29  H   UNL     1       7.524  -2.978   9.652  0.00  0.00    +0.149 HD
BRANCH  26  30
ATOM     30  C   UNL     1       8.470  -4.785  10.244  0.00  0.00    +0.140 C 
BRANCH  30  36
ATOM     31  C   UNL     1       9.798  -3.399  11.848  0.00  0.00    +0.009 A 
ATOM     32  C   UNL     1       9.970  -2.791  13.079  0.00  0.00    +0.050 A 
ATOM     33  C   UNL     1       9.000  -2.924  14.058  0.00  0.00    +0.166 A 
ATOM     34  C   UNL     1       7.849  -3.665  13.798  0.00  0.00    +0.167 A 
ATOM     35  C   UNL     1       7.681  -4.265  12.562  0.00  0.00    +0.054 A 
ATOM     36  C   UNL     1       8.654  -4.129  11.588  0.00  0.00    -0.027 A 
ATOM     37  O   UNL     1       7.057  -3.645  14.910  0.00  0.00    -0.453 OA
ATOM     38  C   UNL     1       7.917  -3.229  15.987  0.00  0.00    +0.466 C 
ATOM     39  O   UNL     1       8.928  -2.440  15.333  0.00  0.00    -0.453 OA
ENDBRANCH  30  36
ENDBRANCH  26  30
ENDBRANCH   1  27
TORSDOF 7
