REMARK  Name = ZINC35842640
REMARK  22 active torsions:
REMARK  status: ('A' for Active; 'I' for Inactive)
REMARK    1  A    between atoms: C_1  and  C_2
REMARK    2  A    between atoms: C_2  and  C_3
REMARK    3  A    between atoms: C_2  and  N_4
REMARK    4  A    between atoms: N_4  and  C_5
REMARK    5  A    between atoms: N_4  and  C_14
REMARK    6  A    between atoms: C_5  and  C_6
REMARK    7  A    between atoms: C_6  and  C_8
REMARK    8  A    between atoms: C_6  and  O_13
REMARK    9  A    between atoms: C_8  and  O_9
REMARK   10  A    between atoms: O_9  and  C_10
REMARK   11  A    between atoms: C_10  and  C_11
REMARK   12  A    between atoms: C_10  and  C_12
REMARK   13  A    between atoms: C_14  and  C_15
REMARK   14  A    between atoms: N_17  and  C_18
REMARK   15  A    between atoms: N_17  and  C_30
REMARK   16  A    between atoms: C_18  and  C_19
REMARK   17  A    between atoms: C_19  and  C_20
REMARK   18  A    between atoms: C_30  and  C_31
REMARK   19  A    between atoms: C_34  and  C_37
REMARK   20  A    between atoms: C_37  and  C_38
REMARK   21  A    between atoms: C_37  and  C_39
REMARK   22  A    between atoms: C_37  and  C_40
REMARK                            x       y       z     vdW  Elec       q    Type
REMARK                         _______ _______ _______ _____ _____    ______ ____
ROOT
ATOM      1  C   UNL     1      -0.536  -2.586   1.276  0.00  0.00    +0.199 C 
ATOM      2  O   UNL     1      -0.471  -1.760   2.161  0.00  0.00    -0.278 OA
ATOM      3  N   UNL     1      -0.139  -3.853   1.506  0.00  0.00    -0.298 N 
ENDROOT
BRANCH   1   4
ATOM      4  C   UNL     1      -1.061  -2.196  -0.082  0.00  0.00    +0.019 C 
BRANCH   4   5
ATOM      5  N   UNL     1      -1.272  -0.743  -0.127  0.00  0.00    +0.389 N 
ATOM      6  H   UNL     1      -1.617  -0.426   0.766  0.00  0.00    -0.081 HD
BRANCH   5   8
ATOM      7  C   UNL     1       1.052  -0.493   0.604  0.00  0.00    -0.014 C 
ATOM      8  C   UNL     1       0.001  -0.073  -0.425  0.00  0.00    -0.074 C 
ATOM      9  C   UNL     1       0.471  -0.471  -1.826  0.00  0.00    -0.014 C 
ENDBRANCH   5   8
BRANCH   5  10
ATOM     10  C   UNL     1      -2.252  -0.422  -1.173  0.00  0.00    -0.044 C 
BRANCH  10  11
ATOM     11  C   UNL     1      -2.600   1.066  -1.106  0.00  0.00    +0.124 C 
BRANCH  11  12
ATOM     12  O   UNL     1      -1.460   1.840  -1.482  0.00  0.00    -0.391 OA
ATOM     13  H   UNL     1      -1.189   1.720  -2.403  0.00  0.00    +0.210 HD
ENDBRANCH  11  12
BRANCH  11  14
ATOM     14  C   UNL     1      -3.756   1.362  -2.063  0.00  0.00    +0.189 C 
BRANCH  14  15
ATOM     15  O   UNL     1      -4.159   2.725  -1.916  0.00  0.00    -0.375 OA
BRANCH  15  16
ATOM     16  C   UNL     1      -5.239   3.108  -2.770  0.00  0.00    +0.112 C 
ATOM     17  C   UNL     1      -6.062   4.205  -2.092  0.00  0.00    +0.037 C 
ATOM     18  C   UNL     1      -4.681   3.633  -4.094  0.00  0.00    +0.037 C 
ENDBRANCH  15  16
ENDBRANCH  14  15
ENDBRANCH  11  14
ENDBRANCH  10  11
ENDBRANCH   5  10
ENDBRANCH   4   5
ENDBRANCH   1   4
BRANCH   3  19
ATOM     19  C   UNL     1      -0.217  -4.852   0.437  0.00  0.00    +0.113 C 
BRANCH  19  20
ATOM     20  C   UNL     1       1.093  -4.856  -0.354  0.00  0.00    +0.056 C 
BRANCH  20  21
ATOM     21  C   UNL     1       1.012  -5.883  -1.454  0.00  0.00    -0.021 A 
ATOM     22  C   UNL     1       1.450  -7.150  -1.397  0.00  0.00    +0.087 A 
ATOM     23  N   UNL     1       1.206  -7.782  -2.586  0.00  0.00    -0.360 N 
ATOM     24  H   UNL     1       1.434  -8.704  -2.784  0.00  0.00    +0.165 HD
ATOM     25  C   UNL     1       0.589  -6.915  -3.459  0.00  0.00    +0.047 A 
ATOM     26  C   UNL     1       0.435  -5.689  -2.787  0.00  0.00    +0.003 A 
ATOM     27  C   UNL     1      -0.173  -4.611  -3.433  0.00  0.00    +0.010 A 
ATOM     28  C   UNL     1      -0.619  -4.755  -4.717  0.00  0.00    +0.001 A 
ATOM     29  C   UNL     1      -0.473  -5.963  -5.383  0.00  0.00    +0.002 A 
ATOM     30  C   UNL     1       0.133  -7.037  -4.767  0.00  0.00    +0.026 A 
ENDBRANCH  20  21
ENDBRANCH  19  20
ENDBRANCH   3  19
BRANCH   3  31
ATOM     31  C   UNL     1       0.371  -4.233   2.826  0.00  0.00    +0.142 C 
BRANCH  31  32
ATOM     32  C   UNL     1      -0.771  -4.701   3.691  0.00  0.00    -0.030 A 
ATOM     33  C   UNL     1      -1.465  -3.794   4.469  0.00  0.00    +0.005 A 
ATOM     34  C   UNL     1      -2.512  -4.223   5.262  0.00  0.00    +0.004 A 
ATOM     35  C   UNL     1      -2.866  -5.559   5.277  0.00  0.00    -0.042 A 
ATOM     36  C   UNL     1      -2.172  -6.466   4.497  0.00  0.00    +0.004 A 
ATOM     37  C   UNL     1      -1.128  -6.036   3.701  0.00  0.00    +0.005 A 
BRANCH  35  38
ATOM     38  C   UNL     1      -4.008  -6.028   6.142  0.00  0.00    -0.013 C 
ATOM     39  C   UNL     1      -5.292  -5.310   5.724  0.00  0.00    +0.015 C 
ATOM     40  C   UNL     1      -4.189  -7.537   5.973  0.00  0.00    +0.015 C 
ATOM     41  C   UNL     1      -3.700  -5.711   7.607  0.00  0.00    +0.015 C 
ENDBRANCH  35  38
ENDBRANCH  31  32
ENDBRANCH   3  31
TORSDOF 15
