REMARK  Name = ZINC39737512
REMARK  6 active torsions:
REMARK  status: ('A' for Active; 'I' for Inactive)
REMARK    1  A    between atoms: C_1  and  C_2
REMARK    2  A    between atoms: C_5  and  N_8
REMARK    3  A    between atoms: C_9  and  C_24
REMARK    4  A    between atoms: N_10  and  N_11
REMARK    5  A    between atoms: C_12  and  C_13
REMARK    6  A    between atoms: C_15  and  N_21
REMARK                            x       y       z     vdW  Elec       q    Type
REMARK                         _______ _______ _______ _____ _____    ______ ____
ROOT
ATOM      1  N   UNL     1      -0.001  -4.167  -0.002  0.00  0.00    -0.298 N 
ATOM      2  C   UNL     1       0.054  -4.838   1.158  0.00  0.00    +0.143 C 
ATOM      3  N   UNL     1      -0.006  -4.162   2.338  0.00  0.00    -0.262 N 
ATOM      4  H   UNL     1       0.416  -3.295  -0.077  0.00  0.00    +0.154 HD
ATOM      5  H   UNL     1      -0.036  -4.651   3.176  0.00  0.00    +0.190 HD
ENDROOT
BRANCH   2   6
ATOM      6  C   UNL     1       0.178  -6.304   1.154  0.00  0.00    +0.104 A 
ATOM      7  C   UNL     1       0.084  -6.998   2.374  0.00  0.00    +0.032 A 
ATOM      8  C   UNL     1       0.194  -8.356   2.406  0.00  0.00    +0.012 A 
ATOM      9  C   UNL     1       0.403  -9.033   1.189  0.00  0.00    +0.000 A 
ATOM     10  C   UNL     1       0.528 -10.427   1.124  0.00  0.00    +0.010 A 
ATOM     11  C   UNL     1       0.729 -11.026  -0.084  0.00  0.00    +0.001 A 
ATOM     12  C   UNL     1       0.814 -10.287  -1.261  0.00  0.00    +0.002 A 
ATOM     13  C   UNL     1       0.701  -8.932  -1.265  0.00  0.00    +0.028 A 
ATOM     14  C   UNL     1       0.492  -8.250  -0.048  0.00  0.00    +0.072 A 
ATOM     15  N   UNL     1       0.368  -6.929   0.002  0.00  0.00    -0.244 NA
ENDBRANCH   2   6
BRANCH   1  20
ATOM     16  C   UNL     1      -2.665  -6.428  -4.458  0.00  0.00    +0.044 C 
ATOM     17  C   UNL     1      -1.956  -5.827  -3.272  0.00  0.00    -0.050 A 
ATOM     18  C   UNL     1      -0.847  -5.021  -3.467  0.00  0.00    +0.005 A 
ATOM     19  C   UNL     1      -0.195  -4.468  -2.385  0.00  0.00    +0.023 A 
ATOM     20  C   UNL     1      -0.653  -4.721  -1.093  0.00  0.00    +0.032 A 
ATOM     21  C   UNL     1      -1.770  -5.532  -0.902  0.00  0.00    +0.023 A 
ATOM     22  C   UNL     1      -2.419  -6.077  -1.992  0.00  0.00    +0.005 A 
ENDBRANCH   1  20
BRANCH   3  23
ATOM     23  N   UNL     1      -0.022  -2.872   2.343  0.00  0.00    -0.180 NA
ATOM     24  C   UNL     1       0.023  -2.202   3.513  0.00  0.00    +0.144 C 
BRANCH  24  25
ATOM     25  C   UNL     1      -0.101  -0.811   3.525  0.00  0.00    +0.045 A 
ATOM     26  C   UNL     1       0.041  -0.084   4.734  0.00  0.00    +0.046 A 
ATOM     27  C   UNL     1      -0.082   1.269   4.727  0.00  0.00    +0.128 A 
ATOM     28  C   UNL     1      -0.348   1.966   3.550  0.00  0.00    +0.051 A 
ATOM     29  C   UNL     1      -0.497   1.310   2.344  0.00  0.00    +0.067 A 
ATOM     30  C   UNL     1      -0.375  -0.072   2.285  0.00  0.00    +0.202 A 
ATOM     31  O   UNL     1      -0.512  -0.726   1.110  0.00  0.00    -0.286 OA
ATOM     32 BR   UNL     1      -0.859   2.295   0.771  0.00  0.00    -0.046 Br
BRANCH  27  33
ATOM     33  N   UNL     1       0.068   2.017   5.995  0.00  0.00    +0.056 N 
ATOM     34  O   UNL     1       0.320   1.372   7.115  0.00  0.00    -0.126 OA
ATOM     35  O   UNL     1      -0.049   3.329   6.003  0.00  0.00    -0.126 OA
ENDBRANCH  27  33
ENDBRANCH  24  25
ENDBRANCH   3  23
TORSDOF 5
