REMARK  Name = ZINC14799006
REMARK  3 active torsions:
REMARK  status: ('A' for Active; 'I' for Inactive)
REMARK    1  A    between atoms: C_7  and  C_11
REMARK    2  A    between atoms: N_13  and  N_14
REMARK    3  A    between atoms: C_15  and  C_17
REMARK                            x       y       z     vdW  Elec       q    Type
REMARK                         _______ _______ _______ _____ _____    ______ ____
ROOT
ATOM      1  C   UNL     1      -1.163  -0.899   0.009  0.00  0.00    +0.262 C 
ATOM      2  O   UNL     1      -2.287  -0.435   0.022  0.00  0.00    -0.269 OA
ATOM      3  N   UNL     1      -0.986  -2.236  -0.000  0.00  0.00    -0.230 N 
ATOM      4  H   UNL     1      -0.089  -2.606  -0.011  0.00  0.00    +0.173 HD
ENDROOT
BRANCH   1  11
ATOM      5  C   UNL     1      -0.710   3.763   0.029  0.00  0.00    +0.001 A 
ATOM      6  C   UNL     1       0.619   4.163   0.018  0.00  0.00    +0.002 A 
ATOM      7  C   UNL     1       1.633   3.230   0.004  0.00  0.00    +0.026 A 
ATOM      8  C   UNL     1       1.327   1.873  -0.001  0.00  0.00    +0.047 A 
ATOM      9  C   UNL     1      -0.018   1.470   0.010  0.00  0.00    +0.012 A 
ATOM     10  C   UNL     1      -1.033   2.424   0.030  0.00  0.00    +0.011 A 
ATOM     11  C   UNL     1       0.002  -0.004   0.002  0.00  0.00    +0.063 A 
ATOM     12  C   UNL     1       1.315  -0.373  -0.013  0.00  0.00    +0.096 A 
ATOM     13  N   UNL     1       2.101   0.731  -0.014  0.00  0.00    -0.360 N 
ATOM     14  H   UNL     1       3.071   0.720  -0.023  0.00  0.00    +0.165 HD
ENDBRANCH   1  11
BRANCH   3  15
ATOM     15  N   UNL     1      -2.096  -3.089   0.006  0.00  0.00    -0.230 N 
ATOM     16  C   UNL     1      -1.919  -4.425  -0.003  0.00  0.00    +0.260 C 
ATOM     17  O   UNL     1      -0.796  -4.889  -0.016  0.00  0.00    -0.269 OA
ATOM     18  H   UNL     1      -2.993  -2.719   0.017  0.00  0.00    +0.173 HD
BRANCH  16  19
ATOM     19  C   UNL     1      -3.092  -5.326   0.004  0.00  0.00    +0.038 A 
ATOM     20  C   UNL     1      -4.384  -4.799   0.026  0.00  0.00    +0.013 A 
ATOM     21  C   UNL     1      -5.466  -5.651   0.029  0.00  0.00    +0.004 A 
ATOM     22  C   UNL     1      -5.286  -7.029   0.022  0.00  0.00    -0.044 A 
ATOM     23  C   UNL     1      -4.012  -7.556   0.003  0.00  0.00    -0.043 A 
ATOM     24  C   UNL     1      -2.915  -6.708  -0.005  0.00  0.00    +0.017 A 
ATOM     25  C   UNL     1      -3.748  -9.039  -0.015  0.00  0.00    +0.035 C 
ATOM     26  C   UNL     1      -4.990  -9.811   0.426  0.00  0.00    +0.005 C 
ATOM     27  C   UNL     1      -6.184  -9.318  -0.401  0.00  0.00    +0.005 C 
ATOM     28  C   UNL     1      -6.519  -7.895   0.040  0.00  0.00    +0.035 C 
ENDBRANCH  16  19
ENDBRANCH   3  15
TORSDOF 3
