REMARK  Name = ZINC02955501
REMARK  13 active torsions:
REMARK  status: ('A' for Active; 'I' for Inactive)
REMARK    1  A    between atoms: C_1  and  C_2
REMARK    2  A    between atoms: C_5  and  O_36
REMARK    3  A    between atoms: C_6  and  N_8
REMARK    4  A    between atoms: C_9  and  C_11
REMARK    5  A    between atoms: C_14  and  C_31
REMARK    6  A    between atoms: C_17  and  C_30
REMARK    7  A    between atoms: N_21  and  C_22
REMARK    8  A    between atoms: C_26  and  O_28
REMARK    9  A    between atoms: O_28  and  C_29
REMARK   10  A    between atoms: C_31  and  O_32
REMARK   11  A    between atoms: O_32  and  C_33
REMARK   12  A    between atoms: C_33  and  C_35
REMARK   13  A    between atoms: O_36  and  C_37
REMARK                            x       y       z     vdW  Elec       q    Type
REMARK                         _______ _______ _______ _____ _____    ______ ____
ROOT
ATOM      1  C   UNL     1      -6.237   2.648   1.149  0.00  0.00    +0.098 A 
ATOM      2  C   UNL     1      -6.966   2.525  -0.014  0.00  0.00    +0.030 A 
ATOM      3  C   UNL     1      -8.385   2.880   0.043  0.00  0.00    +0.028 A 
ATOM      4  C   UNL     1      -9.270   2.550  -0.992  0.00  0.00    +0.018 A 
ATOM      5  C   UNL     1     -10.594   2.916  -0.866  0.00  0.00    +0.118 A 
ATOM      6  N   UNL     1     -11.027   3.562   0.201  0.00  0.00    -0.256 NA
ATOM      7  C   UNL     1     -10.235   3.896   1.199  0.00  0.00    +0.081 A 
ATOM      8  C   UNL     1      -8.886   3.572   1.162  0.00  0.00    +0.159 A 
ATOM      9  O   UNL     1      -8.050   3.908   2.172  0.00  0.00    -0.437 OA
ATOM     10  C   UNL     1      -6.955   3.120   2.350  0.00  0.00    +0.212 A 
ATOM     11  N   UNL     1      -6.545   2.790   3.555  0.00  0.00    -0.325 N 
ATOM     12  C   UNL     1     -10.796   4.633   2.387  0.00  0.00    +0.069 C 
ATOM     13  H   UNL     1      -5.707   2.088   3.677  0.00  0.00    +0.169 HD
ENDROOT
BRANCH  11  14
ATOM     14  C   UNL     1      -7.160   3.319   4.655  0.00  0.00    +0.045 A 
ATOM     15  C   UNL     1      -6.763   4.564   5.150  0.00  0.00    +0.026 A 
ATOM     16  C   UNL     1      -7.391   5.097   6.257  0.00  0.00    +0.006 A 
ATOM     17  C   UNL     1      -8.404   4.398   6.887  0.00  0.00    +0.046 A 
ATOM     18  C   UNL     1      -8.802   3.157   6.406  0.00  0.00    +0.122 A 
ATOM     19  C   UNL     1      -8.184   2.615   5.293  0.00  0.00    +0.071 A 
BRANCH  18  20
ATOM     20  O   UNL     1      -9.798   2.475   7.029  0.00  0.00    -0.495 OA
ATOM     21  C   UNL     1     -10.392   3.094   8.172  0.00  0.00    +0.277 C 
ENDBRANCH  18  20
ENDBRANCH  11  14
BRANCH   1  23
ATOM     22  N   UNL     1      -4.115   2.448   2.346  0.00  0.00    -0.278 N 
ATOM     23  C   UNL     1      -4.802   2.317   1.193  0.00  0.00    +0.253 C 
ATOM     24  O   UNL     1      -4.236   1.926   0.190  0.00  0.00    -0.270 OA
ATOM     25  H   UNL     1      -4.641   2.732   3.269  0.00  0.00    +0.155 HD
BRANCH  22  31
ATOM     26  C   UNL     1      -0.206  -0.038   0.698  0.00  0.00    +0.044 C 
ATOM     27  C   UNL     1      -0.811   1.025   1.579  0.00  0.00    -0.048 A 
ATOM     28  C   UNL     1       0.000   1.776   2.409  0.00  0.00    +0.007 A 
ATOM     29  C   UNL     1      -0.549   2.753   3.220  0.00  0.00    +0.048 A 
ATOM     30  C   UNL     1      -1.915   2.980   3.203  0.00  0.00    +0.141 A 
ATOM     31  C   UNL     1      -2.733   2.223   2.367  0.00  0.00    +0.076 A 
ATOM     32  C   UNL     1      -2.174   1.249   1.552  0.00  0.00    +0.030 A 
BRANCH  30  33
ATOM     33  O   UNL     1      -2.457   3.939   4.000  0.00  0.00    -0.493 OA
ATOM     34  C   UNL     1      -1.557   4.676   4.831  0.00  0.00    +0.277 C 
ENDBRANCH  30  33
ENDBRANCH  22  31
ENDBRANCH   1  23
BRANCH   4  35
ATOM     35  C   UNL     1      -8.786   1.813  -2.213  0.00  0.00    +0.269 C 
BRANCH  35  36
ATOM     36  O   UNL     1      -9.899   1.599  -3.122  0.00  0.00    -0.460 OA
BRANCH  36  37
ATOM     37  C   UNL     1      -9.635   0.951  -4.267  0.00  0.00    +0.304 C 
ATOM     38  O   UNL     1      -8.511   0.574  -4.503  0.00  0.00    -0.251 OA
ATOM     39  C   UNL     1     -10.739   0.692  -5.259  0.00  0.00    +0.136 C 
ENDBRANCH  36  37
ENDBRANCH  35  36
ENDBRANCH   4  35
TORSDOF 8
