REMARK  Name = ZINC31040357
REMARK  6 active torsions:
REMARK  status: ('A' for Active; 'I' for Inactive)
REMARK    1  A    between atoms: C_4  and  C_7
REMARK    2  A    between atoms: C_7  and  C_8
REMARK    3  A    between atoms: C_8  and  C_10
REMARK    4  A    between atoms: C_8  and  N_20
REMARK    5  A    between atoms: C_21  and  C_23
REMARK    6  A    between atoms: C_23  and  N_24
REMARK                            x       y       z     vdW  Elec       q    Type
REMARK                         _______ _______ _______ _____ _____    ______ ____
ROOT
ATOM      1  N   UNL     1      -3.058   5.763  -2.441  0.00  0.00    -0.304 N 
ATOM      2  C   UNL     1      -2.298   4.914  -1.721  0.00  0.00    +0.232 C 
ATOM      3  O   UNL     1      -1.223   5.277  -1.293  0.00  0.00    -0.274 OA
ATOM      4  H   UNL     1      -4.034   5.434  -2.829  0.00  0.00    +0.149 HD
ENDROOT
BRANCH   1   5
ATOM      5  C   UNL     1      -2.585   7.123  -2.708  0.00  0.00    +0.143 C 
BRANCH   5   6
ATOM      6  C   UNL     1      -3.237   7.645  -3.963  0.00  0.00    +0.129 A 
ATOM      7  N   UNL     1      -2.579   7.953  -5.112  0.00  0.00    -0.340 N 
ATOM      8  H   UNL     1      -1.487   7.830  -5.171  0.00  0.00    +0.167 HD
ATOM      9  C   UNL     1      -3.522   8.390  -6.021  0.00  0.00    +0.066 A 
ATOM     10  C   UNL     1      -3.465   8.833  -7.336  0.00  0.00    +0.028 A 
ATOM     11  C   UNL     1      -4.623   9.215  -7.978  0.00  0.00    +0.002 A 
ATOM     12  C   UNL     1      -5.844   9.159  -7.319  0.00  0.00    +0.002 A 
ATOM     13  C   UNL     1      -5.918   8.726  -6.026  0.00  0.00    +0.030 A 
ATOM     14  C   UNL     1      -4.757   8.334  -5.355  0.00  0.00    +0.089 A 
ATOM     15  N   UNL     1      -4.511   7.870  -4.103  0.00  0.00    -0.231 NA
ENDBRANCH   5   6
BRANCH   5  16
ATOM     16  C   UNL     1      -2.949   8.030  -1.530  0.00  0.00    +0.065 C 
BRANCH  16  20
ATOM     17  C   UNL     1      -0.828   6.759   1.953  0.00  0.00    +0.000 A 
ATOM     18  C   UNL     1      -0.267   7.697   1.106  0.00  0.00    +0.000 A 
ATOM     19  C   UNL     1      -0.953   8.107  -0.022  0.00  0.00    +0.004 A 
ATOM     20  C   UNL     1      -2.201   7.582  -0.301  0.00  0.00    -0.045 A 
ATOM     21  C   UNL     1      -2.764   6.649   0.549  0.00  0.00    +0.004 A 
ATOM     22  C   UNL     1      -2.075   6.234   1.673  0.00  0.00    +0.000 A 
ENDBRANCH  16  20
ENDBRANCH   5  16
ENDBRANCH   1   5
BRANCH   2  23
ATOM     23  C   UNL     1      -2.784   3.515  -1.446  0.00  0.00    +0.213 C 
BRANCH  23  24
ATOM     24  N   UNL     1      -1.785   2.798  -0.650  0.00  0.00    -0.215 N 
ATOM     25  C   UNL     1      -0.775   2.071  -1.175  0.00  0.00    +0.251 C 
ATOM     26  O   UNL     1      -0.528   1.893  -2.349  0.00  0.00    -0.272 OA
ATOM     27  C   UNL     1      -0.019   1.530   0.011  0.00  0.00    +0.138 C 
ATOM     28  C   UNL     1       0.002  -0.004   0.002  0.00  0.00    +0.045 C 
ATOM     29  C   UNL     1       1.363  -0.308  -0.665  0.00  0.00    +0.038 C 
ATOM     30  C   UNL     1       2.221   0.909  -0.389  0.00  0.00    -0.042 A 
ATOM     31  C   UNL     1       1.420   1.970  -0.001  0.00  0.00    -0.012 A 
ATOM     32  C   UNL     1       1.998   3.192   0.300  0.00  0.00    +0.006 A 
ATOM     33  C   UNL     1       3.367   3.355   0.217  0.00  0.00    +0.000 A 
ATOM     34  C   UNL     1       4.166   2.295  -0.169  0.00  0.00    +0.000 A 
ATOM     35  C   UNL     1       3.593   1.076  -0.472  0.00  0.00    +0.004 A 
ATOM     36  N   UNL     1      -0.738   2.048   1.175  0.00  0.00    -0.281 N 
ATOM     37  C   UNL     1      -1.760   2.782   0.689  0.00  0.00    +0.310 C 
ATOM     38  O   UNL     1      -2.566   3.363   1.388  0.00  0.00    -0.252 OA
ATOM     39  H   UNL     1      -0.392   1.802   2.189  0.00  0.00    +0.152 HD
ENDBRANCH  23  24
ENDBRANCH   2  23
TORSDOF 6
