REMARK  Name = ZINC40322233
REMARK  7 active torsions:
REMARK  status: ('A' for Active; 'I' for Inactive)
REMARK    1  A    between atoms: C_6  and  C_7
REMARK    2  A    between atoms: C_7  and  C_9
REMARK    3  A    between atoms: C_7  and  N_28
REMARK    4  A    between atoms: C_9  and  N_10
REMARK    5  A    between atoms: C_11  and  C_13
REMARK    6  A    between atoms: C_16  and  S_18
REMARK    7  A    between atoms: S_18  and  C_21
REMARK                            x       y       z     vdW  Elec       q    Type
REMARK                         _______ _______ _______ _____ _____    ______ ____
ROOT
ATOM      1  N   UNL     1      -1.871   0.009   2.275  0.00  0.00    -0.310 N 
ATOM      2  C   UNL     1      -2.160  -0.106   3.587  0.00  0.00    +0.279 C 
ATOM      3  O   UNL     1      -2.320  -1.207   4.080  0.00  0.00    -0.267 OA
ATOM      4  H   UNL     1      -1.744   0.887   1.882  0.00  0.00    +0.149 HD
ENDROOT
BRANCH   2   5
ATOM      5  C   UNL     1      -2.282   1.096   4.419  0.00  0.00    +0.192 A 
ATOM      6  C   UNL     1      -2.563   1.121   5.755  0.00  0.00    +0.056 A 
ATOM      7  C   UNL     1      -2.583   2.471   6.138  0.00  0.00    +0.070 A 
ATOM      8  C   UNL     1      -2.315   3.202   5.033  0.00  0.00    +0.246 A 
ATOM      9  O   UNL     1      -2.130   2.369   4.000  0.00  0.00    -0.433 OA
BRANCH   8  10
ATOM     10  S   UNL     1      -2.220   4.960   4.963  0.00  0.00    +0.058 S 
ATOM     11  O   UNL     1      -2.482   5.327   3.615  0.00  0.00    -0.161 OA
ATOM     12  O   UNL     1      -2.992   5.452   6.050  0.00  0.00    -0.161 OA
BRANCH  10  13
ATOM     13  C   UNL     1      -0.547   5.405   5.291  0.00  0.00    +0.097 A 
ATOM     14  C   UNL     1      -0.136   5.634   6.590  0.00  0.00    +0.029 A 
ATOM     15  C   UNL     1       1.177   5.983   6.849  0.00  0.00    +0.022 A 
ATOM     16  C   UNL     1       2.078   6.104   5.806  0.00  0.00    +0.041 A 
ATOM     17  C   UNL     1       1.665   5.874   4.505  0.00  0.00    +0.022 A 
ATOM     18  C   UNL     1       0.354   5.520   4.249  0.00  0.00    +0.029 A 
ATOM     19 CL   UNL     1       3.726   6.543   6.129  0.00  0.00    -0.084 Cl
ENDBRANCH  10  13
ENDBRANCH   8  10
ENDBRANCH   2   5
BRANCH   1  20
ATOM     20  C   UNL     1      -1.750  -1.191   1.444  0.00  0.00    +0.094 C 
BRANCH  20  21
ATOM     21  C   UNL     1      -1.290  -0.794   0.040  0.00  0.00    -0.020 C 
BRANCH  21  22
ATOM     22  N   UNL     1      -1.226  -1.990  -0.811  0.00  0.00    +0.385 N 
ATOM     23  C   UNL     1      -0.691  -1.604  -2.131  0.00  0.00    -0.078 C 
ATOM     24  C   UNL     1      -0.068  -2.822  -2.764  0.00  0.00    -0.019 C 
ATOM     25  C   UNL     1      -1.048  -3.524  -3.722  0.00  0.00    -0.002 C 
ATOM     26  C   UNL     1      -2.479  -3.564  -3.148  0.00  0.00    -0.002 C 
ATOM     27  C   UNL     1      -2.498  -3.882  -1.675  0.00  0.00    -0.019 C 
ATOM     28  C   UNL     1      -2.498  -2.562  -0.875  0.00  0.00    -0.078 C 
ATOM     29  H   UNL     1      -0.594  -2.653  -0.389  0.00  0.00    -0.081 HD
ENDBRANCH  21  22
BRANCH  21  35
ATOM     30  C   UNL     1       0.199   1.217   0.083  0.00  0.00    +0.003 A 
ATOM     31  C   UNL     1       1.451   1.800   0.155  0.00  0.00    +0.020 A 
ATOM     32  C   UNL     1       2.578   1.005   0.262  0.00  0.00    +0.041 A 
ATOM     33  C   UNL     1       2.453  -0.372   0.297  0.00  0.00    +0.020 A 
ATOM     34  C   UNL     1       1.201  -0.954   0.225  0.00  0.00    +0.003 A 
ATOM     35  C   UNL     1       0.074  -0.159   0.118  0.00  0.00    -0.059 A 
ATOM     36 CL   UNL     1       4.150   1.736   0.353  0.00  0.00    -0.084 Cl
ENDBRANCH  21  35
ENDBRANCH  20  21
ENDBRANCH   1  20
TORSDOF 7
