REMARK  Name = ZINC23686266
REMARK  7 active torsions:
REMARK  status: ('A' for Active; 'I' for Inactive)
REMARK    1  A    between atoms: C_1  and  C_2
REMARK    2  A    between atoms: C_3  and  C_30
REMARK    3  A    between atoms: C_5  and  N_25
REMARK    4  A    between atoms: C_6  and  C_7
REMARK    5  A    between atoms: N_9  and  C_10
REMARK    6  A    between atoms: C_14  and  S_16
REMARK    7  A    between atoms: S_16  and  N_19
REMARK                            x       y       z     vdW  Elec       q    Type
REMARK                         _______ _______ _______ _____ _____    ______ ____
ROOT
ATOM      1  C   UNL     1       3.698   0.543  -2.851  0.00  0.00    +0.036 A 
ATOM      2  C   UNL     1       2.838   0.844  -3.899  0.00  0.00    +0.023 A 
ATOM      3  C   UNL     1       1.963   1.907  -3.788  0.00  0.00    +0.004 A 
ATOM      4  C   UNL     1       1.942   2.670  -2.635  0.00  0.00    +0.029 A 
ATOM      5  C   UNL     1       2.797   2.372  -1.590  0.00  0.00    +0.110 A 
ATOM      6  C   UNL     1       3.679   1.314  -1.697  0.00  0.00    +0.052 A 
ENDROOT
BRANCH   1   9
ATOM      7  C   UNL     1       5.117  -0.849  -4.158  0.00  0.00    +0.251 C 
ATOM      8  O   UNL     1       4.900  -0.143  -5.126  0.00  0.00    -0.270 OA
ATOM      9  N   UNL     1       4.586  -0.532  -2.961  0.00  0.00    -0.281 N 
ATOM     10  H   UNL     1       4.851  -1.120  -2.069  0.00  0.00    +0.155 HD
BRANCH   7  16
ATOM     11  C   UNL     1       3.910  -3.506  -4.845  0.00  0.00    +0.045 C 
ATOM     12  C   UNL     1       5.391  -3.331  -4.626  0.00  0.00    -0.026 A 
ATOM     13  C   UNL     1       6.244  -4.367  -4.735  0.00  0.00    -0.008 A 
ATOM     14  S   UNL     1       7.827  -3.631  -4.381  0.00  0.00    -0.075 S 
ATOM     15  C   UNL     1       7.331  -1.995  -4.109  0.00  0.00    +0.097 A 
ATOM     16  C   UNL     1       5.955  -2.045  -4.296  0.00  0.00    +0.071 A 
ATOM     17  C   UNL     1       5.933  -5.803  -5.069  0.00  0.00    +0.052 C 
BRANCH  15  18
ATOM     18  N   UNL     1       8.119  -0.896  -3.783  0.00  0.00    -0.317 N 
ATOM     19  C   UNL     1       7.667   0.379  -3.587  0.00  0.00    +0.092 A 
ATOM     20  C   UNL     1       8.725   1.158  -3.286  0.00  0.00    +0.019 A 
ATOM     21  C   UNL     1       9.874   0.340  -3.306  0.00  0.00    +0.019 A 
ATOM     22  C   UNL     1       9.475  -0.910  -3.612  0.00  0.00    +0.092 A 
ENDBRANCH  15  18
ENDBRANCH   7  16
ENDBRANCH   1   9
BRANCH   5  23
ATOM     23  S   UNL     1       2.766   3.348  -0.123  0.00  0.00    +0.073 S 
ATOM     24  O   UNL     1       2.238   4.615  -0.489  0.00  0.00    -0.150 OA
ATOM     25  O   UNL     1       4.040   3.201   0.489  0.00  0.00    -0.150 OA
BRANCH  23  26
ATOM     26  N   UNL     1       1.667   2.655   0.903  0.00  0.00    -0.205 N 
ATOM     27  C   UNL     1       1.896   1.402   1.409  0.00  0.00    +0.088 C 
ATOM     28  N   UNL     1       2.934   0.689   1.145  0.00  0.00    -0.375 N 
ATOM     29  C   UNL     1       2.908  -0.608   1.831  0.00  0.00    +0.114 C 
ATOM     30  C   UNL     1       1.442  -0.796   2.285  0.00  0.00    +0.028 C 
ATOM     31  C   UNL     1       0.966   0.677   2.356  0.00  0.00    +0.072 C 
ATOM     32  H   UNL     1       0.752   3.200   1.179  0.00  0.00    +0.175 HD
ATOM     33  H   UNL     1       3.712   1.077   0.470  0.00  0.00    +0.161 HD
ENDBRANCH  23  26
ENDBRANCH   5  23
TORSDOF 5
