REMARK  Name = ZINC18198753
REMARK  8 active torsions:
REMARK  status: ('A' for Active; 'I' for Inactive)
REMARK    1  A    between atoms: C_1  and  C_2
REMARK    2  A    between atoms: N_5  and  C_7
REMARK    3  A    between atoms: C_12  and  C_13
REMARK    4  A    between atoms: C_18  and  C_20
REMARK    5  A    between atoms: C_23  and  C_26
REMARK    6  A    between atoms: C_26  and  C_27
REMARK    7  A    between atoms: C_26  and  C_28
REMARK    8  A    between atoms: C_32  and  C_35
REMARK                            x       y       z     vdW  Elec       q    Type
REMARK                         _______ _______ _______ _____ _____    ______ ____
ROOT
ATOM      1  C   UNL     1       2.313  -0.266  -3.000  0.00  0.00    +0.068 C 
ATOM      2  C   UNL     1       3.225   0.847  -2.553  0.00  0.00    +0.066 A 
ATOM      3  C   UNL     1       3.158   1.515  -1.338  0.00  0.00    +0.027 A 
ATOM      4  C   UNL     1       4.158   2.450  -1.317  0.00  0.00    +0.131 A 
ATOM      5  N   UNL     1       4.824   2.366  -2.489  0.00  0.00    -0.217 N 
ATOM      6  N   UNL     1       4.219   1.350  -3.247  0.00  0.00    -0.170 NA
ATOM      7  N   UNL     1       4.353   3.277  -0.218  0.00  0.00    -0.302 N 
ATOM      8  C   UNL     1       3.740   2.947   0.965  0.00  0.00    +0.017 C 
ATOM      9  C   UNL     1       2.734   2.049   1.032  0.00  0.00    +0.024 C 
ATOM     10  C   UNL     1       2.206   1.329  -0.191  0.00  0.00    +0.089 C 
ATOM     11  C   UNL     1       2.123   1.739   2.260  0.00  0.00    +0.162 C 
ATOM     12  O   UNL     1       1.226   0.920   2.287  0.00  0.00    -0.292 OA
ATOM     13  C   UNL     1       2.554   2.399   3.540  0.00  0.00    +0.088 C 
ATOM     14  C   UNL     1       3.106   3.792   3.218  0.00  0.00    +0.039 C 
ATOM     15  C   UNL     1       4.248   3.635   2.212  0.00  0.00    +0.060 C 
ATOM     16  H   UNL     1       4.910   4.068  -0.284  0.00  0.00    +0.153 HD
ENDROOT
BRANCH   5  17
ATOM     17  C   UNL     1       5.914   3.147  -2.876  0.00  0.00    +0.082 A 
ATOM     18  C   UNL     1       7.066   3.168  -2.103  0.00  0.00    +0.029 A 
ATOM     19  C   UNL     1       8.146   3.936  -2.490  0.00  0.00    +0.002 A 
ATOM     20  C   UNL     1       8.084   4.700  -3.645  0.00  0.00    +0.001 A 
ATOM     21  C   UNL     1       6.946   4.696  -4.422  0.00  0.00    +0.017 A 
ATOM     22  C   UNL     1       5.848   3.919  -4.045  0.00  0.00    +0.089 A 
BRANCH  22  23
ATOM     23  C   UNL     1       4.627   3.909  -4.872  0.00  0.00    +0.389 C 
ATOM     24  O   UNL     1       3.637   3.320  -4.487  0.00  0.00    -0.241 OA
ATOM     25  O   UNL     1       4.610   4.555  -6.055  0.00  0.00    -0.241 OA
ENDBRANCH  22  23
ENDBRANCH   5  17
BRANCH  10  26
ATOM     26  C   UNL     1       0.858   1.891  -0.561  0.00  0.00    -0.035 A 
ATOM     27  C   UNL     1      -0.254   1.069  -0.576  0.00  0.00    +0.005 A 
ATOM     28  C   UNL     1      -1.489   1.584  -0.920  0.00  0.00    +0.004 A 
ATOM     29  C   UNL     1      -1.615   2.923  -1.240  0.00  0.00    -0.045 A 
ATOM     30  C   UNL     1      -0.504   3.745  -1.225  0.00  0.00    +0.004 A 
ATOM     31  C   UNL     1       0.732   3.229  -0.885  0.00  0.00    +0.005 A 
BRANCH  29  32
ATOM     32  C   UNL     1      -2.963   3.485  -1.611  0.00  0.00    +0.013 C 
ATOM     33  C   UNL     1      -3.499   2.754  -2.844  0.00  0.00    +0.012 C 
ATOM     34  C   UNL     1      -3.934   3.295  -0.444  0.00  0.00    +0.012 C 
ENDBRANCH  29  32
ENDBRANCH  10  26
BRANCH  14  35
ATOM     35  C   UNL     1       3.623   4.438   4.477  0.00  0.00    -0.006 A 
ATOM     36  C   UNL     1       3.233   5.595   5.065  0.00  0.00    +0.011 A 
ATOM     37  C   UNL     1       3.853   5.996   6.234  0.00  0.00    +0.008 A 
ATOM     38  C   UNL     1       4.840   5.224   6.752  0.00  0.00    +0.045 A 
ATOM     39  S   UNL     1       4.913   3.881   5.579  0.00  0.00    -0.101 S 
ENDBRANCH  14  35
TORSDOF 5
