REMARK  Name = ZINC39662739
REMARK  6 active torsions:
REMARK  status: ('A' for Active; 'I' for Inactive)
REMARK    1  A    between atoms: C_6  and  C_7
REMARK    2  A    between atoms: C_7  and  C_8
REMARK    3  A    between atoms: C_12  and  C_21
REMARK    4  A    between atoms: N_23  and  C_24
REMARK    5  A    between atoms: C_24  and  C_25
REMARK    6  A    between atoms: C_28  and  C_31
REMARK                            x       y       z     vdW  Elec       q    Type
REMARK                         _______ _______ _______ _____ _____    ______ ____
ROOT
ATOM      1  C   UNL     1      -1.707  -1.140  -1.115  0.00  0.00    +0.220 C 
ATOM      2  O   UNL     1      -0.959  -0.725  -1.975  0.00  0.00    -0.275 OA
ATOM      3  N   UNL     1      -2.848  -1.769  -1.461  0.00  0.00    -0.300 N 
ATOM      4  C   UNL     1      -3.882  -2.333  -0.562  0.00  0.00    +0.121 C 
ATOM      5  C   UNL     1      -5.224  -1.994  -1.249  0.00  0.00    +0.100 C 
ATOM      6  C   UNL     1      -4.870  -1.812  -2.734  0.00  0.00    -0.004 C 
ATOM      7  C   UNL     1      -3.355  -2.046  -2.826  0.00  0.00    +0.115 C 
ATOM      8  C   UNL     1      -5.207  -0.395  -3.188  0.00  0.00    -0.010 C 
ATOM      9  C   UNL     1      -4.899  -0.256  -4.682  0.00  0.00    -0.082 C 
ATOM     10  N   UNL     1      -5.689  -1.234  -5.439  0.00  0.00    +0.379 N 
ATOM     11  C   UNL     1      -5.292  -2.597  -5.062  0.00  0.00    -0.082 C 
ATOM     12  C   UNL     1      -5.616  -2.835  -3.585  0.00  0.00    -0.010 C 
ATOM     13  H   UNL     1      -6.668  -1.103  -5.237  0.00  0.00    -0.086 HD
ATOM     14  H   UNL     1      -5.531  -1.101  -6.426  0.00  0.00    -0.086 HD
ENDROOT
BRANCH   5  15
ATOM     15  C   UNL     1      -5.795  -0.719  -0.683  0.00  0.00    +0.218 C 
ATOM     16  O   UNL     1      -5.053   0.144  -0.263  0.00  0.00    -0.275 OA
ATOM     17  N   UNL     1      -7.130  -0.537  -0.644  0.00  0.00    -0.315 N 
ATOM     18  H   UNL     1      -7.723  -1.227  -0.979  0.00  0.00    +0.149 HD
BRANCH  17  19
ATOM     19  C   UNL     1      -7.684   0.702  -0.094  0.00  0.00    +0.107 C 
BRANCH  19  20
ATOM     20  C   UNL     1      -9.212   0.653  -0.166  0.00  0.00    +0.006 C 
ATOM     21  C   UNL     1      -9.730  -0.461   0.745  0.00  0.00    +0.006 C 
ATOM     22  C   UNL     1     -11.258  -0.510   0.672  0.00  0.00    +0.015 C 
ATOM     23  C   UNL     1     -11.833   0.832   1.130  0.00  0.00    +0.102 C 
ATOM     24  C   UNL     1     -11.315   1.946   0.219  0.00  0.00    +0.015 C 
ATOM     25  C   UNL     1      -9.787   1.995   0.291  0.00  0.00    +0.006 C 
BRANCH  23  26
ATOM     26  C   UNL     1     -13.338   0.784   1.058  0.00  0.00    +0.359 C 
ATOM     27  O   UNL     1     -14.007   1.298   1.939  0.00  0.00    -0.246 OA
ATOM     28  O   UNL     1     -13.886   0.231   0.120  0.00  0.00    -0.246 OA
ENDBRANCH  23  26
ENDBRANCH  19  20
ENDBRANCH  17  19
ENDBRANCH   5  15
BRANCH   1  29
ATOM     29  C   UNL     1      -1.362  -0.952   0.339  0.00  0.00    +0.131 C 
BRANCH  29  35
ATOM     30  C   UNL     1      -0.021   1.155   0.507  0.00  0.00    +0.005 A 
ATOM     31  C   UNL     1       1.185   1.822   0.612  0.00  0.00    +0.020 A 
ATOM     32  C   UNL     1       2.368   1.106   0.663  0.00  0.00    +0.041 A 
ATOM     33  C   UNL     1       2.343  -0.276   0.609  0.00  0.00    +0.020 A 
ATOM     34  C   UNL     1       1.136  -0.941   0.504  0.00  0.00    +0.005 A 
ATOM     35  C   UNL     1      -0.046  -0.226   0.453  0.00  0.00    -0.039 A 
ATOM     36 CL   UNL     1       3.884   1.942   0.794  0.00  0.00    -0.084 Cl
ENDBRANCH  29  35
ENDBRANCH   1  29
TORSDOF 6
