REMARK  Name = ZINC44021847
REMARK  6 active torsions:
REMARK  status: ('A' for Active; 'I' for Inactive)
REMARK    1  A    between atoms: C_1  and  C_2
REMARK    2  A    between atoms: C_2  and  C_3
REMARK    3  A    between atoms: C_2  and  C_4
REMARK    4  A    between atoms: C_4  and  N_5
REMARK    5  A    between atoms: C_9  and  N_14
REMARK    6  A    between atoms: N_14  and  C_15
REMARK                            x       y       z     vdW  Elec       q    Type
REMARK                         _______ _______ _______ _____ _____    ______ ____
ROOT
ATOM      1  N   UNL     1      -1.388  -1.995  -0.089  0.00  0.00    -0.261 N 
ATOM      2  C   UNL     1      -1.575  -2.552  -1.302  0.00  0.00    +0.258 A 
ATOM      3  O   UNL     1      -1.748  -1.846  -2.281  0.00  0.00    -0.267 OA
ATOM      4  C   UNL     1      -1.571  -3.950  -1.431  0.00  0.00    +0.112 A 
ATOM      5  C   UNL     1      -1.376  -4.719  -0.318  0.00  0.00    +0.109 A 
ATOM      6  N   UNL     1      -1.188  -4.109   0.899  0.00  0.00    -0.296 N 
ATOM      7  H   UNL     1      -1.049  -4.648   1.693  0.00  0.00    +0.172 HD
ATOM      8  C   UNL     1      -1.191  -2.766   0.995  0.00  0.00    +0.331 A 
ATOM      9  O   UNL     1      -1.019  -2.243   2.079  0.00  0.00    -0.246 OA
ENDROOT
BRANCH   5  10
ATOM     10  N   UNL     1      -1.367  -6.088  -0.414  0.00  0.00    -0.300 N 
ATOM     11  H   UNL     1      -0.743  -6.528  -1.012  0.00  0.00    +0.154 HD
BRANCH  10  12
ATOM     12  C   UNL     1      -2.259  -6.848   0.349  0.00  0.00    +0.052 A 
ATOM     13  C   UNL     1      -3.234  -6.219   1.112  0.00  0.00    +0.044 A 
ATOM     14  C   UNL     1      -4.114  -6.974   1.865  0.00  0.00    +0.043 A 
ATOM     15  C   UNL     1      -4.024  -8.355   1.859  0.00  0.00    +0.021 A 
ATOM     16  C   UNL     1      -3.055  -8.984   1.100  0.00  0.00    +0.023 A 
ATOM     17  C   UNL     1      -2.175  -8.236   0.341  0.00  0.00    +0.062 A 
ATOM     18 CL   UNL     1      -0.963  -9.027  -0.617  0.00  0.00    -0.082 Cl
ATOM     19 CL   UNL     1      -5.333  -6.188   2.820  0.00  0.00    -0.083 Cl
ENDBRANCH  10  12
ENDBRANCH   5  10
BRANCH   1  20
ATOM     20  C   UNL     1      -1.391  -0.536   0.048  0.00  0.00    +0.133 C 
BRANCH  20  22
ATOM     21  C   UNL     1       0.006   1.528  -0.123  0.00  0.00    +0.009 C 
ATOM     22  C   UNL     1       0.029  -0.002  -0.143  0.00  0.00    +0.003 C 
ATOM     23  C   UNL     1       0.923  -0.513   0.989  0.00  0.00    +0.009 C 
ENDBRANCH  20  22
ENDBRANCH   1  20
TORSDOF 4
