REMARK  Name = ZINC12904070
REMARK  3 active torsions:
REMARK  status: ('A' for Active; 'I' for Inactive)
REMARK    1  A    between atoms: C_1  and  C_2
REMARK    2  A    between atoms: C_10  and  C_11
REMARK    3  A    between atoms: C_11  and  C_13
REMARK                            x       y       z     vdW  Elec       q    Type
REMARK                         _______ _______ _______ _____ _____    ______ ____
ROOT
ATOM      1  C   UNL     1      -3.575   4.246   0.043  0.00  0.00    +0.048 C 
ATOM      2  C   UNL     1      -2.103   4.571   0.037  0.00  0.00    +0.006 A 
ATOM      3  C   UNL     1      -1.496   5.901   0.042  0.00  0.00    +0.025 A 
ATOM      4  C   UNL     1      -2.003   7.203   0.051  0.00  0.00    +0.027 A 
ATOM      5  C   UNL     1      -1.143   8.265   0.053  0.00  0.00    +0.019 A 
ATOM      6  C   UNL     1       0.230   8.058   0.045  0.00  0.00    +0.019 A 
ATOM      7  C   UNL     1       0.750   6.781   0.036  0.00  0.00    +0.048 A 
ATOM      8  C   UNL     1      -0.105   5.686   0.034  0.00  0.00    +0.136 A 
ATOM      9  O   UNL     1       0.101   4.354   0.031  0.00  0.00    -0.451 OA
ATOM     10  C   UNL     1      -1.071   3.686   0.027  0.00  0.00    +0.180 A 
ATOM     11 BR   UNL     1      -1.827  10.028   0.064  0.00  0.00    -0.050 Br
ENDROOT
BRANCH  10  12
ATOM     12  C   UNL     1      -1.211   2.223   0.020  0.00  0.00    +0.244 C 
ATOM     13  O   UNL     1      -2.319   1.717   0.023  0.00  0.00    -0.282 OA
BRANCH  12  14
ATOM     14  C   UNL     1      -0.017   1.372   0.010  0.00  0.00    +0.090 A 
ATOM     15  C   UNL     1       1.294   1.806  -0.001  0.00  0.00    +0.031 A 
ATOM     16  C   UNL     1       2.103   0.666  -0.014  0.00  0.00    +0.020 A 
ATOM     17  C   UNL     1       1.293  -0.420  -0.013  0.00  0.00    +0.083 A 
ATOM     18  N   UNL     1       0.002  -0.004   0.002  0.00  0.00    -0.358 N 
ATOM     19  H   UNL     1      -0.778  -0.581   0.006  0.00  0.00    +0.165 HD
ENDBRANCH  12  14
ENDBRANCH  10  12
TORSDOF 2
