REMARK  Name = ZINC44366266
REMARK  4 active torsions:
REMARK  status: ('A' for Active; 'I' for Inactive)
REMARK    1  A    between atoms: C_1  and  C_2
REMARK    2  A    between atoms: C_2  and  N_8
REMARK    3  A    between atoms: C_9  and  C_11
REMARK    4  A    between atoms: C_15  and  N_17
REMARK                            x       y       z     vdW  Elec       q    Type
REMARK                         _______ _______ _______ _____ _____    ______ ____
ROOT
ATOM      1  N   UNL     1       0.688  -0.476  -1.203  0.00  0.00    -0.306 N 
ATOM      2  C   UNL     1       0.211  -0.151  -2.421  0.00  0.00    +0.245 C 
ATOM      3  O   UNL     1      -0.787   0.535  -2.519  0.00  0.00    -0.270 OA
ATOM      4  H   UNL     1       1.485  -1.024  -1.125  0.00  0.00    +0.150 HD
ENDROOT
BRANCH   1   6
ATOM      5  C   UNL     1      -0.019   1.526   0.010  0.00  0.00    +0.031 C 
ATOM      6  C   UNL     1       0.002  -0.004   0.002  0.00  0.00    +0.032 C 
ATOM      7  C   UNL     1      -1.433  -0.534   0.013  0.00  0.00    +0.025 C 
ATOM      8  C   UNL     1      -1.413  -2.063   0.004  0.00  0.00    +0.002 C 
ATOM      9  C   UNL     1      -0.673  -2.570   1.244  0.00  0.00    +0.000 C 
ATOM     10  C   UNL     1       0.763  -2.041   1.233  0.00  0.00    +0.002 C 
ATOM     11  C   UNL     1       0.742  -0.511   1.242  0.00  0.00    +0.025 C 
ENDBRANCH   1   6
BRANCH   2  12
ATOM     12  C   UNL     1       0.903  -0.627  -3.637  0.00  0.00    +0.039 A 
ATOM     13  C   UNL     1       2.047  -1.420  -3.527  0.00  0.00    +0.014 A 
ATOM     14  C   UNL     1       2.688  -1.862  -4.666  0.00  0.00    +0.018 A 
ATOM     15  C   UNL     1       2.199  -1.521  -5.916  0.00  0.00    +0.048 A 
ATOM     16  C   UNL     1       1.065  -0.735  -6.031  0.00  0.00    +0.141 A 
ATOM     17  C   UNL     1       0.412  -0.291  -4.900  0.00  0.00    +0.047 A 
ATOM     18 BR   UNL     1       3.084  -2.131  -7.472  0.00  0.00    -0.048 Br
BRANCH  16  19
ATOM     19  N   UNL     1       0.550  -0.373  -7.371  0.00  0.00    +0.058 N 
ATOM     20  O   UNL     1      -0.440   0.313  -7.473  0.00  0.00    -0.126 OA
ATOM     21  O   UNL     1       1.119  -0.765  -8.363  0.00  0.00    -0.126 OA
ENDBRANCH  16  19
ENDBRANCH   2  12
TORSDOF 3
