REMARK  Name = ZINC05374529
REMARK  3 active torsions:
REMARK  status: ('A' for Active; 'I' for Inactive)
REMARK    1  A    between atoms: C_5  and  N_7
REMARK    2  A    between atoms: C_13  and  C_14
REMARK    3  A    between atoms: C_15  and  C_16
REMARK                            x       y       z     vdW  Elec       q    Type
REMARK                         _______ _______ _______ _____ _____    ______ ____
ROOT
ATOM      1  N   UNL     1       1.217   3.402   0.008  0.00  0.00    -0.293 N 
ATOM      2  C   UNL     1       1.103   2.039  -0.105  0.00  0.00    +0.156 C 
ATOM      3  N   UNL     1       0.028   1.326  -0.398  0.00  0.00    -0.154 NA
ATOM      4  C   UNL     1       0.053   0.013  -0.477  0.00  0.00    +0.276 C 
ATOM      5  O   UNL     1      -0.947  -0.635  -0.748  0.00  0.00    -0.267 OA
ATOM      6  C   UNL     1       1.353  -0.637  -0.219  0.00  0.00    +0.079 C 
ATOM      7  C   UNL     1       1.689  -1.973  -0.227  0.00  0.00    +0.020 C 
ATOM      8  S   UNL     1       2.370   0.798   0.107  0.00  0.00    -0.051 S 
ATOM      9  H   UNL     1       2.088   3.805   0.151  0.00  0.00    +0.154 HD
ENDROOT
BRANCH   1  14
ATOM     10  C   UNL     1      -2.308   4.434  -0.162  0.00  0.00    +0.002 A 
ATOM     11  C   UNL     1      -2.176   5.807  -0.260  0.00  0.00    +0.003 A 
ATOM     12  C   UNL     1      -0.920   6.385  -0.269  0.00  0.00    +0.040 A 
ATOM     13  C   UNL     1       0.208   5.591  -0.175  0.00  0.00    +0.144 A 
ATOM     14  C   UNL     1       0.078   4.209  -0.082  0.00  0.00    +0.068 A 
ATOM     15  C   UNL     1      -1.185   3.634  -0.073  0.00  0.00    +0.026 A 
ATOM     16  F   UNL     1       1.436   6.156  -0.179  0.00  0.00    -0.204 F 
ENDBRANCH   1  14
BRANCH   7  17
ATOM     17  C   UNL     1       3.006  -2.367   0.052  0.00  0.00    +0.005 C 
ATOM     18  C   UNL     1       3.338  -3.688   0.044  0.00  0.00    +0.046 C 
BRANCH  18  19
ATOM     19  C   UNL     1       4.666  -4.084   0.324  0.00  0.00    +0.128 A 
ATOM     20  C   UNL     1       5.140  -5.382   0.351  0.00  0.00    +0.049 A 
ATOM     21  C   UNL     1       6.504  -5.302   0.669  0.00  0.00    +0.042 A 
ATOM     22  C   UNL     1       6.803  -3.993   0.821  0.00  0.00    +0.195 A 
ATOM     23  O   UNL     1       5.698  -3.263   0.608  0.00  0.00    -0.464 OA
ENDBRANCH  18  19
ENDBRANCH   7  17
TORSDOF 3
