REMARK  Name = ZINC60156012
REMARK  11 active torsions:
REMARK  status: ('A' for Active; 'I' for Inactive)
REMARK    1  A    between atoms: C_1  and  C_2
REMARK    2  A    between atoms: C_5  and  C_8
REMARK    3  A    between atoms: C_8  and  C_10
REMARK    4  A    between atoms: C_8  and  N_34
REMARK    5  A    between atoms: C_10  and  N_11
REMARK    6  A    between atoms: C_12  and  C_14
REMARK    7  A    between atoms: C_17  and  C_20
REMARK    8  A    between atoms: C_20  and  N_21
REMARK    9  A    between atoms: C_22  and  C_24
REMARK   10  A    between atoms: N_34  and  C_35
REMARK   11  A    between atoms: N_34  and  C_36
REMARK                            x       y       z     vdW  Elec       q    Type
REMARK                         _______ _______ _______ _____ _____    ______ ____
ROOT
ATOM      1  C   UNL     1      -2.068  -8.604   0.586  0.00  0.00    +0.037 A 
ATOM      2  C   UNL     1      -0.826  -9.197   0.356  0.00  0.00    +0.013 A 
ATOM      3  C   UNL     1      -0.712 -10.572   0.350  0.00  0.00    +0.006 A 
ATOM      4  C   UNL     1      -1.825 -11.363   0.572  0.00  0.00    -0.030 A 
ATOM      5  C   UNL     1      -3.060 -10.781   0.800  0.00  0.00    +0.006 A 
ATOM      6  C   UNL     1      -3.187  -9.407   0.815  0.00  0.00    +0.013 A 
ENDROOT
BRANCH   1   8
ATOM      7  N   UNL     1      -1.116  -6.359   0.374  0.00  0.00    -0.313 N 
ATOM      8  C   UNL     1      -2.197  -7.131   0.595  0.00  0.00    +0.244 C 
ATOM      9  O   UNL     1      -3.280  -6.617   0.800  0.00  0.00    -0.270 OA
ATOM     10  H   UNL     1      -0.252  -6.769   0.210  0.00  0.00    +0.149 HD
BRANCH   7  11
ATOM     11  C   UNL     1      -1.244  -4.899   0.382  0.00  0.00    +0.094 C 
BRANCH  11  12
ATOM     12  C   UNL     1       0.090  -4.268  -0.022  0.00  0.00    -0.021 C 
BRANCH  12  17
ATOM     13  C   UNL     1       1.298  -5.663  -5.498  0.00  0.00    +0.044 C 
ATOM     14  C   UNL     1       0.983  -5.299  -4.070  0.00  0.00    -0.050 A 
ATOM     15  C   UNL     1       1.585  -5.987  -3.033  0.00  0.00    +0.003 A 
ATOM     16  C   UNL     1       1.296  -5.653  -1.722  0.00  0.00    +0.002 A 
ATOM     17  C   UNL     1       0.406  -4.631  -1.450  0.00  0.00    -0.059 A 
ATOM     18  C   UNL     1      -0.195  -3.943  -2.487  0.00  0.00    +0.002 A 
ATOM     19  C   UNL     1       0.097  -4.274  -3.797  0.00  0.00    +0.003 A 
ENDBRANCH  12  17
BRANCH  12  20
ATOM     20  N   UNL     1      -0.002  -2.807   0.103  0.00  0.00    +0.382 N 
ATOM     21  C   UNL     1      -0.292  -2.452   1.498  0.00  0.00    -0.096 C 
ATOM     22  C   UNL     1       1.273  -2.200  -0.302  0.00  0.00    -0.096 C 
ATOM     23  H   UNL     1      -0.742  -2.465  -0.492  0.00  0.00    -0.082 HD
ENDBRANCH  12  20
ENDBRANCH  11  12
ENDBRANCH   7  11
ENDBRANCH   1   8
BRANCH   4  24
ATOM     24  C   UNL     1      -1.694 -12.864   0.563  0.00  0.00    +0.139 C 
BRANCH  24  25
ATOM     25  N   UNL     1      -1.392 -13.335   1.917  0.00  0.00    -0.311 N 
ATOM     26  C   UNL     1      -1.230 -14.652   2.152  0.00  0.00    +0.219 C 
ATOM     27  O   UNL     1      -1.334 -15.447   1.242  0.00  0.00    -0.275 OA
ATOM     28  H   UNL     1      -1.309 -12.699   2.645  0.00  0.00    +0.149 HD
BRANCH  26  29
ATOM     29  C   UNL     1      -0.920 -15.137   3.545  0.00  0.00    +0.048 C 
ATOM     30  C   UNL     1       0.393 -14.512   4.022  0.00  0.00    +0.019 C 
ATOM     31  C   UNL     1       0.707 -15.004   5.436  0.00  0.00    -0.009 C 
ATOM     32  C   UNL     1       0.841 -16.529   5.428  0.00  0.00    +0.007 C 
ATOM     33  C   UNL     1      -0.471 -17.153   4.951  0.00  0.00    -0.009 C 
ATOM     34  C   UNL     1      -0.786 -16.661   3.537  0.00  0.00    +0.019 C 
ATOM     35  C   UNL     1      -1.603 -16.746   5.896  0.00  0.00    +0.007 C 
ATOM     36  C   UNL     1      -1.737 -15.222   5.904  0.00  0.00    -0.009 C 
ATOM     37  C   UNL     1      -0.425 -14.597   6.381  0.00  0.00    +0.007 C 
ATOM     38  C   UNL     1      -2.052 -14.730   4.490  0.00  0.00    +0.019 C 
ENDBRANCH  26  29
ENDBRANCH  24  25
ENDBRANCH   4  24
TORSDOF 8
