REMARK  Name = ZINC63295767
REMARK  5 active torsions:
REMARK  status: ('A' for Active; 'I' for Inactive)
REMARK    1  A    between atoms: C_4  and  C_7
REMARK    2  A    between atoms: C_7  and  C_8
REMARK    3  A    between atoms: C_14  and  C_16
REMARK    4  A    between atoms: C_16  and  C_17
REMARK    5  A    between atoms: C_17  and  N_18
REMARK                            x       y       z     vdW  Elec       q    Type
REMARK                         _______ _______ _______ _____ _____    ______ ____
ROOT
ATOM      1  N   UNL     1      10.606  -1.847   4.951  0.00  0.00    -0.299 N 
ATOM      2  C   UNL     1      11.754  -1.538   5.586  0.00  0.00    +0.302 C 
ATOM      3  O   UNL     1      11.895  -0.441   6.088  0.00  0.00    -0.253 OA
ATOM      4  N   UNL     1      12.747  -2.447   5.663  0.00  0.00    -0.283 N 
ATOM      5  C   UNL     1      12.619  -3.723   4.951  0.00  0.00    +0.114 C 
ATOM      6  C   UNL     1      13.803  -3.889   3.981  0.00  0.00    +0.052 C 
ATOM      7  C   UNL     1      15.047  -3.509   4.747  0.00  0.00    -0.036 C 
ATOM      8  C   UNL     1      16.196  -4.147   4.927  0.00  0.00    -0.001 A 
ATOM      9  C   UNL     1      16.720  -5.401   4.361  0.00  0.00    +0.010 A 
ATOM     10  C   UNL     1      17.954  -5.781   4.786  0.00  0.00    +0.001 A 
ATOM     11  C   UNL     1      18.710  -5.048   5.706  0.00  0.00    +0.002 A 
ATOM     12  C   UNL     1      18.310  -3.881   6.271  0.00  0.00    +0.026 A 
ATOM     13  C   UNL     1      17.032  -3.374   5.896  0.00  0.00    +0.043 A 
ATOM     14  N   UNL     1      16.420  -2.286   6.257  0.00  0.00    -0.376 N 
ATOM     15  C   UNL     1      15.157  -2.201   5.522  0.00  0.00    +0.124 C 
ATOM     16  C   UNL     1      13.949  -2.146   6.455  0.00  0.00    +0.138 C 
ATOM     17  H   UNL     1      10.521  -2.695   4.487  0.00  0.00    +0.150 HD
ATOM     18  H   UNL     1      16.744  -1.640   6.904  0.00  0.00    +0.160 HD
ENDROOT
BRANCH   1  19
ATOM     19  C   UNL     1       9.487  -0.902   4.961  0.00  0.00    +0.115 C 
BRANCH  19  20
ATOM     20  C   UNL     1       8.314  -1.492   4.174  0.00  0.00    +0.114 C 
BRANCH  20  27
ATOM     21  C   UNL     1       4.159  -0.975   1.420  0.00  0.00    -0.004 C 
ATOM     22  C   UNL     1       4.452   0.363   2.103  0.00  0.00    +0.023 C 
ATOM     23  C   UNL     1       4.883   0.109   3.551  0.00  0.00    +0.108 C 
ATOM     24  N   UNL     1       6.015  -0.829   3.550  0.00  0.00    -0.301 N 
ATOM     25  C   UNL     1       5.871  -2.109   2.843  0.00  0.00    +0.108 C 
ATOM     26  C   UNL     1       5.428  -1.830   1.403  0.00  0.00    +0.023 C 
ATOM     27  C   UNL     1       7.163  -0.520   4.184  0.00  0.00    +0.217 C 
ATOM     28  O   UNL     1       7.269   0.540   4.764  0.00  0.00    -0.276 OA
BRANCH  21  29
ATOM     29  C   UNL     1       3.694  -0.724  -0.016  0.00  0.00    +0.038 C 
BRANCH  29  33
ATOM     30  C   UNL     1      -0.033   1.363   0.036  0.00  0.00    +0.000 A 
ATOM     31  C   UNL     1       1.155   2.070   0.022  0.00  0.00    +0.000 A 
ATOM     32  C   UNL     1       2.361   1.394   0.006  0.00  0.00    +0.003 A 
ATOM     33  C   UNL     1       2.379   0.012   0.003  0.00  0.00    -0.047 A 
ATOM     34  C   UNL     1       1.192  -0.695   0.018  0.00  0.00    +0.003 A 
ATOM     35  C   UNL     1      -0.015  -0.020   0.033  0.00  0.00    +0.000 A 
ENDBRANCH  29  33
ENDBRANCH  21  29
ENDBRANCH  20  27
ENDBRANCH  19  20
ENDBRANCH   1  19
TORSDOF 5
