REMARK  Name = ZINC64622753
REMARK  8 active torsions:
REMARK  status: ('A' for Active; 'I' for Inactive)
REMARK    1  A    between atoms: C_1  and  N_2
REMARK    2  A    between atoms: N_16  and  C_17
REMARK    3  A    between atoms: C_17  and  C_18
REMARK    4  A    between atoms: C_18  and  C_19
REMARK    5  A    between atoms: C_19  and  C_20
REMARK    6  A    between atoms: N_22  and  C_23
REMARK    7  A    between atoms: C_23  and  C_24
REMARK    8  A    between atoms: C_24  and  C_25
REMARK                            x       y       z     vdW  Elec       q    Type
REMARK                         _______ _______ _______ _____ _____    ______ ____
ROOT
ATOM      1  C   UNL     1      -4.130  -1.552  -0.941  0.00  0.00    +0.028 C 
ENDROOT
BRANCH   1   2
ATOM      2  C   UNL     1      -3.557  -2.720  -0.136  0.00  0.00    +0.107 C 
BRANCH   2  17
ATOM      3  C   UNL     1      -1.865  -7.702  -1.666  0.00  0.00    +0.156 C 
ATOM      4  N   UNL     1      -1.440  -6.305  -1.787  0.00  0.00    -0.224 N 
ATOM      5  C   UNL     1      -2.199  -5.291  -1.275  0.00  0.00    +0.256 C 
ATOM      6  O   UNL     1      -3.228  -5.503  -0.669  0.00  0.00    -0.272 OA
ATOM      7  C   UNL     1      -1.681  -3.892  -1.508  0.00  0.00    +0.194 C 
ATOM      8  C   UNL     1      -0.169  -3.957  -1.324  0.00  0.00    +0.006 C 
ATOM      9  C   UNL     1       0.552  -4.973  -1.815  0.00  0.00    +0.094 C 
ATOM     10  N   UNL     1      -0.228  -5.965  -2.431  0.00  0.00    -0.269 N 
ATOM     11  C   UNL     1       0.169  -2.829  -0.474  0.00  0.00    +0.003 A 
ATOM     12  C   UNL     1       1.411  -2.295  -0.119  0.00  0.00    +0.010 A 
ATOM     13  C   UNL     1       1.409  -1.202   0.734  0.00  0.00    +0.001 A 
ATOM     14  C   UNL     1       0.234  -0.661   1.217  0.00  0.00    +0.002 A 
ATOM     15  C   UNL     1      -1.009  -1.173   0.873  0.00  0.00    +0.024 A 
ATOM     16  C   UNL     1      -1.036  -2.268   0.013  0.00  0.00    +0.038 A 
ATOM     17  N   UNL     1      -2.158  -2.933  -0.514  0.00  0.00    -0.314 N 
ATOM     18  H   UNL     1       0.051  -6.391  -3.256  0.00  0.00    +0.170 HD
ENDBRANCH   2  17
ENDBRANCH   1   2
BRANCH   1  19
ATOM     19  C   UNL     1      -5.551  -1.249  -0.459  0.00  0.00    +0.097 C 
BRANCH  19  20
ATOM     20  C   UNL     1      -6.115  -0.099  -1.252  0.00  0.00    +0.213 C 
ATOM     21  O   UNL     1      -5.447   0.427  -2.117  0.00  0.00    -0.276 OA
ATOM     22  N   UNL     1      -7.362   0.346  -1.000  0.00  0.00    -0.315 N 
ATOM     23  H   UNL     1      -7.897  -0.075  -0.308  0.00  0.00    +0.149 HD
BRANCH  22  24
ATOM     24  C   UNL     1      -7.911   1.464  -1.771  0.00  0.00    +0.108 C 
BRANCH  24  25
ATOM     25  C   UNL     1      -9.332   1.767  -1.289  0.00  0.00    +0.052 C 
BRANCH  25  26
ATOM     26  C   UNL     1      -9.896   2.917  -2.082  0.00  0.00    -0.040 C 
ATOM     27  C   UNL     1     -10.679   2.840  -3.183  0.00  0.00    -0.001 A 
ATOM     28  C   UNL     1     -11.217   1.705  -3.942  0.00  0.00    +0.010 A 
ATOM     29  C   UNL     1     -11.988   1.948  -5.027  0.00  0.00    +0.001 A 
ATOM     30  C   UNL     1     -12.285   3.253  -5.443  0.00  0.00    +0.002 A 
ATOM     31  C   UNL     1     -11.827   4.346  -4.796  0.00  0.00    +0.026 A 
ATOM     32  C   UNL     1     -11.007   4.208  -3.642  0.00  0.00    +0.043 A 
ATOM     33  N   UNL     1     -10.449   5.097  -2.856  0.00  0.00    -0.380 N 
ATOM     34  C   UNL     1      -9.708   4.392  -1.805  0.00  0.00    +0.144 C 
ATOM     35  H   UNL     1     -10.518   6.060  -2.952  0.00  0.00    +0.160 HD
ENDBRANCH  25  26
ENDBRANCH  24  25
ENDBRANCH  22  24
ENDBRANCH  19  20
ENDBRANCH   1  19
TORSDOF 7
