REMARK  Name = ZINC39035099
REMARK  8 active torsions:
REMARK  status: ('A' for Active; 'I' for Inactive)
REMARK    1  A    between atoms: C_1  and  C_2
REMARK    2  A    between atoms: C_2  and  C_3
REMARK    3  A    between atoms: C_3  and  C_4
REMARK    4  A    between atoms: C_6  and  C_12
REMARK    5  A    between atoms: C_7  and  O_11
REMARK    6  A    between atoms: C_9  and  O_10
REMARK    7  A    between atoms: C_14  and  C_19
REMARK    8  A    between atoms: C_15  and  C_18
REMARK                            x       y       z     vdW  Elec       q    Type
REMARK                         _______ _______ _______ _____ _____    ______ ____
ROOT
ATOM      1  C   UNL     1       3.153  -4.803   0.348  0.00  0.00    +0.164 C 
ATOM      2  C   UNL     1       3.073  -5.117  -1.136  0.00  0.00    +0.011 C 
ATOM      3  C   UNL     1       4.126  -4.445  -1.660  0.00  0.00    +0.064 C 
ATOM      4  N   UNL     1       4.795  -3.795  -0.701  0.00  0.00    -0.182 NA
ATOM      5  N   UNL     1       4.337  -3.932   0.440  0.00  0.00    -0.297 N 
ATOM      6  C   UNL     1       4.494  -4.433  -3.122  0.00  0.00    +0.068 C 
ATOM      7  H   UNL     1       4.692  -3.536   1.251  0.00  0.00    +0.183 HD
ENDROOT
BRANCH   2   8
ATOM      8  C   UNL     1       2.087  -5.953  -1.837  0.00  0.00    -0.014 A 
ATOM      9  C   UNL     1       0.744  -5.563  -1.885  0.00  0.00    +0.012 A 
ATOM     10  C   UNL     1      -0.176  -6.349  -2.541  0.00  0.00    +0.050 A 
ATOM     11  C   UNL     1       0.222  -7.530  -3.157  0.00  0.00    +0.162 A 
ATOM     12  C   UNL     1       1.558  -7.923  -3.116  0.00  0.00    +0.163 A 
ATOM     13  C   UNL     1       2.489  -7.137  -2.463  0.00  0.00    +0.057 A 
ATOM     14  O   UNL     1       1.964  -9.073  -3.721  0.00  0.00    -0.485 OA
ATOM     15  C   UNL     1       0.944 -10.021  -4.052  0.00  0.00    +0.270 C 
ATOM     16  C   UNL     1      -0.214  -9.268  -4.720  0.00  0.00    +0.270 C 
ATOM     17  O   UNL     1      -0.707  -8.292  -3.796  0.00  0.00    -0.485 OA
ENDBRANCH   2   8
BRANCH   1  20
ATOM     18  C   UNL     1       0.762  -2.018   1.233  0.00  0.00    -0.005 A 
ATOM     19  C   UNL     1       1.895  -2.691   0.815  0.00  0.00    +0.016 A 
ATOM     20  C   UNL     1       1.917  -4.072   0.806  0.00  0.00    +0.023 A 
ATOM     21  C   UNL     1       0.801  -4.787   1.218  0.00  0.00    +0.126 A 
ATOM     22  C   UNL     1      -0.336  -4.115   1.638  0.00  0.00    +0.091 A 
ATOM     23  C   UNL     1      -0.353  -2.728   1.651  0.00  0.00    +0.123 A 
BRANCH  23  24
ATOM     24  O   UNL     1      -1.464  -2.066   2.068  0.00  0.00    -0.506 OA
ATOM     25  H   UNL     1      -2.096  -1.874   1.362  0.00  0.00    +0.292 HD
ENDBRANCH  23  24
BRANCH  21  26
ATOM     26  O   UNL     1       0.823  -6.146   1.208  0.00  0.00    -0.506 OA
ATOM     27  H   UNL     1       1.135  -6.540   2.034  0.00  0.00    +0.292 HD
ENDBRANCH  21  26
BRANCH  18  28
ATOM     28  C   UNL     1       0.742  -0.511   1.242  0.00  0.00    +0.038 C 
BRANCH  28  30
ATOM     29  C   UNL     1      -0.019   1.526   0.010  0.00  0.00    +0.004 C 
ATOM     30  C   UNL     1       0.002  -0.004   0.002  0.00  0.00    +0.001 C 
ENDBRANCH  28  30
ENDBRANCH  18  28
ENDBRANCH   1  20
TORSDOF 6
