REMARK  Name = ZINC40036175
REMARK  11 active torsions:
REMARK  status: ('A' for Active; 'I' for Inactive)
REMARK    1  A    between atoms: C_1  and  C_2
REMARK    2  A    between atoms: C_2  and  C_3
REMARK    3  A    between atoms: C_3  and  C_4
REMARK    4  A    between atoms: C_4  and  C_38
REMARK    5  A    between atoms: N_16  and  C_29
REMARK    6  A    between atoms: N_19  and  N_20
REMARK    7  A    between atoms: C_21  and  C_22
REMARK    8  A    between atoms: C_25  and  O_28
REMARK    9  A    between atoms: C_32  and  O_35
REMARK   10  A    between atoms: O_35  and  C_36
REMARK   11  A    between atoms: C_36  and  C_37
REMARK                            x       y       z     vdW  Elec       q    Type
REMARK                         _______ _______ _______ _____ _____    ______ ____
ROOT
ATOM      1  C   UNL     1       0.928  -2.903   1.583  0.00  0.00    +0.004 C 
ATOM      2  C   UNL     1       1.861  -3.458   2.656  0.00  0.00    +0.047 C 
ATOM      3  C   UNL     1       3.234  -2.856   2.527  0.00  0.00    -0.037 A 
ATOM      4  C   UNL     1       3.988  -2.586   3.650  0.00  0.00    +0.004 A 
ATOM      5  C   UNL     1       5.250  -2.036   3.523  0.00  0.00    +0.000 A 
ATOM      6  C   UNL     1       5.768  -1.753   2.271  0.00  0.00    +0.001 A 
ATOM      7  C   UNL     1       5.023  -2.016   1.139  0.00  0.00    +0.010 A 
ATOM      8  C   UNL     1       3.752  -2.568   1.263  0.00  0.00    +0.004 A 
ATOM      9  C   UNL     1       2.925  -2.852   0.068  0.00  0.00    +0.084 A 
ATOM     10  C   UNL     1       1.557  -3.020   0.223  0.00  0.00    +0.050 A 
ATOM     11  C   UNL     1       0.778  -3.297  -0.907  0.00  0.00    +0.264 A 
ATOM     12  O   UNL     1      -0.429  -3.453  -0.810  0.00  0.00    -0.267 OA
ATOM     13  N   UNL     1       1.390  -3.389  -2.108  0.00  0.00    -0.248 N 
ATOM     14  C   UNL     1       2.739  -3.210  -2.206  0.00  0.00    +0.223 A 
ATOM     15  N   UNL     1       3.477  -2.950  -1.147  0.00  0.00    -0.214 NA
ATOM     16  N   UNL     1       3.339  -3.303  -3.435  0.00  0.00    -0.206 N 
ATOM     17  C   UNL     1      -0.384  -3.689   1.601  0.00  0.00    +0.017 C 
ATOM     18  H   UNL     1       2.815  -3.547  -4.214  0.00  0.00    +0.177 HD
ENDROOT
BRANCH  13  19
ATOM     19  C   UNL     1       0.637  -3.670  -3.256  0.00  0.00    +0.053 A 
ATOM     20  C   UNL     1       0.457  -4.984  -3.664  0.00  0.00    +0.030 A 
ATOM     21  C   UNL     1      -0.286  -5.260  -4.795  0.00  0.00    +0.047 A 
ATOM     22  C   UNL     1      -0.851  -4.224  -5.524  0.00  0.00    +0.121 A 
ATOM     23  C   UNL     1      -0.670  -2.910  -5.117  0.00  0.00    +0.047 A 
ATOM     24  C   UNL     1       0.067  -2.633  -3.983  0.00  0.00    +0.030 A 
BRANCH  22  25
ATOM     25  O   UNL     1      -1.581  -4.496  -6.639  0.00  0.00    -0.492 OA
BRANCH  25  26
ATOM     26  C   UNL     1      -2.133  -3.381  -7.341  0.00  0.00    +0.225 C 
ATOM     27  C   UNL     1      -2.915  -3.880  -8.557  0.00  0.00    +0.048 C 
ENDBRANCH  25  26
ENDBRANCH  22  25
ENDBRANCH  13  19
BRANCH  16  28
ATOM     28  N   UNL     1       4.710  -3.046  -3.566  0.00  0.00    -0.188 NA
ATOM     29  C   UNL     1       5.279  -3.134  -4.730  0.00  0.00    +0.138 C 
BRANCH  29  30
ATOM     30  C   UNL     1       6.721  -2.863  -4.867  0.00  0.00    -0.005 A 
ATOM     31  C   UNL     1       7.480  -2.517  -3.746  0.00  0.00    +0.013 A 
ATOM     32  C   UNL     1       8.828  -2.265  -3.880  0.00  0.00    +0.046 A 
ATOM     33  C   UNL     1       9.433  -2.354  -5.126  0.00  0.00    +0.117 A 
ATOM     34  C   UNL     1       8.683  -2.698  -6.244  0.00  0.00    +0.046 A 
ATOM     35  C   UNL     1       7.336  -2.957  -6.119  0.00  0.00    +0.013 A 
BRANCH  33  36
ATOM     36  O   UNL     1      10.762  -2.104  -5.253  0.00  0.00    -0.507 OA
ATOM     37  H   UNL     1      11.322  -2.885  -5.144  0.00  0.00    +0.292 HD
ENDBRANCH  33  36
ENDBRANCH  29  30
ENDBRANCH  16  28
BRANCH   1  38
ATOM     38  C   UNL     1       0.638  -1.431   1.879  0.00  0.00    +0.011 C 
BRANCH  38  40
ATOM     39  C   UNL     1      -0.609   0.597   1.120  0.00  0.00    +0.004 C 
ATOM     40  C   UNL     1      -0.319  -0.876   0.823  0.00  0.00    -0.003 C 
ENDBRANCH  38  40
ENDBRANCH   1  38
TORSDOF 8
