REMARK  Name = ZINC09185575
REMARK  4 active torsions:
REMARK  status: ('A' for Active; 'I' for Inactive)
REMARK    1  A    between atoms: C_15  and  C_17
REMARK    2  A    between atoms: N_19  and  C_20
REMARK    3  A    between atoms: C_22  and  N_27
REMARK    4  A    between atoms: N_32  and  C_35
REMARK                            x       y       z     vdW  Elec       q    Type
REMARK                         _______ _______ _______ _____ _____    ______ ____
ROOT
ATOM      1  C   UNL     1      -7.123   1.061  -8.227  0.00  0.00    +0.001 A 
ATOM      2  C   UNL     1      -7.253   0.722  -6.892  0.00  0.00    +0.000 A 
ATOM      3  C   UNL     1      -6.168   0.821  -6.038  0.00  0.00    +0.006 A 
ATOM      4  C   UNL     1      -4.955   1.261  -6.516  0.00  0.00    -0.021 A 
ATOM      5  C   UNL     1      -4.812   1.603  -7.866  0.00  0.00    -0.019 A 
ATOM      6  C   UNL     1      -5.912   1.500  -8.719  0.00  0.00    +0.008 A 
ATOM      7  C   UNL     1      -3.510   2.066  -8.386  0.00  0.00    +0.022 C 
ATOM      8  C   UNL     1      -2.563   2.482  -7.522  0.00  0.00    +0.054 C 
ATOM      9  C   UNL     1      -3.760   1.383  -5.606  0.00  0.00    +0.100 C 
ATOM     10  C   UNL     1      -4.175   1.832  -4.204  0.00  0.00    +0.113 C 
ATOM     11  C   UNL     1      -3.631   3.284  -4.063  0.00  0.00    +0.117 C 
ATOM     12  C   UNL     1      -2.503   3.353  -5.114  0.00  0.00    +0.156 C 
ATOM     13  C   UNL     1      -3.010   3.257  -2.680  0.00  0.00    +0.228 C 
ATOM     14  O   UNL     1      -2.723   4.229  -2.014  0.00  0.00    -0.275 OA
ATOM     15  N   UNL     1      -2.831   1.979  -2.315  0.00  0.00    -0.238 N 
ATOM     16  C   UNL     1      -3.361   1.086  -3.165  0.00  0.00    +0.228 C 
ATOM     17  O   UNL     1      -3.216  -0.117  -3.109  0.00  0.00    -0.275 OA
ATOM     18  N   UNL     1      -2.649   2.194  -6.032  0.00  0.00    -0.383 NA
ATOM     19  H   UNL     1      -1.822   1.613  -5.850  0.00  0.00    +0.127 HD
ENDROOT
BRANCH  15  20
ATOM     20  C   UNL     1      -2.114   1.591  -1.098  0.00  0.00    +0.084 C 
ATOM     21  C   UNL     1      -0.727   2.237  -1.096  0.00  0.00    +0.023 C 
ATOM     22  C   UNL     1       0.022   1.832   0.175  0.00  0.00    +0.002 C 
ATOM     23  C   UNL     1      -0.762   2.304   1.401  0.00  0.00    +0.000 C 
ATOM     24  C   UNL     1      -2.148   1.658   1.399  0.00  0.00    +0.002 C 
ATOM     25  C   UNL     1      -2.898   2.062   0.128  0.00  0.00    +0.023 C 
ENDBRANCH  15  20
BRANCH  12  26
ATOM     26  C   UNL     1      -1.194   2.930  -4.499  0.00  0.00    +0.237 C 
ATOM     27  O   UNL     1      -0.577   3.701  -3.795  0.00  0.00    -0.273 OA
ATOM     28  N   UNL     1      -0.709   1.694  -4.731  0.00  0.00    -0.283 N 
ATOM     29  H   UNL     1      -1.171   1.099  -5.342  0.00  0.00    +0.155 HD
BRANCH  28  30
ATOM     30  C   UNL     1       0.461   1.269  -4.090  0.00  0.00    +0.054 A 
ATOM     31  C   UNL     1       1.422   2.197  -3.710  0.00  0.00    +0.057 A 
ATOM     32  C   UNL     1       2.572   1.775  -3.073  0.00  0.00    +0.128 A 
ATOM     33  C   UNL     1       2.774   0.430  -2.823  0.00  0.00    +0.034 A 
ATOM     34  C   UNL     1       1.822  -0.497  -3.205  0.00  0.00    +0.024 A 
ATOM     35  C   UNL     1       0.665  -0.082  -3.838  0.00  0.00    +0.062 A 
ATOM     36 CL   UNL     1      -0.530  -1.246  -4.317  0.00  0.00    -0.082 Cl
BRANCH  32  37
ATOM     37  N   UNL     1       3.594   2.764  -2.662  0.00  0.00    +0.056 N 
ATOM     38  O   UNL     1       4.612   2.393  -2.105  0.00  0.00    -0.126 OA
ATOM     39  O   UNL     1       3.418   3.949  -2.882  0.00  0.00    -0.126 OA
ENDBRANCH  32  37
ENDBRANCH  28  30
ENDBRANCH  12  26
TORSDOF 4
