REMARK  Name = ZINC39710895
REMARK  13 active torsions:
REMARK  status: ('A' for Active; 'I' for Inactive)
REMARK    1  A    between atoms: C_1  and  C_2
REMARK    2  A    between atoms: C_2  and  C_3
REMARK    3  A    between atoms: C_3  and  C_4
REMARK    4  A    between atoms: C_3  and  C_5
REMARK    5  A    between atoms: C_3  and  N_6
REMARK    6  A    between atoms: C_7  and  C_12
REMARK    7  A    between atoms: C_12  and  C_14
REMARK    8  A    between atoms: C_12  and  N_27
REMARK    9  A    between atoms: C_21  and  C_26
REMARK   10  A    between atoms: N_27  and  C_28
REMARK   11  A    between atoms: N_27  and  C_35
REMARK   12  A    between atoms: C_28  and  C_29
REMARK   13  A    between atoms: C_35  and  C_36
REMARK                            x       y       z     vdW  Elec       q    Type
REMARK                         _______ _______ _______ _____ _____    ______ ____
ROOT
ATOM      1  C   UNL     1      -3.121  -3.542  -1.270  0.00  0.00    -0.008 C 
ENDROOT
BRANCH   1   2
ATOM      2  C   UNL     1      -2.146  -4.720  -1.320  0.00  0.00    +0.088 C 
ATOM      3  C   UNL     1      -0.738  -4.159  -1.327  0.00  0.00    -0.006 C 
ATOM      4  C   UNL     1       0.063  -4.494  -2.378  0.00  0.00    -0.007 A 
ATOM      5  C   UNL     1       1.436  -3.995  -2.465  0.00  0.00    +0.009 A 
ATOM      6  C   UNL     1       2.198  -4.354  -3.530  0.00  0.00    +0.001 A 
ATOM      7  C   UNL     1       1.697  -5.183  -4.535  0.00  0.00    +0.005 A 
ATOM      8  C   UNL     1       0.432  -5.678  -4.513  0.00  0.00    -0.029 A 
ATOM      9  C   UNL     1      -0.439  -5.367  -3.453  0.00  0.00    +0.043 A 
ATOM     10  N   UNL     1      -1.678  -5.859  -3.442  0.00  0.00    -0.284 N 
ATOM     11  C   UNL     1      -2.546  -5.605  -2.479  0.00  0.00    +0.223 C 
ATOM     12  O   UNL     1      -3.664  -6.083  -2.524  0.00  0.00    -0.275 OA
ATOM     13  C   UNL     1      -0.042  -6.567  -5.634  0.00  0.00    +0.045 C 
ATOM     14  H   UNL     1      -1.955  -6.430  -4.176  0.00  0.00    +0.155 HD
ENDBRANCH   1   2
BRANCH   1  16
ATOM     15  N   UNL     1      -1.543  -2.075  -0.062  0.00  0.00    -0.182 NA
ATOM     16  C   UNL     1      -2.869  -2.725  -0.001  0.00  0.00    +0.205 C 
ATOM     17  N   UNL     1      -2.793  -3.606   1.172  0.00  0.00    -0.152 NA
ATOM     18  N   UNL     1      -1.677  -3.495   1.683  0.00  0.00    -0.070 NA
ATOM     19  N   UNL     1      -0.857  -2.594   1.005  0.00  0.00    -0.179 N 
ATOM     20  H   UNL     1       0.055  -2.370   1.249  0.00  0.00    +0.191 HD
BRANCH  15  21
ATOM     21  C   UNL     1      -1.667  -0.615   0.052  0.00  0.00    +0.037 C 
ATOM     22  C   UNL     1      -2.423  -0.266   1.335  0.00  0.00    +0.029 C 
ATOM     23  C   UNL     1      -2.434  -0.073  -1.156  0.00  0.00    +0.029 C 
BRANCH  21  25
ATOM     24  C   UNL     1      -0.402   1.533   0.213  0.00  0.00    +0.006 C 
ATOM     25  C   UNL     1      -0.272   0.013   0.095  0.00  0.00    +0.020 C 
ENDBRANCH  21  25
ENDBRANCH  15  21
ENDBRANCH   1  16
BRANCH   1  26
ATOM     26  N   UNL     1      -4.500  -4.048  -1.260  0.00  0.00    +0.392 N 
ATOM     27  H   UNL     1      -4.645  -4.644  -2.062  0.00  0.00    -0.080 HD
BRANCH  26  28
ATOM     28  C   UNL     1      -4.731  -4.817  -0.030  0.00  0.00    -0.042 C 
BRANCH  28  29
ATOM     29  C   UNL     1      -6.091  -5.463  -0.089  0.00  0.00    -0.064 A 
ATOM     30  C   UNL     1      -7.198  -4.789   0.392  0.00  0.00    +0.002 A 
ATOM     31  C   UNL     1      -8.446  -5.381   0.338  0.00  0.00    +0.000 A 
ATOM     32  C   UNL     1      -8.587  -6.647  -0.199  0.00  0.00    +0.000 A 
ATOM     33  C   UNL     1      -7.480  -7.321  -0.681  0.00  0.00    +0.000 A 
ATOM     34  C   UNL     1      -6.233  -6.727  -0.630  0.00  0.00    +0.002 A 
ENDBRANCH  28  29
ENDBRANCH  26  28
BRANCH  26  35
ATOM     35  C   UNL     1      -5.437  -2.918  -1.315  0.00  0.00    -0.002 C 
BRANCH  35  36
ATOM     36  C   UNL     1      -5.307  -2.222  -2.645  0.00  0.00    +0.089 A 
ATOM     37  C   UNL     1      -6.070  -2.449  -3.730  0.00  0.00    +0.042 A 
ATOM     38  C   UNL     1      -5.606  -1.583  -4.746  0.00  0.00    +0.041 A 
ATOM     39  C   UNL     1      -4.587  -0.878  -4.222  0.00  0.00    +0.195 A 
ATOM     40  O   UNL     1      -4.414  -1.266  -2.948  0.00  0.00    -0.470 OA
ENDBRANCH  35  36
ENDBRANCH  26  35
ENDBRANCH   1  26
TORSDOF 9
