REMARK  Name = ZINC54347941
REMARK  5 active torsions:
REMARK  status: ('A' for Active; 'I' for Inactive)
REMARK    1  A    between atoms: C_1  and  C_2
REMARK    2  A    between atoms: C_2  and  C_4
REMARK    3  A    between atoms: C_2  and  N_14
REMARK    4  A    between atoms: N_14  and  S_15
REMARK    5  A    between atoms: S_15  and  C_18
REMARK                            x       y       z     vdW  Elec       q    Type
REMARK                         _______ _______ _______ _____ _____    ______ ____
ROOT
ATOM      1  C   UNL     1      -0.019   1.526   0.010  0.00  0.00    +0.034 C 
ATOM      2  C   UNL     1       0.002  -0.004   0.002  0.00  0.00    +0.139 C 
ENDROOT
BRANCH   2   3
ATOM      3  C   UNL     1      -1.412  -0.526   0.013  0.00  0.00    +0.127 A 
ATOM      4  N   UNL     1      -2.185  -0.703  -1.092  0.00  0.00    -0.341 N 
ATOM      5  H   UNL     1      -1.928  -0.520  -2.009  0.00  0.00    +0.167 HD
ATOM      6  C   UNL     1      -3.404  -1.193  -0.666  0.00  0.00    +0.066 A 
ATOM      7  C   UNL     1      -4.576  -1.562  -1.311  0.00  0.00    +0.028 A 
ATOM      8  C   UNL     1      -5.644  -2.027  -0.573  0.00  0.00    +0.002 A 
ATOM      9  C   UNL     1      -5.554  -2.127   0.808  0.00  0.00    +0.002 A 
ATOM     10  C   UNL     1      -4.408  -1.769   1.460  0.00  0.00    +0.030 A 
ATOM     11  C   UNL     1      -3.313  -1.296   0.732  0.00  0.00    +0.089 A 
ATOM     12  N   UNL     1      -2.068  -0.877   1.079  0.00  0.00    -0.231 NA
ENDBRANCH   2   3
BRANCH   2  13
ATOM     13  N   UNL     1       0.711  -0.489   1.189  0.00  0.00    -0.179 NA
ATOM     14  H   UNL     1       0.236  -0.593   2.029  0.00  0.00    +0.149 HD
BRANCH  13  15
ATOM     15  S   UNL     1       2.322  -0.861   1.097  0.00  0.00    +0.065 S 
ATOM     16  O   UNL     1       2.719  -1.271   2.398  0.00  0.00    -0.153 OA
ATOM     17  O   UNL     1       2.483  -1.690  -0.045  0.00  0.00    -0.153 OA
BRANCH  15  18
ATOM     18  C   UNL     1       3.183   0.638   0.757  0.00  0.00    +0.143 A 
ATOM     19  C   UNL     1       3.705   1.538   1.625  0.00  0.00    +0.037 A 
ATOM     20  C   UNL     1       4.347   2.656   1.126  0.00  0.00    +0.025 A 
ATOM     21  C   UNL     1       4.436   2.819  -0.218  0.00  0.00    +0.057 A 
ATOM     22  S   UNL     1       3.602   1.360  -0.821  0.00  0.00    -0.062 S 
ATOM     23 BR   UNL     1       5.239   4.223  -1.197  0.00  0.00    -0.043 Br
ENDBRANCH  15  18
ENDBRANCH  13  15
ENDBRANCH   2  13
TORSDOF 4
