REMARK  Name = ZINC54846120
REMARK  2 active torsions:
REMARK  status: ('A' for Active; 'I' for Inactive)
REMARK    1  A    between atoms: N_11  and  C_12
REMARK    2  A    between atoms: C_12  and  C_14
REMARK                            x       y       z     vdW  Elec       q    Type
REMARK                         _______ _______ _______ _____ _____    ______ ____
ROOT
ATOM      1  C   UNL     1       4.924  -3.247  -0.162  0.00  0.00    +0.272 C 
ATOM      2  O   UNL     1       5.517  -2.182  -0.163  0.00  0.00    -0.268 OA
ENDROOT
BRANCH   1  13
ATOM      3  C   UNL     1      -0.018   1.375  -0.018  0.00  0.00    +0.002 A 
ATOM      4  C   UNL     1       1.167   2.090  -0.015  0.00  0.00    +0.002 A 
ATOM      5  C   UNL     1       2.379   1.429  -0.020  0.00  0.00    +0.028 A 
ATOM      6  C   UNL     1       2.410   0.041  -0.028  0.00  0.00    +0.065 A 
ATOM      7  C   UNL     1       1.214  -0.680  -0.032  0.00  0.00    +0.065 A 
ATOM      8  C   UNL     1       0.001  -0.005  -0.027  0.00  0.00    +0.028 A 
ATOM      9  N   UNL     1       1.548  -2.030  -0.040  0.00  0.00    -0.326 N 
ATOM     10  H   UNL     1       0.922  -2.771  -0.045  0.00  0.00    +0.169 HD
ATOM     11  C   UNL     1       2.905  -2.133  -0.042  0.00  0.00    +0.199 A 
ATOM     12  N   UNL     1       3.447  -0.885  -0.034  0.00  0.00    -0.326 N 
ATOM     13  N   UNL     1       3.590  -3.270  -0.048  0.00  0.00    -0.142 NA
ATOM     14  H   UNL     1       4.395  -0.677  -0.034  0.00  0.00    +0.169 HD
ENDBRANCH   1  13
BRANCH   1  15
ATOM     15  C   UNL     1       5.677  -4.512  -0.286  0.00  0.00    +0.066 A 
ATOM     16  C   UNL     1       5.008  -5.726  -0.291  0.00  0.00    +0.035 A 
ATOM     17  C   UNL     1       5.708  -6.922  -0.407  0.00  0.00    +0.042 A 
ATOM     18  C   UNL     1       7.068  -6.932  -0.519  0.00  0.00    +0.030 A 
ATOM     19  C   UNL     1       7.783  -5.724  -0.518  0.00  0.00    +0.003 A 
ATOM     20  C   UNL     1       7.089  -4.495  -0.406  0.00  0.00    +0.083 A 
ATOM     21  N   UNL     1       7.765  -3.346  -0.409  0.00  0.00    -0.254 NA
ATOM     22  C   UNL     1       9.072  -3.323  -0.520  0.00  0.00    +0.111 A 
ATOM     23  C   UNL     1       9.817  -4.493  -0.640  0.00  0.00    +0.020 A 
ATOM     24  C   UNL     1       9.187  -5.706  -0.631  0.00  0.00    +0.011 A 
ATOM     25 CL   UNL     1       4.839  -8.424  -0.410  0.00  0.00    -0.084 Cl
ENDBRANCH   1  15
TORSDOF 2
