REMARK  Name = ZINC38872782
REMARK  9 active torsions:
REMARK  status: ('A' for Active; 'I' for Inactive)
REMARK    1  A    between atoms: C_4  and  C_8
REMARK    2  A    between atoms: C_8  and  S_9
REMARK    3  A    between atoms: S_9  and  C_10
REMARK    4  A    between atoms: C_10  and  C_11
REMARK    5  A    between atoms: C_11  and  N_12
REMARK    6  A    between atoms: C_13  and  C_15
REMARK    7  A    between atoms: N_18  and  C_21
REMARK    8  A    between atoms: C_21  and  C_22
REMARK    9  A    between atoms: C_24  and  C_27
REMARK                            x       y       z     vdW  Elec       q    Type
REMARK                         _______ _______ _______ _____ _____    ______ ____
ROOT
ATOM      1  C   UNL     1       9.683  -4.043   3.621  0.00  0.00    +0.071 C 
ATOM      2  C   UNL     1      10.673  -3.160   2.857  0.00  0.00    -0.006 C 
ATOM      3  C   UNL     1      12.023  -3.875   2.767  0.00  0.00    -0.077 C 
ATOM      4  N   UNL     1      12.536  -4.133   4.118  0.00  0.00    +0.386 N 
ATOM      5  C   UNL     1      11.627  -5.038   4.832  0.00  0.00    -0.077 C 
ATOM      6  C   UNL     1      10.262  -4.367   5.002  0.00  0.00    -0.006 C 
ATOM      7  H   UNL     1      12.606  -3.261   4.622  0.00  0.00    -0.081 HD
ENDROOT
BRANCH   1   9
ATOM      8  N   UNL     1       7.681  -2.925   2.694  0.00  0.00    -0.314 N 
ATOM      9  C   UNL     1       8.375  -3.312   3.782  0.00  0.00    +0.216 C 
ATOM     10  O   UNL     1       7.947  -3.072   4.891  0.00  0.00    -0.276 OA
ATOM     11  H   UNL     1       8.024  -3.116   1.807  0.00  0.00    +0.149 HD
BRANCH   8  12
ATOM     12  C   UNL     1       6.410  -2.214   2.850  0.00  0.00    +0.115 C 
BRANCH  12  13
ATOM     13  C   UNL     1       5.833  -1.892   1.471  0.00  0.00    +0.088 C 
BRANCH  13  14
ATOM     14  S   UNL     1       4.258  -1.011   1.665  0.00  0.00    -0.154 S 
BRANCH  14  15
ATOM     15  C   UNL     1       3.713  -0.707  -0.038  0.00  0.00    +0.107 C 
BRANCH  15  19
ATOM     16  C   UNL     1      -0.017   1.378   0.010  0.00  0.00    +0.003 A 
ATOM     17  C   UNL     1       1.171   2.086   0.002  0.00  0.00    +0.020 A 
ATOM     18  C   UNL     1       2.378   1.411  -0.013  0.00  0.00    +0.046 A 
ATOM     19  C   UNL     1       2.398   0.028  -0.021  0.00  0.00    -0.001 A 
ATOM     20  C   UNL     1       1.209  -0.680  -0.013  0.00  0.00    +0.046 A 
ATOM     21  C   UNL     1       0.002  -0.004   0.002  0.00  0.00    +0.020 A 
ATOM     22 CL   UNL     1       1.233  -2.416  -0.023  0.00  0.00    -0.083 Cl
ATOM     23 CL   UNL     1       3.869   2.300  -0.024  0.00  0.00    -0.083 Cl
ENDBRANCH  15  19
ENDBRANCH  14  15
ENDBRANCH  13  14
ENDBRANCH  12  13
ENDBRANCH   8  12
ENDBRANCH   1   9
BRANCH   4  24
ATOM     24  C   UNL     1      13.866  -4.749   4.025  0.00  0.00    +0.022 C 
BRANCH  24  25
ATOM     25  C   UNL     1      14.446  -4.902   5.408  0.00  0.00    +0.211 A 
ATOM     26  N   UNL     1      14.304  -5.939   6.182  0.00  0.00    -0.192 NA
ATOM     27  C   UNL     1      14.953  -5.739   7.345  0.00  0.00    +0.209 A 
ATOM     28  N   UNL     1      15.517  -4.554   7.310  0.00  0.00    -0.056 NA
ATOM     29  O   UNL     1      15.199  -3.995   6.044  0.00  0.00    -0.340 OA
BRANCH  27  30
ATOM     30  C   UNL     1      15.019  -6.693   8.471  0.00  0.00    +0.060 A 
ATOM     31  C   UNL     1      15.650  -6.559   9.680  0.00  0.00    +0.019 A 
ATOM     32  C   UNL     1      15.572  -7.593  10.585  0.00  0.00    +0.008 A 
ATOM     33  C   UNL     1      14.875  -8.711  10.254  0.00  0.00    +0.046 A 
ATOM     34  S   UNL     1      14.290  -8.316   8.614  0.00  0.00    -0.093 S 
ENDBRANCH  27  30
ENDBRANCH  24  25
ENDBRANCH   4  24
TORSDOF 9
