REMARK  Name = ZINC02207997
REMARK  8 active torsions:
REMARK  status: ('A' for Active; 'I' for Inactive)
REMARK    1  A    between atoms: C_1  and  C_2
REMARK    2  A    between atoms: C_2  and  O_3
REMARK    3  A    between atoms: O_3  and  C_4
REMARK    4  A    between atoms: C_16  and  C_28
REMARK    5  A    between atoms: C_16  and  C_29
REMARK    6  A    between atoms: C_18  and  C_20
REMARK    7  A    between atoms: C_23  and  O_26
REMARK    8  A    between atoms: O_26  and  C_27
REMARK                            x       y       z     vdW  Elec       q    Type
REMARK                         _______ _______ _______ _____ _____    ______ ____
ROOT
ATOM      1  C   UNL     1       3.039   0.905   2.852  0.00  0.00    +0.121 A 
ATOM      2  C   UNL     1       3.775   0.455   1.764  0.00  0.00    +0.047 A 
ATOM      3  C   UNL     1       3.305  -0.577   0.973  0.00  0.00    +0.028 A 
ATOM      4  C   UNL     1       2.087  -1.173   1.268  0.00  0.00    +0.046 A 
ATOM      5  C   UNL     1       1.359  -0.728   2.373  0.00  0.00    +0.009 A 
ATOM      6  C   UNL     1       1.822   0.313   3.160  0.00  0.00    +0.056 A 
ATOM      7  C   UNL     1       0.038  -1.397   2.691  0.00  0.00    +0.018 A 
ATOM      8  C   UNL     1      -0.218  -2.583   2.027  0.00  0.00    +0.029 A 
ATOM      9  S   UNL     1      -1.767  -3.217   2.475  0.00  0.00    -0.053 S 
ATOM     10  S   UNL     1      -2.265  -1.707   3.833  0.00  0.00    -0.044 S 
ATOM     11  C   UNL     1      -0.810  -0.781   3.643  0.00  0.00    +0.071 A 
ATOM     12  S   UNL     1      -0.452   0.667   4.484  0.00  0.00    -0.043 S 
ATOM     13  C   UNL     1       0.735  -3.240   1.057  0.00  0.00    +0.069 C 
ATOM     14  N   UNL     1       1.588  -2.203   0.461  0.00  0.00    -0.257 N 
ATOM     15  C   UNL     1       1.886  -2.242  -0.853  0.00  0.00    +0.252 C 
ATOM     16  O   UNL     1       1.420  -3.117  -1.557  0.00  0.00    -0.270 OA
ATOM     17  C   UNL     1       1.606  -4.255   1.801  0.00  0.00    +0.037 C 
ATOM     18  C   UNL     1      -0.058  -3.952  -0.040  0.00  0.00    +0.037 C 
ENDROOT
BRANCH  15  19
ATOM     19  C   UNL     1       2.779  -1.222  -1.438  0.00  0.00    +0.037 A 
ATOM     20  C   UNL     1       2.648   0.118  -1.066  0.00  0.00    +0.016 A 
ATOM     21  C   UNL     1       3.487   1.066  -1.610  0.00  0.00    +0.046 A 
ATOM     22  C   UNL     1       4.454   0.692  -2.535  0.00  0.00    +0.120 A 
ATOM     23  C   UNL     1       4.583  -0.640  -2.912  0.00  0.00    +0.046 A 
ATOM     24  C   UNL     1       3.752  -1.594  -2.368  0.00  0.00    +0.016 A 
BRANCH  22  25
ATOM     25  O   UNL     1       5.275   1.630  -3.073  0.00  0.00    -0.495 OA
ATOM     26  C   UNL     1       5.088   2.979  -2.642  0.00  0.00    +0.277 C 
ENDBRANCH  22  25
ENDBRANCH  15  19
BRANCH   1  27
ATOM     27  O   UNL     1       3.512   1.925   3.616  0.00  0.00    -0.492 OA
BRANCH  27  29
ATOM     28  C   UNL     1       5.135   3.614   4.211  0.00  0.00    +0.048 C 
ATOM     29  C   UNL     1       4.771   2.488   3.242  0.00  0.00    +0.225 C 
ENDBRANCH  27  29
ENDBRANCH   1  27
TORSDOF 4
