REMARK  Name = ZINC36028121
REMARK  13 active torsions:
REMARK  status: ('A' for Active; 'I' for Inactive)
REMARK    1  A    between atoms: C_1  and  C_2
REMARK    2  A    between atoms: C_2  and  C_3
REMARK    3  A    between atoms: C_3  and  C_5
REMARK    4  A    between atoms: C_3  and  C_6
REMARK    5  A    between atoms: N_10  and  C_28
REMARK    6  A    between atoms: N_15  and  S_18
REMARK    7  A    between atoms: S_18  and  C_21
REMARK    8  A    between atoms: C_28  and  C_29
REMARK    9  A    between atoms: C_29  and  C_30
REMARK   10  A    between atoms: C_33  and  O_38
REMARK   11  A    between atoms: C_34  and  O_36
REMARK   12  A    between atoms: O_36  and  C_37
REMARK   13  A    between atoms: O_38  and  C_39
REMARK                            x       y       z     vdW  Elec       q    Type
REMARK                         _______ _______ _______ _____ _____    ______ ____
ROOT
ATOM      1  C   UNL     1      -1.790  -2.246  -0.253  0.00  0.00    +0.022 C 
ATOM      2  C   UNL     1      -1.066  -2.762   0.971  0.00  0.00    +0.201 C 
ATOM      3  O   UNL     1      -0.051  -2.296   1.444  0.00  0.00    -0.277 OA
ATOM      4  N   UNL     1      -1.740  -3.829   1.449  0.00  0.00    -0.313 N 
ATOM      5  C   UNL     1      -2.909  -4.087   0.604  0.00  0.00    +0.006 C 
ATOM      6  N   UNL     1      -3.140  -2.855  -0.182  0.00  0.00    +0.401 N 
ATOM      7  C   UNL     1      -4.132  -4.385   1.470  0.00  0.00    +0.023 C 
ATOM      8  C   UNL     1      -3.868  -5.642   2.306  0.00  0.00    +0.109 C 
ATOM      9  N   UNL     1      -3.474  -6.734   1.406  0.00  0.00    -0.177 NA
ATOM     10  C   UNL     1      -2.354  -6.518   0.480  0.00  0.00    +0.109 C 
ATOM     11  C   UNL     1      -2.630  -5.254  -0.341  0.00  0.00    +0.023 C 
ATOM     12  H   UNL     1      -3.783  -2.242   0.297  0.00  0.00    -0.082 HD
ATOM     13  H   UNL     1      -3.480  -3.078  -1.105  0.00  0.00    -0.082 HD
ENDROOT
BRANCH   9  14
ATOM     14  S   UNL     1      -4.276  -8.182   1.435  0.00  0.00    +0.061 S 
ATOM     15  O   UNL     1      -3.376  -9.156   0.924  0.00  0.00    -0.153 OA
ATOM     16  O   UNL     1      -4.868  -8.293   2.723  0.00  0.00    -0.153 OA
BRANCH  14  17
ATOM     17  C   UNL     1      -5.602  -8.067   0.281  0.00  0.00    +0.106 A 
ATOM     18  C   UNL     1      -6.837  -7.601   0.691  0.00  0.00    +0.031 A 
ATOM     19  C   UNL     1      -7.878  -7.509  -0.214  0.00  0.00    +0.040 A 
ATOM     20  C   UNL     1      -7.683  -7.884  -1.532  0.00  0.00    +0.124 A 
ATOM     21  C   UNL     1      -6.445  -8.350  -1.942  0.00  0.00    +0.040 A 
ATOM     22  C   UNL     1      -5.405  -8.436  -1.037  0.00  0.00    +0.031 A 
ATOM     23  F   UNL     1      -8.699  -7.795  -2.418  0.00  0.00    -0.205 F 
ENDBRANCH  14  17
ENDBRANCH   9  14
BRANCH   1  24
ATOM     24  C   UNL     1      -1.891  -0.720  -0.208  0.00  0.00    -0.020 C 
ATOM     25  C   UNL     1      -2.485  -0.287   1.134  0.00  0.00    +0.006 C 
BRANCH  24  27
ATOM     26  C   UNL     1      -0.611   1.412  -0.449  0.00  0.00    +0.004 C 
ATOM     27  C   UNL     1      -0.496  -0.111  -0.369  0.00  0.00    -0.001 C 
ENDBRANCH  24  27
ENDBRANCH   1  24
BRANCH   4  28
ATOM     28  C   UNL     1      -1.362  -4.608   2.631  0.00  0.00    +0.110 C 
BRANCH  28  29
ATOM     29  C   UNL     1      -1.984  -3.976   3.878  0.00  0.00    +0.054 C 
BRANCH  29  30
ATOM     30  C   UNL     1      -1.638  -4.807   5.087  0.00  0.00    -0.042 A 
ATOM     31  C   UNL     1      -2.469  -5.843   5.473  0.00  0.00    +0.007 A 
ATOM     32  C   UNL     1      -2.156  -6.608   6.581  0.00  0.00    +0.049 A 
ATOM     33  C   UNL     1      -1.008  -6.338   7.308  0.00  0.00    +0.161 A 
ATOM     34  C   UNL     1      -0.172  -5.296   6.919  0.00  0.00    +0.162 A 
ATOM     35  C   UNL     1      -0.488  -4.536   5.805  0.00  0.00    +0.053 A 
BRANCH  34  36
ATOM     36  O   UNL     1       0.957  -5.027   7.629  0.00  0.00    -0.491 OA
ATOM     37  C   UNL     1       1.768  -3.943   7.173  0.00  0.00    +0.277 C 
ENDBRANCH  34  36
BRANCH  33  38
ATOM     38  O   UNL     1      -0.699  -7.090   8.398  0.00  0.00    -0.491 OA
ATOM     39  C   UNL     1      -1.604  -8.142   8.738  0.00  0.00    +0.277 C 
ENDBRANCH  33  38
ENDBRANCH  29  30
ENDBRANCH  28  29
ENDBRANCH   4  28
TORSDOF 9
