REMARK  Name = ZINC39707939
REMARK  5 active torsions:
REMARK  status: ('A' for Active; 'I' for Inactive)
REMARK    1  A    between atoms: C_9  and  O_29
REMARK    2  A    between atoms: C_10  and  C_11
REMARK    3  A    between atoms: N_12  and  N_13
REMARK    4  A    between atoms: C_14  and  C_16
REMARK    5  A    between atoms: C_19  and  C_22
REMARK                            x       y       z     vdW  Elec       q    Type
REMARK                         _______ _______ _______ _____ _____    ______ ____
ROOT
ATOM      1  N   UNL     1       7.318   0.112  -0.062  0.00  0.00    -0.205 N 
ATOM      2  C   UNL     1       8.495  -0.545  -0.083  0.00  0.00    +0.263 C 
ATOM      3  O   UNL     1       8.512  -1.758  -0.098  0.00  0.00    -0.271 OA
ATOM      4  H   UNL     1       7.304   1.081  -0.050  0.00  0.00    +0.177 HD
ENDROOT
BRANCH   2   5
ATOM      5  C   UNL     1       9.789   0.227  -0.087  0.00  0.00    +0.240 C 
ATOM      6  C   UNL     1      10.167   0.647   1.322  0.00  0.00    +0.041 C 
ATOM      7  C   UNL     1      11.346   0.032   1.537  0.00  0.00    +0.093 C 
ATOM      8  N   UNL     1      11.709  -0.692   0.445  0.00  0.00    -0.153 NA
ATOM      9  N   UNL     1      10.909  -0.637  -0.496  0.00  0.00    -0.170 NA
BRANCH   7  10
ATOM     10  C   UNL     1      12.136   0.130   2.789  0.00  0.00    +0.020 A 
ATOM     11  C   UNL     1      11.734   0.996   3.804  0.00  0.00    +0.011 A 
ATOM     12  C   UNL     1      12.473   1.083   4.966  0.00  0.00    +0.001 A 
ATOM     13  C   UNL     1      13.611   0.313   5.125  0.00  0.00    +0.001 A 
ATOM     14  C   UNL     1      14.016  -0.548   4.122  0.00  0.00    +0.020 A 
ATOM     15  C   UNL     1      13.281  -0.648   2.956  0.00  0.00    +0.050 A 
ATOM     16 CL   UNL     1      13.786  -1.735   1.700  0.00  0.00    -0.083 Cl
ENDBRANCH   7  10
ENDBRANCH   2   5
BRANCH   1  18
ATOM     17  C   UNL     1       4.980   0.027  -0.039  0.00  0.00    +0.142 C 
ATOM     18  N   UNL     1       6.115  -0.606  -0.059  0.00  0.00    -0.188 NA
BRANCH  17  28
ATOM     19  C   UNL     1      -0.033   1.231   0.030  0.00  0.00    +0.001 A 
ATOM     20  C   UNL     1       1.142   1.979   0.027  0.00  0.00    +0.001 A 
ATOM     21  C   UNL     1       2.360   1.368   0.006  0.00  0.00    +0.009 A 
ATOM     22  C   UNL     1       2.433  -0.030  -0.013  0.00  0.00    -0.006 A 
ATOM     23  C   UNL     1       1.241  -0.793  -0.010  0.00  0.00    -0.017 A 
ATOM     24  C   UNL     1       0.002  -0.130   0.012  0.00  0.00    +0.008 A 
ATOM     25  C   UNL     1       1.316  -2.197  -0.028  0.00  0.00    +0.012 A 
ATOM     26  C   UNL     1       2.520  -2.829  -0.048  0.00  0.00    +0.046 A 
ATOM     27  C   UNL     1       3.721  -2.121  -0.051  0.00  0.00    +0.126 A 
ATOM     28  C   UNL     1       3.718  -0.726  -0.035  0.00  0.00    +0.044 A 
BRANCH  27  29
ATOM     29  O   UNL     1       4.900  -2.793  -0.071  0.00  0.00    -0.506 OA
ATOM     30  H   UNL     1       5.233  -2.977  -0.960  0.00  0.00    +0.292 HD
ENDBRANCH  27  29
ENDBRANCH  17  28
ENDBRANCH   1  18
TORSDOF 5
