REMARK  Name = ZINC59399679
REMARK  8 active torsions:
REMARK  status: ('A' for Active; 'I' for Inactive)
REMARK    1  A    between atoms: C_1  and  C_2
REMARK    2  A    between atoms: C_2  and  O_3
REMARK    3  A    between atoms: O_3  and  C_4
REMARK    4  A    between atoms: C_4  and  C_6
REMARK    5  A    between atoms: C_10  and  N_11
REMARK    6  A    between atoms: C_12  and  C_14
REMARK    7  A    between atoms: C_15  and  C_16
REMARK    8  A    between atoms: C_19  and  C_21
REMARK                            x       y       z     vdW  Elec       q    Type
REMARK                         _______ _______ _______ _____ _____    ______ ____
ROOT
ATOM      1  N   UNL     1      -0.602  -2.455  -3.925  0.00  0.00    -0.276 N 
ATOM      2  C   UNL     1      -1.117  -2.782  -5.127  0.00  0.00    +0.242 C 
ATOM      3  O   UNL     1      -0.392  -3.228  -5.999  0.00  0.00    -0.270 OA
ATOM      4  H   UNL     1      -1.179  -2.100  -3.231  0.00  0.00    +0.156 HD
ENDROOT
BRANCH   1   9
ATOM      5  C   UNL     1       1.449  -2.344  -2.516  0.00  0.00    +0.091 A 
ATOM      6  C   UNL     1       2.875  -2.619  -2.515  0.00  0.00    -0.021 A 
ATOM      7  C   UNL     1       3.342  -3.118  -3.680  0.00  0.00    -0.004 A 
ATOM      8  S   UNL     1       1.922  -3.213  -4.730  0.00  0.00    -0.077 S 
ATOM      9  C   UNL     1       0.750  -2.624  -3.682  0.00  0.00    +0.087 A 
ATOM     10  C   UNL     1       4.756  -3.499  -3.993  0.00  0.00    +0.043 C 
ATOM     11  C   UNL     1       5.669  -2.887  -2.920  0.00  0.00    +0.005 C 
ATOM     12  C   UNL     1       5.082  -3.190  -1.538  0.00  0.00    +0.005 C 
ATOM     13  C   UNL     1       3.799  -2.383  -1.329  0.00  0.00    +0.037 C 
BRANCH   5  14
ATOM     14  C   UNL     1       0.776  -1.800  -1.335  0.00  0.00    +0.342 C 
ATOM     15  O   UNL     1       0.312  -2.552  -0.499  0.00  0.00    -0.245 OA
BRANCH  14  16
ATOM     16  O   UNL     1       0.671  -0.465  -1.174  0.00  0.00    -0.461 OA
BRANCH  16  18
ATOM     17  C   UNL     1      -0.019   1.526   0.010  0.00  0.00    +0.048 C 
ATOM     18  C   UNL     1       0.002  -0.004   0.002  0.00  0.00    +0.229 C 
ENDBRANCH  16  18
ENDBRANCH  14  16
ENDBRANCH   5  14
ENDBRANCH   1   9
BRANCH   2  19
ATOM     19  C   UNL     1      -2.497  -2.610  -5.376  0.00  0.00    +0.071 C 
ATOM     20  C   UNL     1      -3.016  -2.940  -6.587  0.00  0.00    +0.051 C 
BRANCH  20  21
ATOM     21  C   UNL     1      -4.396  -2.767  -6.836  0.00  0.00    +0.129 A 
ATOM     22  C   UNL     1      -5.051  -3.067  -8.016  0.00  0.00    +0.050 A 
ATOM     23  C   UNL     1      -6.396  -2.743  -7.825  0.00  0.00    +0.050 A 
ATOM     24  C   UNL     1      -6.516  -2.260  -6.542  0.00  0.00    +0.136 A 
ATOM     25  O   UNL     1      -5.303  -2.287  -5.960  0.00  0.00    -0.455 OA
BRANCH  24  26
ATOM     26  C   UNL     1      -7.765  -1.795  -5.909  0.00  0.00    +0.017 A 
ATOM     27  C   UNL     1      -8.967  -1.829  -6.620  0.00  0.00    +0.013 A 
ATOM     28  C   UNL     1     -10.131  -1.394  -6.023  0.00  0.00    +0.021 A 
ATOM     29  C   UNL     1     -10.111  -0.924  -4.720  0.00  0.00    +0.041 A 
ATOM     30  C   UNL     1      -8.923  -0.889  -4.009  0.00  0.00    +0.021 A 
ATOM     31  C   UNL     1      -7.753  -1.326  -4.593  0.00  0.00    +0.013 A 
ATOM     32 CL   UNL     1     -11.581  -0.378  -3.975  0.00  0.00    -0.084 Cl
ENDBRANCH  24  26
ENDBRANCH  20  21
ENDBRANCH   2  19
TORSDOF 7
