REMARK  Name = ZINC45529567
REMARK  7 active torsions:
REMARK  status: ('A' for Active; 'I' for Inactive)
REMARK    1  A    between atoms: C_1  and  C_2
REMARK    2  A    between atoms: C_16  and  C_17
REMARK    3  A    between atoms: N_19  and  C_20
REMARK    4  A    between atoms: C_20  and  C_21
REMARK    5  A    between atoms: C_21  and  N_28
REMARK    6  A    between atoms: N_28  and  C_29
REMARK    7  A    between atoms: N_28  and  C_30
REMARK                            x       y       z     vdW  Elec       q    Type
REMARK                         _______ _______ _______ _____ _____    ______ ____
ROOT
ATOM      1  C   UNL     1      -1.028   1.710   0.207  0.00  0.00    +0.046 C 
ATOM      2  C   UNL     1      -1.526   0.290   0.280  0.00  0.00    -0.017 A 
ATOM      3  C   UNL     1      -2.186  -0.277  -0.813  0.00  0.00    +0.076 A 
ATOM      4  C   UNL     1      -2.615  -1.613  -0.647  0.00  0.00    +0.116 A 
ATOM      5  N   UNL     1      -3.257  -2.267  -1.607  0.00  0.00    -0.226 NA
ATOM      6  C   UNL     1      -3.531  -1.710  -2.753  0.00  0.00    +0.114 A 
ATOM      7  N   UNL     1      -3.164  -0.425  -3.030  0.00  0.00    -0.296 N 
ATOM      8  C   UNL     1      -2.503   0.323  -2.129  0.00  0.00    +0.263 A 
ATOM      9  O   UNL     1      -2.174   1.467  -2.389  0.00  0.00    -0.267 OA
ATOM     10  C   UNL     1      -3.511   0.128  -4.345  0.00  0.00    +0.126 C 
ATOM     11  C   UNL     1      -5.009   0.424  -4.385  0.00  0.00    +0.022 C 
ATOM     12  C   UNL     1      -5.793  -0.782  -4.873  0.00  0.00    +0.002 C 
ATOM     13  C   UNL     1      -5.704  -1.953  -3.910  0.00  0.00    +0.008 C 
ATOM     14  C   UNL     1      -4.274  -2.482  -3.819  0.00  0.00    +0.074 C 
ATOM     15  S   UNL     1      -2.083  -2.011   0.999  0.00  0.00    -0.064 S 
ATOM     16  C   UNL     1      -1.328  -0.447   1.411  0.00  0.00    +0.079 A 
ENDROOT
BRANCH  16  17
ATOM     17  C   UNL     1      -0.662  -0.052   2.656  0.00  0.00    +0.251 C 
ATOM     18  O   UNL     1      -0.199   1.068   2.769  0.00  0.00    -0.270 OA
ATOM     19  N   UNL     1      -0.563  -0.929   3.675  0.00  0.00    -0.312 N 
ATOM     20  H   UNL     1      -0.932  -1.821   3.584  0.00  0.00    +0.149 HD
BRANCH  19  21
ATOM     21  C   UNL     1       0.102  -0.534   4.919  0.00  0.00    +0.092 C 
BRANCH  21  22
ATOM     22  C   UNL     1      -0.041  -1.653   5.951  0.00  0.00    -0.050 C 
ATOM     23  C   UNL     1      -0.287  -1.058   7.311  0.00  0.00    -0.010 C 
ATOM     24  C   UNL     1       0.275   0.370   7.440  0.00  0.00    -0.001 C 
ATOM     25  C   UNL     1       1.664   0.527   6.792  0.00  0.00    -0.000 C 
ATOM     26  C   UNL     1       2.566  -0.644   7.075  0.00  0.00    -0.000 C 
ATOM     27  C   UNL     1       2.450  -1.645   5.906  0.00  0.00    -0.001 C 
ATOM     28  C   UNL     1       1.261  -2.478   6.006  0.00  0.00    -0.010 C 
BRANCH  22  29
ATOM     29  N   UNL     1      -1.163  -2.526   5.580  0.00  0.00    +0.381 N 
ATOM     30  C   UNL     1      -1.330  -3.570   6.601  0.00  0.00    -0.096 C 
ATOM     31  C   UNL     1      -2.393  -1.730   5.488  0.00  0.00    -0.096 C 
ATOM     32  H   UNL     1      -0.973  -2.957   4.688  0.00  0.00    -0.082 HD
ENDBRANCH  22  29
ENDBRANCH  21  22
ENDBRANCH  19  21
ENDBRANCH  16  17
TORSDOF 4
