REMARK  Name = ZINC04236800
REMARK  16 active torsions:
REMARK  status: ('A' for Active; 'I' for Inactive)
REMARK    1  A    between atoms: C_1  and  C_2
REMARK    2  A    between atoms: C_5  and  O_30
REMARK    3  A    between atoms: C_7  and  C_27
REMARK    4  A    between atoms: C_7  and  C_28
REMARK    5  A    between atoms: C_12  and  O_26
REMARK    6  A    between atoms: C_14  and  C_16
REMARK    7  A    between atoms: C_16  and  C_17
REMARK    8  A    between atoms: N_19  and  C_20
REMARK    9  A    between atoms: C_20  and  C_21
REMARK   10  A    between atoms: C_28  and  O_29
REMARK   11  A    between atoms: O_30  and  C_31
REMARK   12  A    between atoms: N_33  and  C_34
REMARK   13  A    between atoms: C_36  and  O_42
REMARK   14  A    between atoms: C_38  and  O_40
REMARK   15  A    between atoms: O_40  and  C_41
REMARK   16  A    between atoms: O_42  and  C_43
REMARK                            x       y       z     vdW  Elec       q    Type
REMARK                         _______ _______ _______ _____ _____    ______ ____
ROOT
ATOM      1  C   UNL     1       2.199   0.791   1.386  0.00  0.00    +0.012 C 
ATOM      2  C   UNL     1       1.440   1.348   2.592  0.00  0.00    -0.023 C 
ATOM      3  C   UNL     1       1.425   2.876   2.523  0.00  0.00    +0.011 C 
ATOM      4  C   UNL     1       0.732   3.322   1.234  0.00  0.00    +0.046 C 
ATOM      5  C   UNL     1      -0.705   2.796   1.219  0.00  0.00    +0.186 C 
ATOM      6  C   UNL     1      -0.690   1.268   1.288  0.00  0.00    +0.031 C 
ATOM      7  C   UNL     1       0.003   0.823   2.578  0.00  0.00    +0.007 C 
ATOM      8  C   UNL     1       0.018  -0.706   2.647  0.00  0.00    +0.007 C 
ATOM      9  C   UNL     1       0.711  -1.151   3.936  0.00  0.00    +0.032 C 
ATOM     10  C   UNL     1       2.148  -0.626   3.950  0.00  0.00    +0.119 C 
ATOM     11  C   UNL     1       2.133   0.903   3.881  0.00  0.00    +0.032 C 
ATOM     12  C   UNL     1      -2.127   0.743   1.274  0.00  0.00    +0.017 C 
ENDROOT
BRANCH  10  13
ATOM     13  O   UNL     1       2.857  -1.146   2.824  0.00  0.00    -0.391 OA
ATOM     14  H   UNL     1       2.906  -2.112   2.802  0.00  0.00    +0.210 HD
ENDBRANCH  10  13
BRANCH  11  15
ATOM     15  C   UNL     1       3.570   1.428   3.896  0.00  0.00    +0.102 C 
BRANCH  15  16
ATOM     16  C   UNL     1       4.213   1.095   5.217  0.00  0.00    +0.214 C 
ATOM     17  O   UNL     1       3.585   0.496   6.064  0.00  0.00    -0.276 OA
ATOM     18  N   UNL     1       5.487   1.462   5.458  0.00  0.00    -0.308 N 
ATOM     19  H   UNL     1       5.990   1.941   4.780  0.00  0.00    +0.149 HD
BRANCH  18  20
ATOM     20  C   UNL     1       6.113   1.139   6.742  0.00  0.00    +0.178 C 
BRANCH  20  21
ATOM     21  C   UNL     1       7.528   1.656   6.756  0.00  0.00    +0.122 A 
ATOM     22  C   UNL     1       7.916   2.877   7.169  0.00  0.00    +0.046 A 
ATOM     23  C   UNL     1       9.320   2.935   7.013  0.00  0.00    +0.041 A 
ATOM     24  C   UNL     1       9.705   1.750   6.507  0.00  0.00    +0.195 A 
ATOM     25  O   UNL     1       8.616   0.979   6.354  0.00  0.00    -0.466 OA
ENDBRANCH  20  21
ENDBRANCH  18  20
ENDBRANCH  15  16
ENDBRANCH  11  15
BRANCH   6  26
ATOM     26  C   UNL     1       0.069   0.711   0.083  0.00  0.00    +0.166 C 
BRANCH  26  27
ATOM     27  O   UNL     1      -0.681   0.958  -1.108  0.00  0.00    -0.394 OA
ATOM     28  H   UNL     1      -0.259   0.630  -1.914  0.00  0.00    +0.209 HD
ENDBRANCH  26  27
ENDBRANCH   6  26
BRANCH   5  29
ATOM     29  O   UNL     1      -1.363   3.219  -0.004  0.00  0.00    -0.446 OA
BRANCH  29  30
ATOM     30  C   UNL     1      -2.011   4.399   0.027  0.00  0.00    +0.405 C 
ATOM     31  O   UNL     1      -2.027   5.057   1.048  0.00  0.00    -0.226 OA
ATOM     32  N   UNL     1      -2.643   4.850  -1.075  0.00  0.00    -0.251 N 
ATOM     33  H   UNL     1      -2.689   4.295  -1.869  0.00  0.00    +0.158 HD
BRANCH  32  34
ATOM     34  C   UNL     1      -3.233   6.119  -1.074  0.00  0.00    +0.043 A 
ATOM     35  C   UNL     1      -3.830   6.605   0.081  0.00  0.00    +0.069 A 
ATOM     36  C   UNL     1      -4.409   7.865   0.084  0.00  0.00    +0.125 A 
ATOM     37  C   UNL     1      -4.402   8.634  -1.071  0.00  0.00    +0.091 A 
ATOM     38  C   UNL     1      -3.812   8.146  -2.227  0.00  0.00    +0.125 A 
ATOM     39  C   UNL     1      -3.227   6.888  -2.229  0.00  0.00    +0.069 A 
BRANCH  38  40
ATOM     40  O   UNL     1      -3.806   8.899  -3.357  0.00  0.00    -0.495 OA
ATOM     41  C   UNL     1      -4.426  10.185  -3.283  0.00  0.00    +0.277 C 
ENDBRANCH  38  40
BRANCH  36  42
ATOM     42  O   UNL     1      -4.987   8.345   1.216  0.00  0.00    -0.495 OA
ATOM     43  C   UNL     1      -5.570   9.648   1.145  0.00  0.00    +0.277 C 
ENDBRANCH  36  42
ENDBRANCH  32  34
ENDBRANCH  29  30
ENDBRANCH   5  29
TORSDOF 12
