REMARK  Name = ZINC11408014
REMARK  7 active torsions:
REMARK  status: ('A' for Active; 'I' for Inactive)
REMARK    1  A    between atoms: C_1  and  C_2
REMARK    2  A    between atoms: C_2  and  C_4
REMARK    3  A    between atoms: C_2  and  O_11
REMARK    4  A    between atoms: N_9  and  C_10
REMARK    5  A    between atoms: O_11  and  C_12
REMARK    6  A    between atoms: C_12  and  C_14
REMARK    7  A    between atoms: C_27  and  C_28
REMARK                            x       y       z     vdW  Elec       q    Type
REMARK                         _______ _______ _______ _____ _____    ______ ____
ROOT
ATOM      1  C   UNL     1       2.479   0.140  -0.661  0.00  0.00    +0.073 A 
ATOM      2  C   UNL     1       1.295  -0.670  -0.376  0.00  0.00    +0.015 A 
ATOM      3  C   UNL     1       1.334  -2.067  -0.419  0.00  0.00    +0.011 A 
ATOM      4  C   UNL     1       0.205  -2.782  -0.146  0.00  0.00    +0.001 A 
ATOM      5  C   UNL     1      -0.987  -2.136   0.177  0.00  0.00    +0.002 A 
ATOM      6  C   UNL     1      -1.060  -0.778   0.228  0.00  0.00    +0.028 A 
ATOM      7  C   UNL     1       0.085  -0.006  -0.049  0.00  0.00    +0.072 A 
ATOM      8  N   UNL     1       0.045   1.323  -0.007  0.00  0.00    -0.247 NA
ATOM      9  C   UNL     1       1.102   2.087  -0.262  0.00  0.00    +0.072 A 
ATOM     10  C   UNL     1       2.343   1.520  -0.594  0.00  0.00    -0.007 A 
ATOM     11  C   UNL     1       3.357   2.613  -0.830  0.00  0.00    +0.043 C 
ATOM     12  C   UNL     1       2.618   3.939  -0.609  0.00  0.00    +0.042 C 
ATOM     13  C   UNL     1       1.202   3.559  -0.253  0.00  0.00    -0.021 C 
ATOM     14  C   UNL     1       0.204   4.415   0.025  0.00  0.00    +0.013 C 
ENDROOT
BRANCH  14  15
ATOM     15  C   UNL     1       0.481   5.857   0.142  0.00  0.00    -0.025 A 
ATOM     16  C   UNL     1       1.660   6.299   0.747  0.00  0.00    +0.008 A 
ATOM     17  C   UNL     1       1.915   7.651   0.849  0.00  0.00    +0.001 A 
ATOM     18  C   UNL     1       1.000   8.569   0.363  0.00  0.00    +0.000 A 
ATOM     19  C   UNL     1      -0.172   8.139  -0.234  0.00  0.00    +0.001 A 
ATOM     20  C   UNL     1      -0.438   6.791  -0.347  0.00  0.00    +0.008 A 
ENDBRANCH  14  15
BRANCH   1  21
ATOM     21  C   UNL     1       3.771  -0.487  -1.008  0.00  0.00    +0.341 C 
ATOM     22  O   UNL     1       4.041  -0.721  -2.169  0.00  0.00    -0.245 OA
BRANCH  21  23
ATOM     23  O   UNL     1       4.651  -0.799  -0.037  0.00  0.00    -0.449 OA
BRANCH  23  25
ATOM     24  C   UNL     1       6.939  -0.322  -0.720  0.00  0.00    +0.062 C 
ATOM     25  C   UNL     1       5.900  -1.413  -0.451  0.00  0.00    +0.259 C 
BRANCH  25  26
ATOM     26  C   UNL     1       6.399  -2.323   0.642  0.00  0.00    +0.261 C 
ATOM     27  O   UNL     1       5.764  -2.443   1.668  0.00  0.00    -0.271 OA
ATOM     28  N   UNL     1       7.550  -3.004   0.478  0.00  0.00    -0.237 N 
ATOM     29  C   UNL     1       7.996  -3.818   1.455  0.00  0.00    +0.306 C 
ATOM     30  O   UNL     1       7.360  -3.938   2.484  0.00  0.00    -0.252 OA
ATOM     31  N   UNL     1       9.148  -4.499   1.292  0.00  0.00    -0.302 N 
ATOM     32  C   UNL     1       9.633  -5.384   2.353  0.00  0.00    +0.129 C 
ATOM     33  H   UNL     1       8.058  -2.908  -0.343  0.00  0.00    +0.159 HD
ATOM     34  H   UNL     1       9.656  -4.403   0.471  0.00  0.00    +0.150 HD
ENDBRANCH  25  26
ENDBRANCH  23  25
ENDBRANCH  21  23
ENDBRANCH   1  21
TORSDOF 5
