REMARK  Name = ZINC34708849
REMARK  6 active torsions:
REMARK  status: ('A' for Active; 'I' for Inactive)
REMARK    1  A    between atoms: C_1  and  C_2
REMARK    2  A    between atoms: C_2  and  C_4
REMARK    3  A    between atoms: C_2  and  N_10
REMARK    4  A    between atoms: C_11  and  C_13
REMARK    5  A    between atoms: C_16  and  C_30
REMARK    6  A    between atoms: C_21  and  C_23
REMARK                            x       y       z     vdW  Elec       q    Type
REMARK                         _______ _______ _______ _____ _____    ______ ____
ROOT
ATOM      1  C   UNL     1       2.800  -1.113   2.454  0.00  0.00    +0.093 C 
ATOM      2  C   UNL     1       4.306  -1.141   2.185  0.00  0.00    +0.024 C 
ATOM      3  C   UNL     1       4.781   0.259   1.790  0.00  0.00    +0.037 C 
ATOM      4  C   UNL     1       4.514   1.229   2.945  0.00  0.00    +0.116 C 
ATOM      5  N   UNL     1       3.092   1.155   3.307  0.00  0.00    -0.296 N 
ATOM      6  C   UNL     1       2.510  -0.159   3.617  0.00  0.00    +0.120 C 
ATOM      7  C   UNL     1       2.336   2.269   3.353  0.00  0.00    +0.249 C 
ATOM      8  O   UNL     1       1.139   2.184   3.549  0.00  0.00    -0.270 OA
ENDROOT
BRANCH   7   9
ATOM      9  C   UNL     1       2.962   3.594   3.166  0.00  0.00    +0.072 A 
ATOM     10  C   UNL     1       4.047   3.976   3.957  0.00  0.00    +0.016 A 
ATOM     11  C   UNL     1       4.627   5.213   3.777  0.00  0.00    +0.001 A 
ATOM     12  C   UNL     1       4.136   6.080   2.815  0.00  0.00    +0.003 A 
ATOM     13  C   UNL     1       3.061   5.712   2.027  0.00  0.00    +0.039 A 
ATOM     14  C   UNL     1       2.473   4.470   2.192  0.00  0.00    +0.135 A 
ATOM     15  F   UNL     1       1.426   4.108   1.418  0.00  0.00    -0.205 F 
ENDBRANCH   7   9
BRANCH   3  16
ATOM     16  C   UNL     1       6.258   0.223   1.494  0.00  0.00    -0.043 A 
ATOM     17  C   UNL     1       7.151  -0.173   2.472  0.00  0.00    +0.004 A 
ATOM     18  C   UNL     1       8.506  -0.206   2.200  0.00  0.00    +0.000 A 
ATOM     19  C   UNL     1       8.968   0.158   0.949  0.00  0.00    +0.000 A 
ATOM     20  C   UNL     1       8.076   0.553  -0.030  0.00  0.00    +0.000 A 
ATOM     21  C   UNL     1       6.721   0.582   0.241  0.00  0.00    +0.004 A 
ENDBRANCH   3  16
BRANCH   1  23
ATOM     22  N   UNL     1       0.734  -0.531   1.225  0.00  0.00    -0.308 N 
ATOM     23  C   UNL     1       2.077  -0.637   1.220  0.00  0.00    +0.218 C 
ATOM     24  O   UNL     1       2.705  -0.349   0.223  0.00  0.00    -0.275 OA
ATOM     25  H   UNL     1       0.232  -0.761   2.023  0.00  0.00    +0.149 HD
BRANCH  22  27
ATOM     26  C   UNL     1       0.005   1.462   0.008  0.00  0.00    +0.033 C 
ATOM     27  C   UNL     1       0.031  -0.068   0.026  0.00  0.00    +0.100 C 
BRANCH  27  28
ATOM     28  C   UNL     1      -1.381  -0.594   0.036  0.00  0.00    -0.027 A 
ATOM     29  C   UNL     1      -2.100  -0.621   1.217  0.00  0.00    +0.005 A 
ATOM     30  C   UNL     1      -3.395  -1.104   1.226  0.00  0.00    +0.000 A 
ATOM     31  C   UNL     1      -3.972  -1.558   0.055  0.00  0.00    +0.000 A 
ATOM     32  C   UNL     1      -3.254  -1.530  -1.126  0.00  0.00    +0.000 A 
ATOM     33  C   UNL     1      -1.960  -1.043  -1.136  0.00  0.00    +0.005 A 
ENDBRANCH  27  28
ENDBRANCH  22  27
ENDBRANCH   1  23
TORSDOF 5
