REMARK  Name = ZINC11566843
REMARK  7 active torsions:
REMARK  status: ('A' for Active; 'I' for Inactive)
REMARK    1  A    between atoms: C_1  and  C_2
REMARK    2  A    between atoms: C_5  and  C_24
REMARK    3  A    between atoms: C_6  and  N_8
REMARK    4  A    between atoms: C_9  and  N_23
REMARK    5  A    between atoms: C_10  and  C_17
REMARK    6  A    between atoms: C_17  and  C_19
REMARK    7  A    between atoms: C_19  and  C_21
REMARK                            x       y       z     vdW  Elec       q    Type
REMARK                         _______ _______ _______ _____ _____    ______ ____
ROOT
ATOM      1  N   UNL     1       1.308  -0.742  -0.607  0.00  0.00    -0.249 N 
ATOM      2  C   UNL     1       2.487  -0.056  -0.505  0.00  0.00    +0.121 A 
ATOM      3  C   UNL     1       2.458   1.288  -0.096  0.00  0.00    +0.121 A 
ATOM      4  C   UNL     1       1.151   1.887   0.202  0.00  0.00    +0.266 A 
ATOM      5  O   UNL     1       1.066   3.047   0.561  0.00  0.00    -0.267 OA
ATOM      6  N   UNL     1       0.045   1.125   0.071  0.00  0.00    -0.274 N 
ATOM      7  H   UNL     1      -0.852   1.518   0.271  0.00  0.00    +0.173 HD
ATOM      8  C   UNL     1       0.134  -0.156  -0.325  0.00  0.00    +0.335 A 
ATOM      9  O   UNL     1      -0.886  -0.808  -0.430  0.00  0.00    -0.246 OA
ENDROOT
BRANCH   1  15
ATOM     10  C   UNL     1       1.150  -4.069  -4.225  0.00  0.00    +0.044 C 
ATOM     11  C   UNL     1       1.251  -3.723  -2.762  0.00  0.00    -0.048 A 
ATOM     12  C   UNL     1       1.362  -4.729  -1.819  0.00  0.00    +0.004 A 
ATOM     13  C   UNL     1       1.456  -4.415  -0.476  0.00  0.00    +0.005 A 
ATOM     14  C   UNL     1       1.444  -3.094  -0.072  0.00  0.00    -0.026 A 
ATOM     15  C   UNL     1       1.327  -2.082  -1.015  0.00  0.00    +0.056 A 
ATOM     16  C   UNL     1       1.233  -2.401  -2.363  0.00  0.00    +0.030 A 
ATOM     17  C   UNL     1       1.552  -2.753   1.392  0.00  0.00    +0.046 C 
ENDBRANCH   1  15
BRANCH   2  18
ATOM     18  N   UNL     1       3.669  -0.665  -0.795  0.00  0.00    -0.343 N 
ATOM     19  H   UNL     1       3.689  -1.614  -0.995  0.00  0.00    +0.144 HD
ATOM     20  H   UNL     1       4.491  -0.150  -0.802  0.00  0.00    +0.144 HD
ENDBRANCH   2  18
BRANCH   3  21
ATOM     21  C   UNL     1       3.647   2.039   0.024  0.00  0.00    +0.189 C 
ATOM     22  O   UNL     1       4.056   2.685  -0.920  0.00  0.00    -0.290 OA
BRANCH  21  23
ATOM     23  C   UNL     1       4.410   2.038   1.323  0.00  0.00    +0.149 C 
ATOM     24  C   UNL     1       3.819   3.092   2.262  0.00  0.00    +0.033 C 
ATOM     25 CL   UNL     1       4.287   0.412   2.092  0.00  0.00    -0.114 Cl
ENDBRANCH  21  23
ENDBRANCH   3  21
TORSDOF 4
