REMARK  Name = ZINC09901816
REMARK  3 active torsions:
REMARK  status: ('A' for Active; 'I' for Inactive)
REMARK    1  A    between atoms: C_1  and  C_2
REMARK    2  A    between atoms: C_7  and  C_8
REMARK    3  A    between atoms: C_9  and  C_10
REMARK                            x       y       z     vdW  Elec       q    Type
REMARK                         _______ _______ _______ _____ _____    ______ ____
ROOT
ATOM      1  C   UNL     1      -0.014   1.213   0.009  0.00  0.00    +0.240 C 
ATOM      2  O   UNL     1      -1.063   1.831   0.024  0.00  0.00    -0.271 OA
ATOM      3  N   UNL     1       1.159   1.876   0.004  0.00  0.00    -0.293 N 
ATOM      4  C   UNL     1       1.198   3.342  -0.103  0.00  0.00    +0.114 C 
ATOM      5  C   UNL     1       1.791   3.918   1.195  0.00  0.00    +0.072 C 
ATOM      6  C   UNL     1       3.022   3.127   1.567  0.00  0.00    +0.023 A 
ATOM      7  C   UNL     1       3.308   1.899   1.083  0.00  0.00    -0.002 A 
ATOM      8  C   UNL     1       4.559   1.482   1.680  0.00  0.00    +0.005 A 
ATOM      9  C   UNL     1       5.330   0.322   1.557  0.00  0.00    +0.010 A 
ATOM     10  C   UNL     1       6.489   0.267   2.291  0.00  0.00    +0.001 A 
ATOM     11  C   UNL     1       6.887   1.304   3.118  0.00  0.00    +0.002 A 
ATOM     12  C   UNL     1       6.143   2.463   3.259  0.00  0.00    +0.026 A 
ATOM     13  C   UNL     1       4.961   2.548   2.526  0.00  0.00    +0.047 A 
ATOM     14  N   UNL     1       4.011   3.523   2.430  0.00  0.00    -0.358 N 
ATOM     15  H   UNL     1       4.032   4.370   2.902  0.00  0.00    +0.166 HD
ATOM     16  C   UNL     1       2.439   1.152   0.101  0.00  0.00    +0.145 C 
ENDROOT
BRANCH   1  18
ATOM     17  C   UNL     1      -1.198  -0.914  -0.091  0.00  0.00    +0.013 C 
ATOM     18  C   UNL     1      -0.028  -0.251   0.001  0.00  0.00    +0.068 C 
BRANCH  17  25
ATOM     19  C   UNL     1      -3.723  -2.317  -0.275  0.00  0.00    +0.044 C 
ATOM     20  C   UNL     1      -2.424  -3.077  -0.188  0.00  0.00    -0.043 A 
ATOM     21  C   UNL     1      -2.428  -4.456  -0.201  0.00  0.00    +0.004 A 
ATOM     22  C   UNL     1      -1.238  -5.156  -0.114  0.00  0.00    +0.000 A 
ATOM     23  C   UNL     1      -0.034  -4.479  -0.021  0.00  0.00    +0.001 A 
ATOM     24  C   UNL     1      -0.013  -3.101  -0.012  0.00  0.00    +0.008 A 
ATOM     25  C   UNL     1      -1.212  -2.386  -0.099  0.00  0.00    -0.022 A 
ENDBRANCH  17  25
ENDBRANCH   1  18
TORSDOF 2
