REMARK  Name = ZINC13026820
REMARK  11 active torsions:
REMARK  status: ('A' for Active; 'I' for Inactive)
REMARK    1  A    between atoms: C_1  and  N_2
REMARK    2  A    between atoms: N_2  and  C_3
REMARK    3  A    between atoms: N_2  and  S_9
REMARK    4  A    between atoms: S_9  and  C_12
REMARK    5  A    between atoms: C_16  and  C_18
REMARK    6  A    between atoms: N_20  and  C_21
REMARK    7  A    between atoms: C_21  and  C_22
REMARK    8  A    between atoms: C_22  and  C_24
REMARK    9  A    between atoms: C_22  and  N_32
REMARK   10  A    between atoms: C_29  and  O_30
REMARK   11  A    between atoms: O_30  and  C_31
REMARK                            x       y       z     vdW  Elec       q    Type
REMARK                         _______ _______ _______ _____ _____    ______ ____
ROOT
ATOM      1  C   UNL     1       4.130   5.657   2.839  0.00  0.00    +0.244 C 
ATOM      2  O   UNL     1       3.503   5.308   3.820  0.00  0.00    -0.270 OA
ATOM      3  N   UNL     1       3.754   5.237   1.614  0.00  0.00    -0.313 N 
ATOM      4  H   UNL     1       4.322   5.553   0.726  0.00  0.00    +0.149 HD
ENDROOT
BRANCH   1   9
ATOM      5  C   UNL     1       6.793   7.804   4.388  0.00  0.00    +0.106 A 
ATOM      6  C   UNL     1       7.506   8.199   3.270  0.00  0.00    +0.028 A 
ATOM      7  C   UNL     1       7.123   7.770   2.011  0.00  0.00    +0.003 A 
ATOM      8  C   UNL     1       6.030   6.940   1.865  0.00  0.00    +0.013 A 
ATOM      9  C   UNL     1       5.305   6.542   2.989  0.00  0.00    +0.039 A 
ATOM     10  C   UNL     1       5.696   6.979   4.255  0.00  0.00    +0.041 A 
BRANCH   5  11
ATOM     11  S   UNL     1       7.290   8.356   5.987  0.00  0.00    +0.061 S 
ATOM     12  O   UNL     1       8.020   9.560   5.792  0.00  0.00    -0.153 OA
ATOM     13  O   UNL     1       6.137   8.289   6.815  0.00  0.00    -0.153 OA
BRANCH  11  15
ATOM     14  C   UNL     1       9.796   7.396   6.319  0.00  0.00    +0.132 C 
ATOM     15  N   UNL     1       8.363   7.242   6.578  0.00  0.00    -0.177 NA
BRANCH  15  16
ATOM     16  C   UNL     1       7.879   6.102   7.361  0.00  0.00    +0.080 C 
ATOM     17  C   UNL     1       8.505   6.139   8.756  0.00  0.00    +0.020 C 
ATOM     18  C   UNL     1       8.000   4.949   9.574  0.00  0.00    +0.002 C 
ATOM     19  C   UNL     1       8.391   3.646   8.873  0.00  0.00    +0.000 C 
ATOM     20  C   UNL     1       7.764   3.609   7.478  0.00  0.00    +0.002 C 
ATOM     21  C   UNL     1       8.270   4.800   6.660  0.00  0.00    +0.020 C 
ENDBRANCH  15  16
ENDBRANCH  11  15
ENDBRANCH   5  11
ENDBRANCH   1   9
BRANCH   3  22
ATOM     22  C   UNL     1       2.590   4.360   1.466  0.00  0.00    +0.094 C 
BRANCH  22  23
ATOM     23  C   UNL     1       2.460   3.929   0.003  0.00  0.00    -0.017 C 
BRANCH  23  24
ATOM     24  C   UNL     1       3.648   3.084  -0.379  0.00  0.00    -0.018 A 
ATOM     25  C   UNL     1       4.742   3.665  -0.992  0.00  0.00    +0.005 A 
ATOM     26  C   UNL     1       5.832   2.891  -1.342  0.00  0.00    +0.000 A 
ATOM     27  C   UNL     1       5.828   1.532  -1.085  0.00  0.00    +0.004 A 
ATOM     28  C   UNL     1       4.740   0.947  -0.468  0.00  0.00    +0.046 A 
ATOM     29  C   UNL     1       3.645   1.722  -0.115  0.00  0.00    +0.122 A 
BRANCH  29  30
ATOM     30  O   UNL     1       2.571   1.148   0.488  0.00  0.00    -0.495 OA
ATOM     31  C   UNL     1       2.636  -0.259   0.728  0.00  0.00    +0.277 C 
ENDBRANCH  29  30
ENDBRANCH  23  24
BRANCH  23  32
ATOM     32  N   UNL     1       2.409   5.120  -0.856  0.00  0.00    +0.385 N 
ATOM     33  C   UNL     1       2.228   4.741  -2.280  0.00  0.00    -0.078 C 
ATOM     34  C   UNL     1       1.680   6.039  -2.925  0.00  0.00    -0.020 C 
ATOM     35  C   UNL     1       0.753   6.606  -1.826  0.00  0.00    -0.020 C 
ATOM     36  C   UNL     1       1.249   5.971  -0.514  0.00  0.00    -0.078 C 
ATOM     37  H   UNL     1       3.360   5.649  -0.691  0.00  0.00    -0.081 HD
ENDBRANCH  23  32
ENDBRANCH  22  23
ENDBRANCH   3  22
TORSDOF 9
