REMARK  Name = ZINC39657764
REMARK  13 active torsions:
REMARK  status: ('A' for Active; 'I' for Inactive)
REMARK    1  A    between atoms: C_1  and  C_2
REMARK    2  A    between atoms: C_2  and  C_3
REMARK    3  A    between atoms: C_3  and  C_4
REMARK    4  A    between atoms: C_4  and  C_5
REMARK    5  A    between atoms: C_5  and  C_7
REMARK    6  A    between atoms: C_5  and  C_8
REMARK    7  A    between atoms: C_12  and  C_21
REMARK    8  A    between atoms: N_23  and  C_24
REMARK    9  A    between atoms: C_24  and  C_25
REMARK   10  A    between atoms: C_30  and  S_31
REMARK   11  A    between atoms: S_31  and  C_32
REMARK   12  A    between atoms: C_37  and  C_38
REMARK   13  A    between atoms: C_38  and  O_39
REMARK                            x       y       z     vdW  Elec       q    Type
REMARK                         _______ _______ _______ _____ _____    ______ ____
ROOT
ATOM      1  C   UNL     1       5.196  -4.033  -3.809  0.00  0.00    +0.218 C 
ATOM      2  O   UNL     1       5.064  -3.497  -2.729  0.00  0.00    -0.275 OA
ATOM      3  N   UNL     1       6.429  -4.263  -4.301  0.00  0.00    -0.311 N 
ATOM      4  H   UNL     1       6.535  -4.625  -5.195  0.00  0.00    +0.149 HD
ENDROOT
BRANCH   1   9
ATOM      5  C   UNL     1       1.419  -3.456  -2.238  0.00  0.00    +0.218 C 
ATOM      6  O   UNL     1       0.878  -4.115  -1.375  0.00  0.00    -0.275 OA
ATOM      7  N   UNL     1       2.017  -4.070  -3.279  0.00  0.00    -0.300 N 
ATOM      8  C   UNL     1       2.821  -3.450  -4.358  0.00  0.00    +0.121 C 
ATOM      9  C   UNL     1       3.980  -4.443  -4.600  0.00  0.00    +0.100 C 
ATOM     10  C   UNL     1       3.446  -5.797  -4.104  0.00  0.00    -0.004 C 
ATOM     11  C   UNL     1       2.024  -5.517  -3.599  0.00  0.00    +0.115 C 
ATOM     12  C   UNL     1       3.413  -6.803  -5.250  0.00  0.00    -0.010 C 
ATOM     13  C   UNL     1       2.934  -8.158  -4.720  0.00  0.00    -0.082 C 
ATOM     14  N   UNL     1       3.842  -8.620  -3.663  0.00  0.00    +0.379 N 
ATOM     15  C   UNL     1       3.798  -7.694  -2.525  0.00  0.00    -0.082 C 
ATOM     16  C   UNL     1       4.313  -6.320  -2.962  0.00  0.00    -0.010 C 
ATOM     17  H   UNL     1       3.559  -9.540  -3.357  0.00  0.00    -0.086 HD
ATOM     18  H   UNL     1       4.783  -8.663  -4.024  0.00  0.00    -0.086 HD
BRANCH   5  19
ATOM     19  C   UNL     1       1.421  -1.952  -2.147  0.00  0.00    +0.072 C 
ATOM     20  C   UNL     1       0.525  -1.374  -3.244  0.00  0.00    +0.017 C 
BRANCH  19  21
ATOM     21  C   UNL     1       0.892  -1.523  -0.777  0.00  0.00    +0.012 C 
BRANCH  21  22
ATOM     22  C   UNL     1       1.019  -0.005  -0.634  0.00  0.00    +0.000 C 
BRANCH  22  24
ATOM     23  C   UNL     1       0.624   1.935   0.890  0.00  0.00    +0.004 C 
ATOM     24  C   UNL     1       0.614   0.409   0.782  0.00  0.00    -0.003 C 
ENDBRANCH  22  24
ENDBRANCH  21  22
ENDBRANCH  19  21
ENDBRANCH   5  19
ENDBRANCH   1   9
BRANCH   3  25
ATOM     25  C   UNL     1       7.610  -3.967  -3.487  0.00  0.00    +0.140 C 
BRANCH  25  26
ATOM     26  C   UNL     1       8.855  -4.196  -4.305  0.00  0.00    -0.017 A 
ATOM     27  C   UNL     1       9.608  -5.337  -4.112  0.00  0.00    +0.006 A 
ATOM     28  C   UNL     1      10.751  -5.548  -4.862  0.00  0.00    +0.000 A 
ATOM     29  C   UNL     1      11.143  -4.618  -5.808  0.00  0.00    +0.001 A 
ATOM     30  C   UNL     1      10.395  -3.475  -6.006  0.00  0.00    +0.015 A 
ATOM     31  C   UNL     1       9.243  -3.263  -5.258  0.00  0.00    +0.017 A 
BRANCH  31  32
ATOM     32  S   UNL     1       8.280  -1.809  -5.513  0.00  0.00    -0.089 S 
BRANCH  32  33
ATOM     33  C   UNL     1       8.682  -0.785  -4.136  0.00  0.00    +0.018 A 
ATOM     34  C   UNL     1       9.532  -1.256  -3.143  0.00  0.00    +0.015 A 
ATOM     35  C   UNL     1       9.845  -0.451  -2.065  0.00  0.00    +0.001 A 
ATOM     36  C   UNL     1       9.313   0.823  -1.974  0.00  0.00    +0.000 A 
ATOM     37  C   UNL     1       8.466   1.294  -2.960  0.00  0.00    +0.007 A 
ATOM     38  C   UNL     1       8.153   0.497  -4.044  0.00  0.00    -0.008 A 
BRANCH  38  39
ATOM     39  C   UNL     1       7.236   1.014  -5.122  0.00  0.00    +0.192 C 
BRANCH  39  40
ATOM     40  O   UNL     1       6.919   2.383  -4.861  0.00  0.00    -0.390 OA
ATOM     41  H   UNL     1       6.394   2.804  -5.555  0.00  0.00    +0.210 HD
ENDBRANCH  39  40
ENDBRANCH  38  39
ENDBRANCH  32  33
ENDBRANCH  31  32
ENDBRANCH  25  26
ENDBRANCH   3  25
TORSDOF 11
