REMARK  Name = ZINC03227518
REMARK  3 active torsions:
REMARK  status: ('A' for Active; 'I' for Inactive)
REMARK    1  A    between atoms: C_6  and  C_7
REMARK    2  A    between atoms: C_13  and  S_20
REMARK    3  A    between atoms: S_20  and  N_23
REMARK                            x       y       z     vdW  Elec       q    Type
REMARK                         _______ _______ _______ _____ _____    ______ ____
ROOT
ATOM      1  C   UNL     1       3.712  -0.705  -0.037  0.00  0.00    +0.191 C 
ATOM      2  N   UNL     1       3.554  -1.978  -0.737  0.00  0.00    -0.322 N 
ATOM      3  C   UNL     1       3.345  -2.069  -2.114  0.00  0.00    +0.057 A 
ATOM      4  C   UNL     1       2.780  -3.235  -2.629  0.00  0.00    +0.047 A 
ATOM      5  C   UNL     1       2.592  -3.373  -3.989  0.00  0.00    +0.069 A 
ATOM      6  C   UNL     1       2.960  -2.355  -4.851  0.00  0.00    +0.125 A 
ATOM      7  C   UNL     1       3.513  -1.192  -4.346  0.00  0.00    +0.060 A 
ATOM      8  C   UNL     1       3.700  -1.050  -2.987  0.00  0.00    +0.128 A 
ATOM      9  S   UNL     1       4.397   0.443  -2.346  0.00  0.00    +0.062 S 
ATOM     10  O   UNL     1       3.367   1.422  -2.362  0.00  0.00    -0.153 OA
ATOM     11  O   UNL     1       5.647   0.631  -2.994  0.00  0.00    -0.153 OA
ATOM     12  N   UNL     1       4.724   0.105  -0.745  0.00  0.00    -0.166 NA
ATOM     13 CL   UNL     1       1.889  -4.830  -4.621  0.00  0.00    -0.081 Cl
ATOM     14  H   UNL     1       3.599  -2.797  -0.220  0.00  0.00    +0.148 HD
ATOM     15  H   UNL     1       5.529   0.422  -0.306  0.00  0.00    +0.150 HD
ENDROOT
BRANCH   1  21
ATOM     16  C   UNL     1       2.378   1.412  -0.013  0.00  0.00    +0.008 A 
ATOM     17  C   UNL     1       1.172   2.088   0.002  0.00  0.00    +0.022 A 
ATOM     18  C   UNL     1      -0.017   1.381   0.010  0.00  0.00    +0.059 A 
ATOM     19  C   UNL     1       0.002  -0.004   0.002  0.00  0.00    +0.060 A 
ATOM     20  C   UNL     1       1.210  -0.678  -0.013  0.00  0.00    +0.028 A 
ATOM     21  C   UNL     1       2.397   0.030  -0.021  0.00  0.00    -0.010 A 
ATOM     22 CL   UNL     1      -1.489  -0.893   0.011  0.00  0.00    -0.082 Cl
ATOM     23 CL   UNL     1      -1.532   2.229   0.021  0.00  0.00    -0.082 Cl
ENDBRANCH   1  21
BRANCH   6  24
ATOM     24  S   UNL     1       2.724  -2.538  -6.588  0.00  0.00    +0.057 S 
ATOM     25  O   UNL     1       1.388  -2.987  -6.770  0.00  0.00    -0.153 OA
ATOM     26  O   UNL     1       3.218  -1.351  -7.192  0.00  0.00    -0.153 OA
BRANCH  24  27
ATOM     27  N   UNL     1       3.710  -3.771  -7.088  0.00  0.00    -0.203 NA
ATOM     28  H   UNL     1       3.454  -4.320  -7.846  0.00  0.00    +0.144 HD
ATOM     29  H   UNL     1       4.543  -3.944  -6.623  0.00  0.00    +0.144 HD
ENDBRANCH  24  27
ENDBRANCH   6  24
TORSDOF 3
