REMARK  Name = ZINC13134631
REMARK  12 active torsions:
REMARK  status: ('A' for Active; 'I' for Inactive)
REMARK    1  A    between atoms: C_1  and  C_2
REMARK    2  A    between atoms: C_2  and  C_3
REMARK    3  A    between atoms: C_3  and  C_4
REMARK    4  A    between atoms: C_4  and  C_6
REMARK    5  A    between atoms: C_4  and  N_7
REMARK    6  A    between atoms: C_10  and  C_29
REMARK    7  A    between atoms: N_14  and  C_15
REMARK    8  A    between atoms: C_16  and  C_28
REMARK    9  A    between atoms: N_17  and  C_27
REMARK   10  A    between atoms: N_18  and  C_21
REMARK   11  A    between atoms: C_29  and  C_30
REMARK   12  A    between atoms: N_32  and  C_33
REMARK                            x       y       z     vdW  Elec       q    Type
REMARK                         _______ _______ _______ _____ _____    ______ ____
ROOT
ATOM      1  N   UNL     1       5.114   8.730  -2.111  0.00  0.00    -0.247 N 
ATOM      2  C   UNL     1       5.180   7.936  -1.057  0.00  0.00    +0.235 C 
ATOM      3  O   UNL     1       6.201   7.796  -0.419  0.00  0.00    -0.274 OA
ATOM      4  C   UNL     1       3.896   7.207  -0.694  0.00  0.00    +0.149 C 
ATOM      5  S   UNL     1       2.776   7.836  -2.007  0.00  0.00    -0.077 S 
ATOM      6  C   UNL     1       3.951   8.892  -2.842  0.00  0.00    +0.165 C 
ATOM      7  N   UNL     1       3.756   9.643  -3.896  0.00  0.00    -0.218 NA
ENDROOT
BRANCH   7   8
ATOM      8  C   UNL     1       2.557   9.587  -4.569  0.00  0.00    +0.153 A 
ATOM      9  C   UNL     1       1.796  10.645  -4.954  0.00  0.00    +0.064 A 
ATOM     10  N   UNL     1       0.682  10.170  -5.595  0.00  0.00    -0.282 N 
ATOM     11  N   UNL     1       0.727   8.772  -5.625  0.00  0.00    -0.215 N 
ATOM     12  C   UNL     1       1.860   8.372  -5.013  0.00  0.00    +0.298 A 
ATOM     13  O   UNL     1       2.233   7.224  -4.855  0.00  0.00    -0.264 OA
ATOM     14  C   UNL     1      -0.387  10.996  -6.162  0.00  0.00    +0.171 C 
ATOM     15  C   UNL     1       2.122  12.097  -4.714  0.00  0.00    +0.067 C 
BRANCH  11  16
ATOM     16  C   UNL     1      -0.235   7.933  -6.197  0.00  0.00    +0.067 A 
ATOM     17  C   UNL     1      -1.584   8.144  -5.940  0.00  0.00    +0.028 A 
ATOM     18  C   UNL     1      -2.531   7.318  -6.511  0.00  0.00    +0.002 A 
ATOM     19  C   UNL     1      -2.138   6.274  -7.329  0.00  0.00    +0.000 A 
ATOM     20  C   UNL     1      -0.796   6.058  -7.582  0.00  0.00    +0.002 A 
ATOM     21  C   UNL     1       0.156   6.884  -7.019  0.00  0.00    +0.028 A 
ENDBRANCH  11  16
ENDBRANCH   7   8
BRANCH   1  22
ATOM     22  C   UNL     1       6.314   9.464  -2.521  0.00  0.00    +0.080 C 
ATOM     23  C   UNL     1       6.034  10.968  -2.470  0.00  0.00    +0.028 C 
BRANCH  22  24
ATOM     24  C   UNL     1       6.695   9.064  -3.947  0.00  0.00    +0.022 C 
BRANCH  24  26
ATOM     25  C   UNL     1       7.477   7.187  -5.399  0.00  0.00    +0.004 C 
ATOM     26  C   UNL     1       7.096   7.588  -3.972  0.00  0.00    -0.002 C 
ENDBRANCH  24  26
ENDBRANCH  22  24
ENDBRANCH   1  22
BRANCH   4  27
ATOM     27  C   UNL     1       4.072   5.691  -0.795  0.00  0.00    +0.120 C 
BRANCH  27  28
ATOM     28  C   UNL     1       2.761   5.012  -0.489  0.00  0.00    +0.219 C 
ATOM     29  O   UNL     1       1.784   5.676  -0.216  0.00  0.00    -0.275 OA
ATOM     30  N   UNL     1       2.677   3.667  -0.517  0.00  0.00    -0.283 N 
ATOM     31  H   UNL     1       3.471   3.135  -0.680  0.00  0.00    +0.155 HD
BRANCH  30  32
ATOM     32  C   UNL     1       1.442   3.039  -0.312  0.00  0.00    +0.069 A 
ATOM     33  C   UNL     1       0.451   3.675   0.423  0.00  0.00    +0.026 A 
ATOM     34  C   UNL     1      -0.766   3.053   0.624  0.00  0.00    +0.002 A 
ATOM     35  C   UNL     1      -1.001   1.800   0.088  0.00  0.00    +0.003 A 
ATOM     36  C   UNL     1      -0.015   1.159  -0.640  0.00  0.00    +0.040 A 
ATOM     37  C   UNL     1       1.206   1.776  -0.845  0.00  0.00    +0.144 A 
ATOM     38  F   UNL     1       2.167   1.153  -1.561  0.00  0.00    -0.204 F 
ENDBRANCH  30  32
ENDBRANCH  27  28
ENDBRANCH   4  27
TORSDOF 8
