REMARK  Name = ZINC08684793
REMARK  6 active torsions:
REMARK  status: ('A' for Active; 'I' for Inactive)
REMARK    1  A    between atoms: C_1  and  C_2
REMARK    2  A    between atoms: C_4  and  C_38
REMARK    3  A    between atoms: C_9  and  C_27
REMARK    4  A    between atoms: C_11  and  C_18
REMARK    5  A    between atoms: C_22  and  N_24
REMARK    6  A    between atoms: C_27  and  C_29
REMARK                            x       y       z     vdW  Elec       q    Type
REMARK                         _______ _______ _______ _____ _____    ______ ____
ROOT
ATOM      1  C   UNL     1       7.884   1.529  -0.320  0.00  0.00    +0.044 C 
ATOM      2  C   UNL     1       6.965   0.335  -0.330  0.00  0.00    -0.050 A 
ATOM      3  C   UNL     1       7.483  -0.938  -0.484  0.00  0.00    +0.008 A 
ATOM      4  C   UNL     1       6.646  -2.034  -0.494  0.00  0.00    -0.029 A 
ATOM      5  C   UNL     1       5.271  -1.867  -0.348  0.00  0.00    +0.039 A 
ATOM      6  C   UNL     1       4.760  -0.582  -0.193  0.00  0.00    -0.027 A 
ATOM      7  C   UNL     1       5.600   0.509  -0.183  0.00  0.00    +0.008 A 
ATOM      8  C   UNL     1       3.273  -0.745  -0.064  0.00  0.00    +0.052 C 
ATOM      9  C   UNL     1       2.528   0.016  -1.176  0.00  0.00    +0.069 C 
ATOM     10  C   UNL     1       2.416   1.438  -0.561  0.00  0.00    +0.016 C 
ATOM     11  C   UNL     1       2.260   1.158   0.949  0.00  0.00    -0.047 C 
ATOM     12  C   UNL     1       1.812  -1.150   1.817  0.00  0.00    -0.005 C 
ATOM     13  S   UNL     1       0.583  -0.002   2.578  0.00  0.00    -0.181 S 
ATOM     14  C   UNL     1       0.778   1.361   1.345  0.00  0.00    +0.052 C 
ATOM     15  C   UNL     1       3.030  -2.226  -0.163  0.00  0.00    +0.212 C 
ATOM     16  O   UNL     1       1.958  -2.789  -0.107  0.00  0.00    -0.277 OA
ATOM     17  N   UNL     1       4.236  -2.804  -0.326  0.00  0.00    -0.286 N 
ATOM     18  C   UNL     1       7.221  -3.417  -0.663  0.00  0.00    +0.045 C 
ATOM     19  H   UNL     1       4.369  -3.761  -0.417  0.00  0.00    +0.155 HD
ATOM     20  N   UNL     1       2.817  -0.200   1.204  0.00  0.00    +0.401 N 
ATOM     21  H   UNL     1       3.613  -0.112   1.846  0.00  0.00    -0.078 HD
ENDROOT
BRANCH  10  22
ATOM     22  C   UNL     1       1.206   2.157  -1.097  0.00  0.00    -0.043 A 
ATOM     23  C   UNL     1      -0.013   1.506  -1.163  0.00  0.00    +0.004 A 
ATOM     24  C   UNL     1      -1.122   2.163  -1.660  0.00  0.00    +0.002 A 
ATOM     25  C   UNL     1      -1.016   3.475  -2.083  0.00  0.00    +0.033 A 
ATOM     26  C   UNL     1       0.202   4.127  -2.017  0.00  0.00    +0.126 A 
ATOM     27  C   UNL     1       1.312   3.467  -1.524  0.00  0.00    +0.036 A 
BRANCH  26  28
ATOM     28  N   UNL     1       0.316   5.530  -2.473  0.00  0.00    +0.056 N 
ATOM     29  O   UNL     1       1.389   6.104  -2.415  0.00  0.00    -0.126 OA
ATOM     30  O   UNL     1      -0.663   6.111  -2.907  0.00  0.00    -0.126 OA
ENDBRANCH  26  28
ENDBRANCH  10  22
BRANCH   9  31
ATOM     31  C   UNL     1       1.164  -0.578  -1.416  0.00  0.00    +0.166 C 
ATOM     32  O   UNL     1       0.564  -1.106  -0.504  0.00  0.00    -0.292 OA
BRANCH  31  33
ATOM     33  C   UNL     1       0.560  -0.517  -2.756  0.00  0.00    +0.018 A 
ATOM     34  C   UNL     1       1.246   0.097  -3.809  0.00  0.00    +0.011 A 
ATOM     35  C   UNL     1       0.676   0.145  -5.064  0.00  0.00    +0.001 A 
ATOM     36  C   UNL     1      -0.578  -0.401  -5.279  0.00  0.00    +0.000 A 
ATOM     37  C   UNL     1      -1.266  -1.005  -4.241  0.00  0.00    +0.001 A 
ATOM     38  C   UNL     1      -0.706  -1.067  -2.982  0.00  0.00    +0.011 A 
ENDBRANCH  31  33
ENDBRANCH   9  31
TORSDOF 4
