REMARK  Name = ZINC09118890
REMARK  4 active torsions:
REMARK  status: ('A' for Active; 'I' for Inactive)
REMARK    1  A    between atoms: C_1  and  C_2
REMARK    2  A    between atoms: C_2  and  C_4
REMARK    3  A    between atoms: C_2  and  N_10
REMARK    4  A    between atoms: N_10  and  C_11
REMARK                            x       y       z     vdW  Elec       q    Type
REMARK                         _______ _______ _______ _____ _____    ______ ____
ROOT
ATOM      1  N   UNL     1      -1.036   5.844   1.294  0.00  0.00    -0.333 N 
ATOM      2  H   UNL     1      -0.784   5.310   2.222  0.00  0.00    +0.147 HD
ENDROOT
BRANCH   1   3
ATOM      3  C   UNL     1      -1.127   5.145   0.088  0.00  0.00    +0.031 A 
ATOM      4  C   UNL     1      -1.445   5.822  -1.079  0.00  0.00    +0.023 A 
ATOM      5  C   UNL     1      -1.534   5.128  -2.269  0.00  0.00    +0.002 A 
ATOM      6  C   UNL     1      -1.308   3.766  -2.290  0.00  0.00    +0.004 A 
ATOM      7  C   UNL     1      -0.990   3.083  -1.123  0.00  0.00    -0.042 A 
ATOM      8  C   UNL     1      -0.895   3.769   0.066  0.00  0.00    -0.023 A 
ATOM      9  C   UNL     1      -0.539   3.096   1.365  0.00  0.00    +0.037 C 
ATOM     10  C   UNL     1      -0.741   1.585   1.261  0.00  0.00    +0.005 C 
ATOM     11  C   UNL     1      -0.013   1.086   0.008  0.00  0.00    +0.005 C 
ATOM     12  C   UNL     1      -0.762   1.597  -1.221  0.00  0.00    +0.035 C 
ENDBRANCH   1   3
BRANCH   1  14
ATOM     13  C   UNL     1       0.013   8.029   0.966  0.00  0.00    +0.038 C 
ATOM     14  C   UNL     1      -1.278   7.289   1.323  0.00  0.00    +0.154 C 
BRANCH  14  15
ATOM     15  C   UNL     1      -1.725   7.696   2.703  0.00  0.00    +0.240 C 
ATOM     16  O   UNL     1      -1.832   6.862   3.576  0.00  0.00    -0.273 OA
ATOM     17  N   UNL     1      -2.007   8.987   2.966  0.00  0.00    -0.239 N 
ATOM     18  C   UNL     1      -2.407   9.352   4.201  0.00  0.00    +0.303 C 
ATOM     19  O   UNL     1      -2.514   8.515   5.076  0.00  0.00    -0.253 OA
ATOM     20  N   UNL     1      -2.689  10.643   4.464  0.00  0.00    -0.313 N 
ATOM     21  H   UNL     1      -1.911   9.744   2.174  0.00  0.00    +0.159 HD
ATOM     22  H   UNL     1      -3.016  10.940   5.472  0.00  0.00    +0.146 HD
ATOM     23  H   UNL     1      -2.593  11.400   3.672  0.00  0.00    +0.146 HD
ENDBRANCH  14  15
ENDBRANCH   1  14
TORSDOF 3
