REMARK  Name = ZINC10385357
REMARK  3 active torsions:
REMARK  status: ('A' for Active; 'I' for Inactive)
REMARK    1  A    between atoms: C_1  and  C_2
REMARK    2  A    between atoms: C_11  and  C_13
REMARK    3  A    between atoms: N_20  and  C_21
REMARK                            x       y       z     vdW  Elec       q    Type
REMARK                         _______ _______ _______ _____ _____    ______ ____
ROOT
ATOM      1  C   UNL     1      -6.446   0.345   2.385  0.00  0.00    +0.066 C 
ATOM      2  C   UNL     1      -5.396  -0.500   1.712  0.00  0.00    +0.047 A 
ATOM      3  C   UNL     1      -5.481  -1.861   1.767  0.00  0.00    +0.093 A 
ATOM      4  C   UNL     1      -4.494  -2.634   1.125  0.00  0.00    +0.257 A 
ATOM      5  O   UNL     1      -4.534  -3.853   1.160  0.00  0.00    -0.267 OA
ATOM      6  N   UNL     1      -3.505  -1.996   0.474  0.00  0.00    -0.259 N 
ATOM      7  C   UNL     1      -3.462  -0.631   0.468  0.00  0.00    +0.206 A 
ATOM      8  N   UNL     1      -4.388   0.083   1.064  0.00  0.00    -0.221 NA
ATOM      9  N   UNL     1      -2.398  -0.039  -0.179  0.00  0.00    -0.259 N 
ATOM     10  C   UNL     1      -1.179  -0.704  -0.094  0.00  0.00    +0.166 C 
ATOM     11  C   UNL     1      -2.458  -2.732  -0.242  0.00  0.00    +0.192 C 
ATOM     12  N   UNL     1       0.002  -0.004   0.002  0.00  0.00    -0.287 N 
ATOM     13  H   UNL     1      -2.496   0.794  -0.667  0.00  0.00    +0.158 HD
ATOM     14  H   UNL     1       0.001   0.962  -0.080  0.00  0.00    +0.155 HD
ATOM     15  N   UNL     1      -1.125  -2.045  -0.097  0.00  0.00    -0.340 N 
ATOM     16  H   UNL     1      -0.243  -2.563  -0.008  0.00  0.00    +0.164 HD
ENDROOT
BRANCH  12  17
ATOM     17  C   UNL     1       1.204  -0.687   0.219  0.00  0.00    +0.052 A 
ATOM     18  C   UNL     1       1.207  -1.886   0.919  0.00  0.00    +0.025 A 
ATOM     19  C   UNL     1       2.394  -2.560   1.127  0.00  0.00    +0.002 A 
ATOM     20  C   UNL     1       3.582  -2.038   0.647  0.00  0.00    +0.002 A 
ATOM     21  C   UNL     1       3.584  -0.841  -0.046  0.00  0.00    +0.022 A 
ATOM     22  C   UNL     1       2.399  -0.164  -0.262  0.00  0.00    +0.062 A 
ATOM     23 CL   UNL     1       2.402   1.338  -1.132  0.00  0.00    -0.082 Cl
ENDBRANCH  12  17
BRANCH  11  24
ATOM     24  C   UNL     1      -2.829  -2.837  -1.722  0.00  0.00    +0.036 C 
ATOM     25  C   UNL     1      -4.152  -3.598  -1.870  0.00  0.00    +0.012 C 
ATOM     26  C   UNL     1      -4.587  -3.532  -3.336  0.00  0.00    +0.027 C 
ATOM     27  C   UNL     1      -3.446  -3.920  -4.231  0.00  0.00    -0.031 C 
ATOM     28  C   UNL     1      -2.208  -3.949  -3.856  0.00  0.00    -0.031 C 
ATOM     29  C   UNL     1      -1.738  -3.604  -2.472  0.00  0.00    +0.034 C 
ENDBRANCH  11  24
TORSDOF 2
