REMARK  Name = ZINC36143219
REMARK  3 active torsions:
REMARK  status: ('A' for Active; 'I' for Inactive)
REMARK    1  A    between atoms: C_1  and  C_2
REMARK    2  A    between atoms: C_5  and  C_9
REMARK    3  A    between atoms: C_7  and  N_8
REMARK                            x       y       z     vdW  Elec       q    Type
REMARK                         _______ _______ _______ _____ _____    ______ ____
ROOT
ATOM      1  C   UNL     1       0.058  -4.255  -0.029  0.00  0.00    +0.139 A 
ATOM      2  C   UNL     1       0.066  -4.897  -1.228  0.00  0.00    +0.098 A 
ATOM      3  C   UNL     1       0.084  -6.311  -1.261  0.00  0.00    +0.193 A 
ATOM      4  O   UNL     1       0.093  -6.921  -2.318  0.00  0.00    -0.287 OA
ATOM      5  C   UNL     1       0.091  -7.020   0.033  0.00  0.00    +0.068 A 
ATOM      6  C   UNL     1       0.105  -8.414   0.094  0.00  0.00    +0.065 A 
ATOM      7  C   UNL     1       0.110  -9.043   1.321  0.00  0.00    +0.167 A 
ATOM      8  C   UNL     1       0.102  -8.287   2.498  0.00  0.00    +0.170 A 
ATOM      9  C   UNL     1       0.089  -6.904   2.442  0.00  0.00    +0.096 A 
ATOM     10  C   UNL     1       0.082  -6.259   1.213  0.00  0.00    +0.143 A 
ATOM     11  O   UNL     1       0.073  -4.911   1.141  0.00  0.00    -0.454 OA
ATOM     12  O   UNL     1       0.110  -9.142   3.562  0.00  0.00    -0.452 OA
ATOM     13  C   UNL     1      -0.292 -10.419   3.034  0.00  0.00    +0.466 C 
ATOM     14  O   UNL     1       0.123 -10.367   1.656  0.00  0.00    -0.453 OA
ENDROOT
BRANCH   1  19
ATOM     15  C   UNL     1      -0.018   1.503   0.010  0.00  0.00    +0.045 C 
ATOM     16  C   UNL     1       0.002  -0.004   0.002  0.00  0.00    -0.030 A 
ATOM     17  C   UNL     1       0.006  -0.686  -1.200  0.00  0.00    +0.006 A 
ATOM     18  C   UNL     1       0.024  -2.066  -1.217  0.00  0.00    +0.012 A 
ATOM     19  C   UNL     1       0.039  -2.778  -0.015  0.00  0.00    +0.019 A 
ATOM     20  C   UNL     1       0.036  -2.090   1.199  0.00  0.00    +0.034 A 
ATOM     21  C   UNL     1       0.023  -0.703   1.203  0.00  0.00    +0.028 A 
BRANCH  21  22
ATOM     22  N   UNL     1       0.025  -0.009   2.416  0.00  0.00    -0.358 N 
ATOM     23  H   UNL     1       0.013   0.961   2.419  0.00  0.00    +0.142 HD
ATOM     24  H   UNL     1       0.040  -0.496   3.254  0.00  0.00    +0.142 HD
ENDBRANCH  21  22
ENDBRANCH   1  19
TORSDOF 2
