REMARK  Name = ZINC09564887
REMARK  8 active torsions:
REMARK  status: ('A' for Active; 'I' for Inactive)
REMARK    1  A    between atoms: C_1  and  S_2
REMARK    2  A    between atoms: S_2  and  C_3
REMARK    3  A    between atoms: C_3  and  C_4
REMARK    4  A    between atoms: C_4  and  N_5
REMARK    5  A    between atoms: N_14  and  C_15
REMARK    6  A    between atoms: C_15  and  C_17
REMARK    7  A    between atoms: C_22  and  S_23
REMARK    8  A    between atoms: S_23  and  C_24
REMARK                            x       y       z     vdW  Elec       q    Type
REMARK                         _______ _______ _______ _____ _____    ______ ____
ROOT
ATOM      1  N   UNL     1       5.442   2.346  -0.238  0.00  0.00    -0.320 N 
ATOM      2  C   UNL     1       4.088   2.062  -0.195  0.00  0.00    +0.061 A 
ATOM      3  C   UNL     1       3.444   0.853  -0.503  0.00  0.00    +0.076 A 
ATOM      4  C   UNL     1       2.073   0.734  -0.407  0.00  0.00    +0.168 A 
ATOM      5  C   UNL     1       1.292   1.816  -0.001  0.00  0.00    +0.167 A 
ATOM      6  C   UNL     1       1.906   3.019   0.308  0.00  0.00    +0.066 A 
ATOM      7  C   UNL     1       3.274   3.129   0.210  0.00  0.00    +0.043 A 
ATOM      8  S   UNL     1       4.434   4.441   0.500  0.00  0.00    -0.052 S 
ATOM      9  C   UNL     1       5.889   3.586   0.099  0.00  0.00    +0.167 A 
ATOM     10  N   UNL     1       7.139   4.035   0.116  0.00  0.00    -0.152 NA
ATOM     11  O   UNL     1      -0.018   1.436   0.010  0.00  0.00    -0.453 OA
ATOM     12  C   UNL     1       0.002  -0.004   0.002  0.00  0.00    +0.466 C 
ATOM     13  O   UNL     1       1.244  -0.326  -0.651  0.00  0.00    -0.453 OA
ENDROOT
BRANCH  10  14
ATOM     14  C   UNL     1       7.391   5.298   0.478  0.00  0.00    +0.271 C 
ATOM     15  O   UNL     1       6.474   6.037   0.792  0.00  0.00    -0.268 OA
BRANCH  14  16
ATOM     16  C   UNL     1       8.782   5.797   0.497  0.00  0.00    +0.052 A 
ATOM     17  C   UNL     1       9.835   4.954   0.139  0.00  0.00    +0.014 A 
ATOM     18  C   UNL     1      11.130   5.425   0.158  0.00  0.00    +0.001 A 
ATOM     19  C   UNL     1      11.394   6.733   0.532  0.00  0.00    +0.001 A 
ATOM     20  C   UNL     1      10.364   7.578   0.890  0.00  0.00    +0.015 A 
ATOM     21  C   UNL     1       9.051   7.122   0.871  0.00  0.00    +0.020 A 
BRANCH  21  22
ATOM     22  S   UNL     1       7.732   8.201   1.321  0.00  0.00    -0.128 S 
ATOM     23  C   UNL     1       8.560   9.766   1.714  0.00  0.00    +0.090 C 
ENDBRANCH  21  22
ENDBRANCH  14  16
ENDBRANCH  10  14
BRANCH   1  24
ATOM     24  C   UNL     1       6.395   1.311  -0.647  0.00  0.00    +0.135 C 
BRANCH  24  25
ATOM     25  C   UNL     1       6.594   1.372  -2.163  0.00  0.00    +0.090 C 
BRANCH  25  27
ATOM     26  C   UNL     1       7.898   0.294  -4.467  0.00  0.00    +0.084 C 
ATOM     27  S   UNL     1       7.774   0.090  -2.669  0.00  0.00    -0.162 S 
ENDBRANCH  25  27
ENDBRANCH  24  25
ENDBRANCH   1  24
TORSDOF 6
