REMARK  Name = ZINC36493441
REMARK  15 active torsions:
REMARK  status: ('A' for Active; 'I' for Inactive)
REMARK    1  A    between atoms: C_1  and  C_2
REMARK    2  A    between atoms: C_2  and  C_3
REMARK    3  A    between atoms: C_3  and  C_4
REMARK    4  A    between atoms: C_4  and  C_5
REMARK    5  A    between atoms: N_7  and  C_8
REMARK    6  A    between atoms: N_7  and  C_14
REMARK    7  A    between atoms: C_14  and  C_16
REMARK    8  A    between atoms: C_14  and  C_25
REMARK    9  A    between atoms: C_17  and  O_24
REMARK   10  A    between atoms: C_19  and  O_23
REMARK   11  A    between atoms: C_21  and  O_22
REMARK   12  A    between atoms: N_27  and  C_28
REMARK   13  A    between atoms: C_28  and  S_29
REMARK   14  A    between atoms: S_29  and  C_32
REMARK   15  A    between atoms: C_35  and  C_38
REMARK                            x       y       z     vdW  Elec       q    Type
REMARK                         _______ _______ _______ _____ _____    ______ ____
ROOT
ATOM      1  C   UNL     1      -4.596  -4.488  -0.472  0.00  0.00    +0.199 C 
ENDROOT
BRANCH   1   2
ATOM      2  C   UNL     1      -4.246  -5.260  -1.718  0.00  0.00    +0.065 A 
ATOM      3  C   UNL     1      -4.601  -6.596  -1.829  0.00  0.00    +0.129 A 
ATOM      4  C   UNL     1      -4.279  -7.306  -2.976  0.00  0.00    +0.091 A 
ATOM      5  C   UNL     1      -3.602  -6.680  -4.012  0.00  0.00    +0.124 A 
ATOM      6  C   UNL     1      -3.248  -5.343  -3.901  0.00  0.00    +0.091 A 
ATOM      7  C   UNL     1      -3.574  -4.632  -2.756  0.00  0.00    +0.129 A 
BRANCH   7   8
ATOM      8  O   UNL     1      -3.231  -3.322  -2.650  0.00  0.00    -0.506 OA
ATOM      9  H   UNL     1      -2.359  -3.174  -2.259  0.00  0.00    +0.292 HD
ENDBRANCH   7   8
BRANCH   5  10
ATOM     10  O   UNL     1      -3.286  -7.376  -5.135  0.00  0.00    -0.507 OA
ATOM     11  H   UNL     1      -3.965  -7.343  -5.823  0.00  0.00    +0.292 HD
ENDBRANCH   5  10
BRANCH   3  12
ATOM     12  O   UNL     1      -5.264  -7.209  -0.814  0.00  0.00    -0.506 OA
ATOM     13  H   UNL     1      -6.227  -7.184  -0.901  0.00  0.00    +0.292 HD
ENDBRANCH   3  12
ENDBRANCH   1   2
BRANCH   1  14
ATOM     14  C   UNL     1      -5.052  -5.445   0.600  0.00  0.00    +0.240 C 
ATOM     15  O   UNL     1      -4.293  -5.766   1.489  0.00  0.00    -0.273 OA
ATOM     16  N   UNL     1      -6.304  -5.943   0.570  0.00  0.00    -0.294 N 
ATOM     17  H   UNL     1      -6.888  -5.742  -0.178  0.00  0.00    +0.150 HD
BRANCH  16  18
ATOM     18  C   UNL     1      -6.782  -6.790   1.665  0.00  0.00    +0.278 C 
BRANCH  18  19
ATOM     19  S   UNL     1      -7.681  -5.771   2.868  0.00  0.00    +0.013 S 
ATOM     20  O   UNL     1      -8.206  -6.588   3.906  0.00  0.00    -0.168 OA
ATOM     21  O   UNL     1      -6.935  -4.602   3.174  0.00  0.00    -0.168 OA
BRANCH  19  22
ATOM     22  C   UNL     1      -9.097  -5.186   1.997  0.00  0.00    +0.090 A 
ATOM     23  C   UNL     1      -9.034  -3.997   1.296  0.00  0.00    +0.027 A 
ATOM     24  C   UNL     1     -10.145  -3.538   0.613  0.00  0.00    +0.005 A 
ATOM     25  C   UNL     1     -11.318  -4.269   0.630  0.00  0.00    -0.050 A 
ATOM     26  C   UNL     1     -11.380  -5.459   1.331  0.00  0.00    +0.005 A 
ATOM     27  C   UNL     1     -10.268  -5.920   2.010  0.00  0.00    +0.027 A 
ATOM     28  C   UNL     1     -12.529  -3.768  -0.114  0.00  0.00    +0.044 C 
ENDBRANCH  19  22
ENDBRANCH  18  19
ENDBRANCH  16  18
ENDBRANCH   1  14
BRANCH   1  31
ATOM     29  C   UNL     1      -3.485  -2.425   0.197  0.00  0.00    +0.217 C 
ATOM     30  O   UNL     1      -4.546  -1.849   0.084  0.00  0.00    -0.276 OA
ATOM     31  N   UNL     1      -3.416  -3.756  -0.003  0.00  0.00    -0.283 N 
BRANCH  31  32
ATOM     32  C   UNL     1      -2.163  -4.472   0.248  0.00  0.00    +0.077 C 
ATOM     33  C   UNL     1      -2.257  -5.885  -0.330  0.00  0.00    +0.022 C 
ATOM     34  C   UNL     1      -0.948  -6.632  -0.068  0.00  0.00    +0.002 C 
ATOM     35  C   UNL     1      -0.700  -6.713   1.440  0.00  0.00    +0.000 C 
ATOM     36  C   UNL     1      -0.605  -5.300   2.018  0.00  0.00    +0.002 C 
ATOM     37  C   UNL     1      -1.915  -4.553   1.756  0.00  0.00    +0.022 C 
ENDBRANCH  31  32
BRANCH  29  38
ATOM     38  C   UNL     1      -2.243  -1.654   0.563  0.00  0.00    +0.096 C 
BRANCH  38  39
ATOM     39  C   UNL     1      -2.557  -0.156   0.570  0.00  0.00    +0.009 C 
BRANCH  39  41
ATOM     40  C   UNL     1      -1.610   2.125   0.948  0.00  0.00    +0.004 C 
ATOM     41  C   UNL     1      -1.296   0.627   0.941  0.00  0.00    -0.003 C 
ENDBRANCH  39  41
ENDBRANCH  38  39
ENDBRANCH  29  38
ENDBRANCH   1  31
TORSDOF 13
