REMARK  Name = ZINC39685001
REMARK  6 active torsions:
REMARK  status: ('A' for Active; 'I' for Inactive)
REMARK    1  A    between atoms: C_5  and  O_7
REMARK    2  A    between atoms: O_7  and  C_8
REMARK    3  A    between atoms: C_8  and  C_9
REMARK    4  A    between atoms: C_9  and  N_10
REMARK    5  A    between atoms: C_11  and  C_13
REMARK    6  A    between atoms: C_24  and  C_26
REMARK                            x       y       z     vdW  Elec       q    Type
REMARK                         _______ _______ _______ _____ _____    ______ ____
ROOT
ATOM      1  C   UNL     1       1.835  -6.332   2.711  0.00  0.00    +0.100 C 
ATOM      2  C   UNL     1       3.281  -5.790   2.751  0.00  0.00    +0.121 C 
ATOM      3  N   UNL     1       4.067  -6.868   3.398  0.00  0.00    -0.296 N 
ATOM      4  C   UNL     1       3.502  -8.120   2.841  0.00  0.00    +0.115 C 
ATOM      5  C   UNL     1       1.984  -7.862   2.770  0.00  0.00    -0.004 C 
ATOM      6  C   UNL     1       1.296  -8.413   4.015  0.00  0.00    -0.010 C 
ATOM      7  C   UNL     1       1.410  -9.940   4.022  0.00  0.00    -0.082 C 
ATOM      8  N   UNL     1       0.783 -10.484   2.811  0.00  0.00    +0.379 N 
ATOM      9  C   UNL     1       1.509 -10.023   1.621  0.00  0.00    -0.082 C 
ATOM     10  C   UNL     1       1.400  -8.499   1.513  0.00  0.00    -0.010 C 
ATOM     11  C   UNL     1       5.069  -6.738   4.290  0.00  0.00    +0.248 C 
ATOM     12  O   UNL     1       5.355  -5.640   4.727  0.00  0.00    -0.270 OA
ATOM     13  H   UNL     1       0.805 -11.492   2.846  0.00  0.00    -0.086 HD
ATOM     14  H   UNL     1      -0.175 -10.173   2.760  0.00  0.00    -0.086 HD
ENDROOT
BRANCH  11  15
ATOM     15  C   UNL     1       5.818  -7.929   4.738  0.00  0.00    +0.055 A 
ATOM     16  C   UNL     1       6.067  -8.976   3.848  0.00  0.00    +0.016 A 
ATOM     17  C   UNL     1       6.767 -10.086   4.271  0.00  0.00    +0.021 A 
ATOM     18  C   UNL     1       7.223 -10.165   5.578  0.00  0.00    +0.042 A 
ATOM     19  C   UNL     1       6.979  -9.132   6.466  0.00  0.00    +0.040 A 
ATOM     20  C   UNL     1       6.285  -8.011   6.052  0.00  0.00    +0.054 A 
ATOM     21 CL   UNL     1       5.987  -6.713   7.165  0.00  0.00    -0.083 Cl
ATOM     22 CL   UNL     1       8.103 -11.566   6.103  0.00  0.00    -0.083 Cl
ENDBRANCH  11  15
BRANCH   1  24
ATOM     23  N   UNL     1      -0.191  -5.912   1.355  0.00  0.00    -0.312 N 
ATOM     24  C   UNL     1       1.155  -5.920   1.431  0.00  0.00    +0.218 C 
ATOM     25  O   UNL     1       1.819  -5.596   0.469  0.00  0.00    -0.275 OA
ATOM     26  H   UNL     1      -0.722  -6.171   2.124  0.00  0.00    +0.149 HD
BRANCH  23  27
ATOM     27  C   UNL     1      -0.851  -5.511   0.110  0.00  0.00    +0.145 C 
BRANCH  27  28
ATOM     28  C   UNL     1      -2.369  -5.590   0.290  0.00  0.00    +0.248 C 
BRANCH  28  29
ATOM     29  O   UNL     1      -2.783  -4.629   1.264  0.00  0.00    -0.488 OA
BRANCH  29  34
ATOM     30  C   UNL     1      -6.348  -5.349   1.180  0.00  0.00    +0.004 A 
ATOM     31  C   UNL     1      -6.817  -4.443   2.112  0.00  0.00    +0.003 A 
ATOM     32  C   UNL     1      -5.937  -3.598   2.762  0.00  0.00    +0.042 A 
ATOM     33  C   UNL     1      -4.584  -3.657   2.480  0.00  0.00    +0.165 A 
ATOM     34  C   UNL     1      -4.112  -4.568   1.543  0.00  0.00    +0.156 A 
ATOM     35  C   UNL     1      -4.998  -5.414   0.894  0.00  0.00    +0.048 A 
ATOM     36  F   UNL     1      -3.724  -2.831   3.114  0.00  0.00    -0.202 F 
ENDBRANCH  29  34
ENDBRANCH  28  29
ENDBRANCH  27  28
ENDBRANCH  23  27
ENDBRANCH   1  24
TORSDOF 6
