REMARK  Name = ZINC39671833
REMARK  13 active torsions:
REMARK  status: ('A' for Active; 'I' for Inactive)
REMARK    1  A    between atoms: C_1  and  C_2
REMARK    2  A    between atoms: C_4  and  C_38
REMARK    3  A    between atoms: N_5  and  C_7
REMARK    4  A    between atoms: C_7  and  C_8
REMARK    5  A    between atoms: C_8  and  C_9
REMARK    6  A    between atoms: C_9  and  N_10
REMARK    7  A    between atoms: C_11  and  C_13
REMARK    8  A    between atoms: C_24  and  C_26
REMARK    9  A    between atoms: C_26  and  C_28
REMARK   10  A    between atoms: C_26  and  O_31
REMARK   11  A    between atoms: C_28  and  C_29
REMARK   12  A    between atoms: C_28  and  C_30
REMARK   13  A    between atoms: O_31  and  C_32
REMARK                            x       y       z     vdW  Elec       q    Type
REMARK                         _______ _______ _______ _____ _____    ______ ____
ROOT
ATOM      1  C   UNL     1       5.402  -5.981   3.434  0.00  0.00    +0.100 C 
ATOM      2  C   UNL     1       5.849  -4.900   4.443  0.00  0.00    +0.121 C 
ATOM      3  N   UNL     1       5.656  -5.527   5.772  0.00  0.00    -0.297 N 
ATOM      4  C   UNL     1       6.088  -6.933   5.583  0.00  0.00    +0.115 C 
ATOM      5  C   UNL     1       5.563  -7.314   4.184  0.00  0.00    -0.004 C 
ATOM      6  C   UNL     1       4.216  -8.021   4.302  0.00  0.00    -0.010 C 
ATOM      7  C   UNL     1       4.412  -9.369   5.002  0.00  0.00    -0.082 C 
ATOM      8  N   UNL     1       5.352 -10.190   4.230  0.00  0.00    +0.379 N 
ATOM      9  C   UNL     1       6.671  -9.547   4.201  0.00  0.00    -0.082 C 
ATOM     10  C   UNL     1       6.571  -8.206   3.467  0.00  0.00    -0.010 C 
ATOM     11  C   UNL     1       5.194  -4.949   6.899  0.00  0.00    +0.257 C 
ATOM     12  O   UNL     1       5.174  -5.575   7.937  0.00  0.00    -0.272 OA
ATOM     13  H   UNL     1       5.433 -11.100   4.660  0.00  0.00    -0.086 HD
ATOM     14  H   UNL     1       5.010 -10.296   3.287  0.00  0.00    -0.086 HD
ENDROOT
BRANCH   1  16
ATOM     15  N   UNL     1       3.585  -5.910   1.756  0.00  0.00    -0.315 N 
ATOM     16  C   UNL     1       3.962  -5.770   3.043  0.00  0.00    +0.218 C 
ATOM     17  O   UNL     1       3.141  -5.475   3.886  0.00  0.00    -0.275 OA
ATOM     18  H   UNL     1       4.241  -6.146   1.082  0.00  0.00    +0.149 HD
BRANCH  15  19
ATOM     19  C   UNL     1       2.185  -5.705   1.376  0.00  0.00    +0.106 C 
BRANCH  19  20
ATOM     20  C   UNL     1       2.029  -5.923  -0.130  0.00  0.00    +0.042 C 
BRANCH  20  21
ATOM     21  C   UNL     1       0.567  -5.708  -0.527  0.00  0.00    +0.145 C 
BRANCH  21  26
ATOM     22  C   UNL     1       0.382  -4.810  -5.462  0.00  0.00    +0.067 C 
ATOM     23  C   UNL     1       0.341  -5.502  -4.124  0.00  0.00    +0.060 A 
ATOM     24  C   UNL     1       0.081  -6.859  -3.910  0.00  0.00    +0.047 A 
ATOM     25  C   UNL     1       0.133  -7.088  -2.577  0.00  0.00    +0.036 A 
ATOM     26  N   UNL     1       0.417  -5.917  -1.970  0.00  0.00    -0.268 N 
ATOM     27  N   UNL     1       0.547  -4.937  -2.962  0.00  0.00    -0.176 NA
ATOM     28  C   UNL     1      -0.086  -8.413  -1.894  0.00  0.00    +0.065 C 
ENDBRANCH  21  26
ENDBRANCH  20  21
ENDBRANCH  19  20
ENDBRANCH  15  19
ENDBRANCH   1  16
BRANCH  11  29
ATOM     29  C   UNL     1       4.702  -3.525   6.868  0.00  0.00    +0.261 C 
BRANCH  29  30
ATOM     30  C   UNL     1       3.209  -3.494   7.204  0.00  0.00    +0.033 C 
ATOM     31  C   UNL     1       2.726  -2.043   7.246  0.00  0.00    +0.011 C 
ATOM     32  C   UNL     1       2.429  -4.260   6.134  0.00  0.00    +0.011 C 
ENDBRANCH  29  30
BRANCH  29  33
ATOM     33  O   UNL     1       5.423  -2.751   7.829  0.00  0.00    -0.479 OA
BRANCH  33  34
ATOM     34  C   UNL     1       5.731  -1.473   7.485  0.00  0.00    +0.122 A 
ATOM     35  C   UNL     1       6.412  -0.658   8.377  0.00  0.00    +0.045 A 
ATOM     36  C   UNL     1       6.725   0.641   8.026  0.00  0.00    +0.004 A 
ATOM     37  C   UNL     1       6.359   1.129   6.785  0.00  0.00    +0.000 A 
ATOM     38  C   UNL     1       5.679   0.320   5.894  0.00  0.00    +0.004 A 
ATOM     39  C   UNL     1       5.370  -0.982   6.239  0.00  0.00    +0.045 A 
ENDBRANCH  33  34
ENDBRANCH  29  33
ENDBRANCH  11  29
TORSDOF 9
