REMARK  Name = ZINC21526712
REMARK  9 active torsions:
REMARK  status: ('A' for Active; 'I' for Inactive)
REMARK    1  A    between atoms: C_1  and  C_2
REMARK    2  A    between atoms: C_2  and  C_26
REMARK    3  A    between atoms: N_14  and  C_15
REMARK    4  A    between atoms: C_15  and  C_16
REMARK    5  A    between atoms: C_16  and  C_17
REMARK    6  A    between atoms: C_17  and  N_18
REMARK    7  A    between atoms: N_18  and  C_19
REMARK    8  A    between atoms: N_18  and  C_20
REMARK    9  A    between atoms: N_28  and  C_29
REMARK                            x       y       z     vdW  Elec       q    Type
REMARK                         _______ _______ _______ _____ _____    ______ ____
ROOT
ATOM      1  C   UNL     1       9.112  -1.905  -3.963  0.00  0.00    +0.043 C 
ATOM      2  C   UNL     1       7.785  -2.574  -4.329  0.00  0.00    +0.128 C 
ATOM      3  C   UNL     1       8.054  -3.707  -5.324  0.00  0.00    +0.157 C 
ATOM      4  N   UNL     1       8.377  -3.128  -6.631  0.00  0.00    -0.331 N 
ATOM      5  C   UNL     1       9.167  -3.610  -7.631  0.00  0.00    +0.088 A 
ATOM      6  C   UNL     1      10.019  -4.659  -8.052  0.00  0.00    +0.067 A 
ATOM      7  C   UNL     1      10.438  -4.360  -9.293  0.00  0.00    +0.198 A 
ATOM      8  O   UNL     1       9.902  -3.189  -9.677  0.00  0.00    -0.461 OA
ATOM      9  C   UNL     1       9.123  -2.700  -8.688  0.00  0.00    +0.153 A 
ATOM     10  C   UNL     1       8.287  -1.642  -8.302  0.00  0.00    +0.079 A 
ATOM     11  C   UNL     1       7.852  -1.904  -7.037  0.00  0.00    +0.109 A 
ATOM     12  C   UNL     1       6.968  -1.137  -6.150  0.00  0.00    +0.264 C 
ATOM     13  O   UNL     1       6.345  -0.169  -6.546  0.00  0.00    -0.268 OA
ATOM     14  N   UNL     1       6.881  -1.565  -4.869  0.00  0.00    -0.281 N 
ENDROOT
BRANCH   2  15
ATOM     15  C   UNL     1       7.176  -3.156  -3.080  0.00  0.00    +0.238 C 
ATOM     16  O   UNL     1       7.623  -2.860  -1.992  0.00  0.00    -0.273 OA
ATOM     17  N   UNL     1       6.133  -4.005  -3.171  0.00  0.00    -0.311 N 
ATOM     18  H   UNL     1       5.778  -4.336  -4.158  0.00  0.00    +0.149 HD
BRANCH  17  19
ATOM     19  C   UNL     1       5.472  -4.487  -1.956  0.00  0.00    +0.073 C 
ATOM     20  C   UNL     1       6.262  -5.690  -1.401  0.00  0.00    +0.022 C 
ATOM     21  C   UNL     1       5.920  -5.855   0.055  0.00  0.00    +0.002 C 
ATOM     22  C   UNL     1       4.780  -6.868   0.280  0.00  0.00    +0.000 C 
ATOM     23  C   UNL     1       3.642  -6.724  -0.749  0.00  0.00    +0.000 C 
ATOM     24  C   UNL     1       3.300  -5.286  -1.032  0.00  0.00    +0.002 C 
ATOM     25  C   UNL     1       4.093  -4.830  -2.273  0.00  0.00    +0.022 C 
ENDBRANCH  17  19
ENDBRANCH   2  15
BRANCH  14  26
ATOM     26  C   UNL     1       5.854  -0.992  -3.996  0.00  0.00    +0.107 C 
BRANCH  26  27
ATOM     27  C   UNL     1       4.529  -1.723  -4.220  0.00  0.00    +0.000 C 
BRANCH  27  28
ATOM     28  C   UNL     1       3.455  -1.125  -3.309  0.00  0.00    -0.077 C 
BRANCH  28  29
ATOM     29  N   UNL     1       2.183  -1.828  -3.524  0.00  0.00    +0.380 N 
ATOM     30  C   UNL     1       1.669  -1.583  -4.878  0.00  0.00    -0.096 C 
ATOM     31  H   UNL     1       2.372  -2.907  -3.425  0.00  0.00    -0.082 HD
BRANCH  29  32
ATOM     32  C   UNL     1       1.193  -1.447  -2.508  0.00  0.00    -0.069 C 
ATOM     33  C   UNL     1      -0.022  -2.371  -2.608  0.00  0.00    -0.015 C 
ATOM     34  C   UNL     1      -1.054  -1.975  -1.550  0.00  0.00    -0.002 C 
ATOM     35  C   UNL     1      -1.493  -0.527  -1.783  0.00  0.00    -0.000 C 
ATOM     36  C   UNL     1      -0.277   0.397  -1.682  0.00  0.00    -0.002 C 
ATOM     37  C   UNL     1       0.754   0.000  -2.741  0.00  0.00    -0.015 C 
ENDBRANCH  29  32
ENDBRANCH  28  29
ENDBRANCH  27  28
ENDBRANCH  26  27
ENDBRANCH  14  26
TORSDOF 7
