REMARK  Name = ZINC33937253
REMARK  12 active torsions:
REMARK  status: ('A' for Active; 'I' for Inactive)
REMARK    1  A    between atoms: C_1  and  C_2
REMARK    2  A    between atoms: C_4  and  C_39
REMARK    3  A    between atoms: C_7  and  C_14
REMARK    4  A    between atoms: C_14  and  N_15
REMARK    5  A    between atoms: N_15  and  C_16
REMARK    6  A    between atoms: N_15  and  C_23
REMARK    7  A    between atoms: C_16  and  C_17
REMARK    8  A    between atoms: C_23  and  C_25
REMARK    9  A    between atoms: C_23  and  C_36
REMARK   10  A    between atoms: N_29  and  C_30
REMARK   11  A    between atoms: C_36  and  C_37
REMARK   12  A    between atoms: C_36  and  C_38
REMARK                            x       y       z     vdW  Elec       q    Type
REMARK                         _______ _______ _______ _____ _____    ______ ____
ROOT
ATOM      1  N   UNL     1       1.373  -7.090   1.175  0.00  0.00    +0.391 N 
ATOM      2  H   UNL     1       2.087  -6.627   0.632  0.00  0.00    -0.080 HD
ENDROOT
BRANCH   1   3
ATOM      3  C   UNL     1       0.053  -6.786   0.608  0.00  0.00    -0.036 C 
BRANCH   3  10
ATOM      4  C   UNL     1      -0.465   0.999  -1.053  0.00  0.00    +0.044 C 
ATOM      5  C   UNL     1      -0.295  -0.496  -0.961  0.00  0.00    -0.048 A 
ATOM      6  C   UNL     1       0.145  -1.207  -2.068  0.00  0.00    +0.007 A 
ATOM      7  C   UNL     1       0.306  -2.562  -2.006  0.00  0.00    -0.041 A 
ATOM      8  C   UNL     1       0.024  -3.239  -0.814  0.00  0.00    +0.002 A 
ATOM      9  C   UNL     1       0.186  -4.691  -0.712  0.00  0.00    +0.017 A 
ATOM     10  C   UNL     1      -0.102  -5.293   0.469  0.00  0.00    +0.001 A 
ATOM     11  C   UNL     1      -0.547  -4.527   1.567  0.00  0.00    +0.251 A 
ATOM     12  O   UNL     1      -0.800  -5.088   2.619  0.00  0.00    -0.268 OA
ATOM     13  N   UNL     1      -0.699  -3.194   1.483  0.00  0.00    -0.322 N 
ATOM     14  H   UNL     1      -1.006  -2.697   2.257  0.00  0.00    +0.169 HD
ATOM     15  C   UNL     1      -0.423  -2.522   0.311  0.00  0.00    +0.050 A 
ATOM     16  C   UNL     1      -0.574  -1.141   0.225  0.00  0.00    +0.029 A 
ATOM     17  C   UNL     1       0.784  -3.325  -3.214  0.00  0.00    +0.044 C 
ENDBRANCH   3  10
ENDBRANCH   1   3
BRANCH   1  18
ATOM     18  C   UNL     1       1.430  -6.616   2.564  0.00  0.00    -0.045 C 
BRANCH  18  19
ATOM     19  C   UNL     1       2.863  -6.739   3.087  0.00  0.00    +0.102 C 
ATOM     20  C   UNL     1       2.964  -6.160   4.520  0.00  0.00    +0.032 C 
ATOM     21  C   UNL     1       4.197  -6.932   5.064  0.00  0.00    +0.030 C 
ATOM     22  C   UNL     1       4.056  -8.304   4.370  0.00  0.00    +0.160 C 
ATOM     23  O   UNL     1       3.232  -8.121   3.212  0.00  0.00    -0.378 OA
ENDBRANCH  18  19
ENDBRANCH   1  18
BRANCH   1  24
ATOM     24  C   UNL     1       1.597  -8.541   1.143  0.00  0.00    +0.006 C 
BRANCH  24  25
ATOM     25  C   UNL     1       0.510  -9.235   1.923  0.00  0.00    +0.139 A 
ATOM     26  N   UNL     1      -0.774  -8.974   1.876  0.00  0.00    -0.115 NA
ATOM     27  N   UNL     1      -1.373  -9.780   2.684  0.00  0.00    -0.023 NA
ATOM     28  N   UNL     1      -0.504 -10.547   3.245  0.00  0.00    -0.044 NA
ATOM     29  N   UNL     1       0.668 -10.245   2.797  0.00  0.00    -0.228 N 
BRANCH  29  30
ATOM     30  C   UNL     1       1.933 -10.881   3.173  0.00  0.00    +0.111 C 
ATOM     31  C   UNL     1       1.956 -12.319   2.650  0.00  0.00    +0.027 C 
ATOM     32  C   UNL     1       3.278 -12.983   3.042  0.00  0.00    +0.002 C 
ATOM     33  C   UNL     1       3.410 -12.993   4.566  0.00  0.00    +0.000 C 
ATOM     34  C   UNL     1       3.387 -11.556   5.090  0.00  0.00    +0.002 C 
ATOM     35  C   UNL     1       2.065 -10.892   4.697  0.00  0.00    +0.027 C 
ENDBRANCH  29  30
ENDBRANCH  24  25
BRANCH  24  36
ATOM     36  C   UNL     1       1.576  -9.029  -0.307  0.00  0.00    -0.024 C 
ATOM     37  C   UNL     1       2.742  -8.402  -1.073  0.00  0.00    +0.006 C 
ATOM     38  C   UNL     1       1.708 -10.553  -0.335  0.00  0.00    +0.006 C 
ENDBRANCH  24  36
ENDBRANCH   1  24
TORSDOF 8
