REMARK  Name = ZINC20885827
REMARK  10 active torsions:
REMARK  status: ('A' for Active; 'I' for Inactive)
REMARK    1  A    between atoms: C_1  and  C_2
REMARK    2  A    between atoms: C_2  and  O_3
REMARK    3  A    between atoms: O_3  and  C_4
REMARK    4  A    between atoms: C_7  and  C_12
REMARK    5  A    between atoms: C_9  and  O_10
REMARK    6  A    between atoms: O_10  and  C_11
REMARK    7  A    between atoms: C_17  and  C_27
REMARK    8  A    between atoms: C_31  and  O_34
REMARK    9  A    between atoms: C_32  and  O_33
REMARK   10  A    between atoms: O_34  and  C_35
REMARK                            x       y       z     vdW  Elec       q    Type
REMARK                         _______ _______ _______ _____ _____    ______ ____
ROOT
ATOM      1  C   UNL     1      -2.243   1.860   3.604  0.00  0.00    +0.032 C 
ATOM      2  C   UNL     1      -2.216   3.022   2.617  0.00  0.00    +0.059 C 
ATOM      3  C   UNL     1      -1.647   2.556   1.287  0.00  0.00    +0.017 C 
ATOM      4  C   UNL     1      -0.694   1.613   1.248  0.00  0.00    +0.037 C 
ATOM      5  C   UNL     1      -0.013   1.086   0.008  0.00  0.00    +0.140 C 
ATOM      6  N   UNL     1      -0.646   1.480  -1.233  0.00  0.00    -0.331 N 
ATOM      7  C   UNL     1      -0.696   2.817  -1.623  0.00  0.00    +0.049 A 
ATOM      8  C   UNL     1      -0.029   3.268  -2.751  0.00  0.00    +0.025 A 
ATOM      9  C   UNL     1      -0.069   4.613  -3.073  0.00  0.00    +0.002 A 
ATOM     10  C   UNL     1      -0.766   5.503  -2.277  0.00  0.00    +0.002 A 
ATOM     11  C   UNL     1      -1.447   5.054  -1.158  0.00  0.00    +0.025 A 
ATOM     12  C   UNL     1      -1.425   3.706  -0.847  0.00  0.00    +0.052 A 
ATOM     13  N   UNL     1      -2.171   3.174   0.199  0.00  0.00    -0.316 N 
ATOM     14  C   UNL     1      -0.240   1.015   2.448  0.00  0.00    +0.163 C 
ATOM     15  O   UNL     1       0.635   0.173   2.387  0.00  0.00    -0.292 OA
ATOM     16  C   UNL     1      -0.799   1.380   3.790  0.00  0.00    +0.088 C 
ATOM     17  H   UNL     1      -1.099   0.719  -1.885  0.00  0.00    +0.147 HD
ATOM     18  H   UNL     1      -3.262   3.282   0.100  0.00  0.00    +0.152 HD
ENDROOT
BRANCH   1  22
ATOM     19  C   UNL     1      -3.818   3.188   7.352  0.00  0.00    +0.162 A 
ATOM     20  C   UNL     1      -2.697   3.799   6.813  0.00  0.00    +0.050 A 
ATOM     21  C   UNL     1      -2.187   3.364   5.604  0.00  0.00    +0.008 A 
ATOM     22  C   UNL     1      -2.800   2.327   4.925  0.00  0.00    -0.040 A 
ATOM     23  C   UNL     1      -3.919   1.714   5.457  0.00  0.00    +0.053 A 
ATOM     24  C   UNL     1      -4.432   2.141   6.671  0.00  0.00    +0.162 A 
BRANCH  24  25
ATOM     25  O   UNL     1      -5.532   1.539   7.196  0.00  0.00    -0.491 OA
ATOM     26  C   UNL     1      -6.109   0.471   6.442  0.00  0.00    +0.277 C 
ENDBRANCH  24  25
BRANCH  19  27
ATOM     27  O   UNL     1      -4.318   3.612   8.544  0.00  0.00    -0.489 OA
BRANCH  27  29
ATOM     28  C   UNL     1      -4.339   5.025  10.504  0.00  0.00    +0.048 C 
ATOM     29  C   UNL     1      -3.637   4.691   9.186  0.00  0.00    +0.226 C 
ENDBRANCH  27  29
ENDBRANCH  19  27
ENDBRANCH   1  22
BRANCH   5  30
ATOM     30  C   UNL     1       1.410   1.582  -0.003  0.00  0.00    +0.022 A 
ATOM     31  C   UNL     1       1.758   2.701   0.731  0.00  0.00    +0.009 A 
ATOM     32  C   UNL     1       3.062   3.158   0.724  0.00  0.00    +0.004 A 
ATOM     33  C   UNL     1       4.025   2.498  -0.018  0.00  0.00    +0.049 A 
ATOM     34  C   UNL     1       3.683   1.377  -0.756  0.00  0.00    +0.162 A 
ATOM     35  C   UNL     1       2.371   0.913  -0.744  0.00  0.00    +0.164 A 
BRANCH  35  36
ATOM     36  O   UNL     1       2.032  -0.190  -1.462  0.00  0.00    -0.503 OA
ATOM     37  H   UNL     1       2.796  -0.720  -2.050  0.00  0.00    +0.292 HD
ENDBRANCH  35  36
BRANCH  34  38
ATOM     38  O   UNL     1       4.629   0.727  -1.485  0.00  0.00    -0.491 OA
ATOM     39  C   UNL     1       5.956   1.256  -1.446  0.00  0.00    +0.277 C 
ENDBRANCH  34  38
ENDBRANCH   5  30
TORSDOF 7
