REMARK  Name = ZINC22681518
REMARK  7 active torsions:
REMARK  status: ('A' for Active; 'I' for Inactive)
REMARK    1  A    between atoms: C_1  and  C_2
REMARK    2  A    between atoms: N_5  and  C_8
REMARK    3  A    between atoms: C_8  and  C_10
REMARK    4  A    between atoms: C_8  and  C_27
REMARK    5  A    between atoms: C_10  and  N_11
REMARK    6  A    between atoms: C_12  and  C_14
REMARK    7  A    between atoms: C_18  and  N_20
REMARK                            x       y       z     vdW  Elec       q    Type
REMARK                         _______ _______ _______ _____ _____    ______ ____
ROOT
ATOM      1  N   UNL     1      -2.380  -0.421   0.251  0.00  0.00    -0.313 N 
ATOM      2  C   UNL     1      -2.318   0.922   0.338  0.00  0.00    +0.244 C 
ATOM      3  O   UNL     1      -3.336   1.583   0.269  0.00  0.00    -0.270 OA
ATOM      4  H   UNL     1      -1.458  -1.019   0.313  0.00  0.00    +0.149 HD
ENDROOT
BRANCH   2   5
ATOM      5  C   UNL     1      -1.012   1.593   0.516  0.00  0.00    +0.038 A 
ATOM      6  C   UNL     1       0.158   0.836   0.595  0.00  0.00    +0.013 A 
ATOM      7  C   UNL     1       1.376   1.464   0.756  0.00  0.00    +0.003 A 
ATOM      8  C   UNL     1       1.442   2.842   0.846  0.00  0.00    +0.025 A 
ATOM      9  C   UNL     1       0.282   3.604   0.773  0.00  0.00    +0.052 A 
ATOM     10  C   UNL     1      -0.947   2.982   0.611  0.00  0.00    +0.037 A 
BRANCH   9  11
ATOM     11  N   UNL     1       0.354   4.996   0.864  0.00  0.00    -0.207 N 
ATOM     12  C   UNL     1      -0.712   5.914   1.305  0.00  0.00    +0.133 C 
ATOM     13  C   UNL     1      -0.110   7.178   1.952  0.00  0.00    +0.045 C 
ATOM     14  C   UNL     1       1.031   7.619   0.986  0.00  0.00    +0.190 C 
ATOM     15  S   UNL     1       1.668   5.967   0.487  0.00  0.00    +0.046 S 
ATOM     16  O   UNL     1       2.712   5.546   1.355  0.00  0.00    -0.155 OA
ATOM     17  O   UNL     1       1.806   5.886  -0.925  0.00  0.00    -0.155 OA
ENDBRANCH   9  11
ENDBRANCH   2   5
BRANCH   1  18
ATOM     18  C   UNL     1      -3.673  -1.086   0.074  0.00  0.00    +0.094 C 
BRANCH  18  19
ATOM     19  C   UNL     1      -3.453  -2.587  -0.119  0.00  0.00    -0.013 C 
BRANCH  19  24
ATOM     20  C   UNL     1      -0.662  -3.795  -4.959  0.00  0.00    +0.007 C 
ATOM     21  C   UNL     1      -1.754  -3.643  -3.898  0.00  0.00    -0.018 C 
ATOM     22  C   UNL     1      -1.904  -2.166  -3.525  0.00  0.00    -0.015 C 
ATOM     23  C   UNL     1      -2.954  -2.027  -2.421  0.00  0.00    -0.078 C 
ATOM     24  N   UNL     1      -2.539  -2.807  -1.248  0.00  0.00    +0.386 N 
ATOM     25  C   UNL     1      -2.434  -4.236  -1.570  0.00  0.00    -0.078 C 
ATOM     26  C   UNL     1      -1.368  -4.440  -2.649  0.00  0.00    -0.015 C 
ATOM     27  H   UNL     1      -1.540  -2.457  -0.949  0.00  0.00    -0.081 HD
ENDBRANCH  19  24
BRANCH  19  28
ATOM     28  C   UNL     1      -4.774  -3.256  -0.405  0.00  0.00    -0.022 A 
ATOM     29  C   UNL     1      -5.577  -3.952   0.435  0.00  0.00    +0.009 A 
ATOM     30  C   UNL     1      -6.758  -4.480  -0.050  0.00  0.00    +0.008 A 
ATOM     31  C   UNL     1      -7.074  -4.295  -1.356  0.00  0.00    +0.045 A 
ATOM     32  S   UNL     1      -5.681  -3.342  -1.940  0.00  0.00    -0.103 S 
ENDBRANCH  19  28
ENDBRANCH  18  19
ENDBRANCH   1  18
TORSDOF 6
