REMARK  Name = ZINC39687292
REMARK  11 active torsions:
REMARK  status: ('A' for Active; 'I' for Inactive)
REMARK    1  A    between atoms: C_1  and  C_2
REMARK    2  A    between atoms: C_2  and  C_3
REMARK    3  A    between atoms: C_3  and  C_4
REMARK    4  A    between atoms: C_4  and  C_5
REMARK    5  A    between atoms: C_5  and  C_7
REMARK    6  A    between atoms: C_5  and  C_8
REMARK    7  A    between atoms: C_12  and  C_21
REMARK    8  A    between atoms: N_23  and  C_24
REMARK    9  A    between atoms: C_24  and  C_26
REMARK   10  A    between atoms: C_24  and  C_33
REMARK   11  A    between atoms: C_26  and  C_27
REMARK                            x       y       z     vdW  Elec       q    Type
REMARK                         _______ _______ _______ _____ _____    ______ ____
ROOT
ATOM      1  C   UNL     1       2.552  -3.894   2.431  0.00  0.00    +0.218 C 
ATOM      2  O   UNL     1       2.487  -4.464   1.362  0.00  0.00    -0.275 OA
ATOM      3  N   UNL     1       3.052  -4.535   3.506  0.00  0.00    -0.300 N 
ATOM      4  C   UNL     1       3.107  -4.052   4.906  0.00  0.00    +0.121 C 
ATOM      5  C   UNL     1       2.783  -5.298   5.761  0.00  0.00    +0.100 C 
ATOM      6  C   UNL     1       3.156  -6.494   4.870  0.00  0.00    -0.004 C 
ATOM      7  C   UNL     1       3.665  -5.884   3.556  0.00  0.00    +0.115 C 
ATOM      8  C   UNL     1       1.927  -7.357   4.602  0.00  0.00    -0.010 C 
ATOM      9  C   UNL     1       2.336  -8.571   3.762  0.00  0.00    -0.082 C 
ATOM     10  N   UNL     1       3.355  -9.345   4.480  0.00  0.00    +0.379 N 
ATOM     11  C   UNL     1       4.569  -8.537   4.652  0.00  0.00    -0.082 C 
ATOM     12  C   UNL     1       4.255  -7.322   5.530  0.00  0.00    -0.010 C 
ATOM     13  H   UNL     1       2.998  -9.610   5.386  0.00  0.00    -0.086 HD
ATOM     14  H   UNL     1       3.578 -10.176   3.953  0.00  0.00    -0.086 HD
ENDROOT
BRANCH   5  15
ATOM     15  C   UNL     1       3.610  -5.300   7.021  0.00  0.00    +0.219 C 
ATOM     16  O   UNL     1       4.719  -4.808   7.019  0.00  0.00    -0.275 OA
ATOM     17  N   UNL     1       3.118  -5.848   8.149  0.00  0.00    -0.303 N 
ATOM     18  H   UNL     1       2.231  -6.241   8.151  0.00  0.00    +0.149 HD
BRANCH  17  19
ATOM     19  C   UNL     1       3.922  -5.850   9.374  0.00  0.00    +0.163 C 
BRANCH  19  20
ATOM     20  C   UNL     1       3.482  -6.985  10.262  0.00  0.00    +0.236 C 
ATOM     21  O   UNL     1       2.362  -7.437  10.158  0.00  0.00    -0.274 OA
ATOM     22  N   UNL     1       4.334  -7.498  11.172  0.00  0.00    -0.300 N 
ATOM     23  C   UNL     1       5.649  -6.882  11.398  0.00  0.00    +0.108 C 
ATOM     24  C   UNL     1       5.802  -6.582  12.892  0.00  0.00    +0.019 C 
ATOM     25  C   UNL     1       5.563  -7.863  13.693  0.00  0.00    +0.003 C 
ATOM     26  C   UNL     1       4.138  -8.364  13.445  0.00  0.00    +0.019 C 
ATOM     27  C   UNL     1       3.963  -8.681  11.961  0.00  0.00    +0.108 C 
ENDBRANCH  19  20
BRANCH  19  28
ATOM     28  C   UNL     1       3.733  -4.523  10.110  0.00  0.00    +0.067 C 
BRANCH  28  29
ATOM     29  C   UNL     1       4.251  -3.395   9.255  0.00  0.00    -0.045 A 
ATOM     30  C   UNL     1       5.573  -3.003   9.356  0.00  0.00    +0.004 A 
ATOM     31  C   UNL     1       6.048  -1.969   8.571  0.00  0.00    +0.000 A 
ATOM     32  C   UNL     1       5.202  -1.327   7.686  0.00  0.00    +0.000 A 
ATOM     33  C   UNL     1       3.881  -1.720   7.586  0.00  0.00    +0.000 A 
ATOM     34  C   UNL     1       3.406  -2.757   8.367  0.00  0.00    +0.004 A 
ENDBRANCH  28  29
ENDBRANCH  19  28
ENDBRANCH  17  19
ENDBRANCH   5  15
BRANCH   1  35
ATOM     35  C   UNL     1       2.073  -2.471   2.557  0.00  0.00    +0.072 C 
ATOM     36  C   UNL     1       0.598  -2.463   2.962  0.00  0.00    +0.017 C 
BRANCH  35  37
ATOM     37  C   UNL     1       2.237  -1.757   1.213  0.00  0.00    +0.012 C 
BRANCH  37  38
ATOM     38  C   UNL     1       1.869  -0.280   1.372  0.00  0.00    +0.000 C 
BRANCH  38  40
ATOM     39  C   UNL     1       1.665   1.910   0.188  0.00  0.00    +0.004 C 
ATOM     40  C   UNL     1       2.034   0.433   0.029  0.00  0.00    -0.003 C 
ENDBRANCH  38  40
ENDBRANCH  37  38
ENDBRANCH  35  37
ENDBRANCH   1  35
TORSDOF 9
