REMARK  Name = ZINC67370899
REMARK  1 active torsions:
REMARK  status: ('A' for Active; 'I' for Inactive)
REMARK    1  A    between atoms: C_7  and  N_13
REMARK                            x       y       z     vdW  Elec       q    Type
REMARK                         _______ _______ _______ _____ _____    ______ ____
ROOT
ATOM      1  C   UNL     1       0.201   1.445  -0.140  0.00  0.00    +0.001 A 
ATOM      2  C   UNL     1       1.428   2.079  -0.212  0.00  0.00    +0.004 A 
ATOM      3  C   UNL     1       2.593   1.337  -0.230  0.00  0.00    +0.046 A 
ATOM      4  C   UNL     1       2.527  -0.049  -0.171  0.00  0.00    +0.125 A 
ATOM      5  C   UNL     1       1.301  -0.675  -0.086  0.00  0.00    +0.014 A 
ATOM      6  C   UNL     1       0.136   0.064  -0.079  0.00  0.00    +0.009 A 
ATOM      7  C   UNL     1       1.241  -2.186   0.028  0.00  0.00    +0.107 C 
ATOM      8  C   UNL     1       1.701  -2.796  -1.297  0.00  0.00    +0.030 C 
ATOM      9  C   UNL     1       3.219  -2.876  -1.357  0.00  0.00    +0.043 C 
ATOM     10  C   UNL     1       3.892  -1.521  -1.421  0.00  0.00    +0.229 C 
ATOM     11  O   UNL     1       3.673  -0.784  -0.213  0.00  0.00    -0.492 OA
ENDROOT
BRANCH   7  12
ATOM     12  N   UNL     1       2.122  -2.633   1.110  0.00  0.00    -0.307 N 
ATOM     13  C   UNL     1       1.873  -3.833   1.754  0.00  0.00    +0.216 A 
ATOM     14  N   UNL     1       0.838  -4.567   1.376  0.00  0.00    -0.222 NA
ATOM     15  C   UNL     1       0.572  -5.718   1.970  0.00  0.00    +0.131 A 
ATOM     16  C   UNL     1       1.392  -6.153   3.000  0.00  0.00    +0.054 A 
ATOM     17  C   UNL     1       2.468  -5.360   3.370  0.00  0.00    +0.131 A 
ATOM     18  N   UNL     1       2.680  -4.222   2.730  0.00  0.00    -0.222 NA
ATOM     19 BR   UNL     1       1.052  -7.792   3.880  0.00  0.00    -0.047 Br
ATOM     20  H   UNL     1       2.880  -2.088   1.375  0.00  0.00    +0.150 HD
ENDBRANCH   7  12
TORSDOF 1
