REMARK  Name = ZINC38990281
REMARK  9 active torsions:
REMARK  status: ('A' for Active; 'I' for Inactive)
REMARK    1  A    between atoms: C_4  and  C_7
REMARK    2  A    between atoms: C_7  and  C_8
REMARK    3  A    between atoms: C_8  and  O_9
REMARK    4  A    between atoms: O_9  and  C_10
REMARK    5  A    between atoms: C_13  and  C_16
REMARK    6  A    between atoms: C_18  and  C_22
REMARK    7  A    between atoms: N_24  and  N_25
REMARK    8  A    between atoms: C_26  and  C_27
REMARK    9  A    between atoms: C_32  and  O_33
REMARK                            x       y       z     vdW  Elec       q    Type
REMARK                         _______ _______ _______ _____ _____    ______ ____
ROOT
ATOM      1  C   UNL     1       7.694  -2.930   6.353  0.00  0.00    +0.092 C 
ATOM      2  C   UNL     1       8.866  -3.574   6.520  0.00  0.00    +0.041 C 
ATOM      3  C   UNL     1       9.019  -3.664   8.028  0.00  0.00    +0.240 C 
ATOM      4  N   UNL     1       7.805  -2.999   8.530  0.00  0.00    -0.170 NA
ATOM      5  N   UNL     1       7.144  -2.627   7.558  0.00  0.00    -0.153 NA
ENDROOT
BRANCH   1   9
ATOM      6  C   UNL     1       5.969  -1.968   2.586  0.00  0.00    +0.121 A 
ATOM      7  C   UNL     1       5.318  -1.609   3.758  0.00  0.00    +0.046 A 
ATOM      8  C   UNL     1       5.874  -1.920   4.981  0.00  0.00    +0.013 A 
ATOM      9  C   UNL     1       7.092  -2.595   5.039  0.00  0.00    +0.002 A 
ATOM     10  C   UNL     1       7.744  -2.954   3.861  0.00  0.00    +0.013 A 
ATOM     11  C   UNL     1       7.180  -2.645   2.641  0.00  0.00    +0.046 A 
BRANCH   6  12
ATOM     12  O   UNL     1       5.418  -1.661   1.382  0.00  0.00    -0.492 OA
BRANCH  12  13
ATOM     13  C   UNL     1       4.171  -0.963   1.399  0.00  0.00    +0.233 C 
BRANCH  13  14
ATOM     14  C   UNL     1       3.711  -0.707  -0.038  0.00  0.00    +0.076 C 
BRANCH  14  18
ATOM     15  C   UNL     1      -0.017   1.378   0.010  0.00  0.00    +0.000 A 
ATOM     16  C   UNL     1       1.171   2.086   0.002  0.00  0.00    +0.000 A 
ATOM     17  C   UNL     1       2.377   1.411  -0.013  0.00  0.00    +0.004 A 
ATOM     18  C   UNL     1       2.396   0.029  -0.020  0.00  0.00    -0.044 A 
ATOM     19  C   UNL     1       1.208  -0.679  -0.012  0.00  0.00    +0.004 A 
ATOM     20  C   UNL     1       0.002  -0.004   0.002  0.00  0.00    +0.000 A 
ENDBRANCH  14  18
ENDBRANCH  13  14
ENDBRANCH  12  13
ENDBRANCH   6  12
ENDBRANCH   1   9
BRANCH   3  21
ATOM     21  C   UNL     1      10.256  -2.932   8.481  0.00  0.00    +0.263 C 
ATOM     22  O   UNL     1      10.165  -1.815   8.945  0.00  0.00    -0.271 OA
ATOM     23  N   UNL     1      11.465  -3.519   8.372  0.00  0.00    -0.205 N 
ATOM     24  H   UNL     1      11.538  -4.412   8.001  0.00  0.00    +0.177 HD
BRANCH  23  25
ATOM     25  N   UNL     1      12.615  -2.838   8.793  0.00  0.00    -0.188 NA
ATOM     26  C   UNL     1      13.778  -3.404   8.688  0.00  0.00    +0.142 C 
BRANCH  26  27
ATOM     27  C   UNL     1      14.988  -2.688   9.131  0.00  0.00    +0.037 A 
ATOM     28  C   UNL     1      16.243  -3.290   9.014  0.00  0.00    +0.028 A 
ATOM     29  C   UNL     1      17.371  -2.615   9.430  0.00  0.00    +0.019 A 
ATOM     30  C   UNL     1      17.265  -1.341   9.965  0.00  0.00    +0.019 A 
ATOM     31  C   UNL     1      16.029  -0.735  10.086  0.00  0.00    +0.047 A 
ATOM     32  C   UNL     1      14.886  -1.397   9.667  0.00  0.00    +0.126 A 
ATOM     33 BR   UNL     1      19.070  -3.430   9.272  0.00  0.00    -0.050 Br
BRANCH  32  34
ATOM     34  O   UNL     1      13.672  -0.800   9.781  0.00  0.00    -0.506 OA
ATOM     35  H   UNL     1      13.227  -0.970  10.622  0.00  0.00    +0.292 HD
ENDBRANCH  32  34
ENDBRANCH  26  27
ENDBRANCH  23  25
ENDBRANCH   3  21
TORSDOF 9
