REMARK  Name = ZINC06244797
REMARK  7 active torsions:
REMARK  status: ('A' for Active; 'I' for Inactive)
REMARK    1  A    between atoms: C_1  and  C_2
REMARK    2  A    between atoms: C_5  and  C_38
REMARK    3  A    between atoms: C_9  and  C_14
REMARK    4  A    between atoms: C_14  and  C_16
REMARK    5  A    between atoms: C_14  and  N_27
REMARK    6  A    between atoms: N_20  and  C_21
REMARK    7  A    between atoms: C_35  and  C_37
REMARK                            x       y       z     vdW  Elec       q    Type
REMARK                         _______ _______ _______ _____ _____    ______ ____
ROOT
ATOM      1  C   UNL     1       3.433   0.592  -0.544  0.00  0.00    +0.179 C 
ENDROOT
BRANCH   1  10
ATOM      2  C   UNL     1       5.270  -2.506   3.217  0.00  0.00    +0.044 C 
ATOM      3  C   UNL     1       4.926  -1.184   3.854  0.00  0.00    -0.041 A 
ATOM      4  C   UNL     1       5.122  -0.996   5.193  0.00  0.00    +0.004 A 
ATOM      5  C   UNL     1       4.808   0.218   5.789  0.00  0.00    +0.005 A 
ATOM      6  C   UNL     1       4.292   1.256   5.043  0.00  0.00    -0.026 A 
ATOM      7  C   UNL     1       4.084   1.087   3.678  0.00  0.00    +0.052 A 
ATOM      8  C   UNL     1       4.404  -0.145   3.077  0.00  0.00    +0.002 A 
ATOM      9  C   UNL     1       4.182  -0.312   1.639  0.00  0.00    +0.021 A 
ATOM     10  C   UNL     1       3.674   0.731   0.937  0.00  0.00    +0.045 A 
ATOM     11  C   UNL     1       3.375   1.947   1.587  0.00  0.00    +0.255 A 
ATOM     12  O   UNL     1       2.924   2.874   0.936  0.00  0.00    -0.268 OA
ATOM     13  N   UNL     1       3.570   2.108   2.907  0.00  0.00    -0.322 N 
ATOM     14  H   UNL     1       3.350   2.957   3.323  0.00  0.00    +0.169 HD
ATOM     15  C   UNL     1       3.956   2.568   5.703  0.00  0.00    +0.046 C 
ENDBRANCH   1  10
BRANCH   1  16
ATOM     16  N   UNL     1       3.983   1.762  -1.241  0.00  0.00    -0.312 N 
ATOM     17  C   UNL     1       3.834   1.636  -2.628  0.00  0.00    +0.034 A 
ATOM     18  C   UNL     1       2.766   1.135  -3.372  0.00  0.00    +0.023 A 
ATOM     19  C   UNL     1       2.831   1.111  -4.749  0.00  0.00    +0.002 A 
ATOM     20  C   UNL     1       3.955   1.583  -5.402  0.00  0.00    +0.000 A 
ATOM     21  C   UNL     1       5.020   2.079  -4.672  0.00  0.00    +0.005 A 
ATOM     22  C   UNL     1       4.961   2.102  -3.294  0.00  0.00    -0.025 A 
ATOM     23  C   UNL     1       5.961   2.564  -2.253  0.00  0.00    +0.059 C 
ATOM     24  C   UNL     1       5.425   1.921  -0.953  0.00  0.00    +0.076 C 
ATOM     25  C   UNL     1       6.083   0.562  -0.708  0.00  0.00    +0.028 C 
ENDBRANCH   1  16
BRANCH   1  26
ATOM     26  C   UNL     1       1.952   0.502  -0.806  0.00  0.00    +0.177 A 
ATOM     27  N   UNL     1       1.088   1.487  -0.762  0.00  0.00    -0.111 NA
ATOM     28  N   UNL     1      -0.075   1.009  -1.044  0.00  0.00    -0.023 NA
ATOM     29  N   UNL     1       0.025  -0.255  -1.268  0.00  0.00    -0.044 NA
ATOM     30  N   UNL     1       1.259  -0.606  -1.130  0.00  0.00    -0.224 N 
BRANCH  30  31
ATOM     31  C   UNL     1       1.804  -1.955  -1.297  0.00  0.00    +0.111 C 
ATOM     32  C   UNL     1       1.533  -2.442  -2.722  0.00  0.00    +0.027 C 
ATOM     33  C   UNL     1       2.102  -3.852  -2.896  0.00  0.00    +0.002 C 
ATOM     34  C   UNL     1       1.433  -4.799  -1.897  0.00  0.00    +0.000 C 
ATOM     35  C   UNL     1       1.703  -4.312  -0.472  0.00  0.00    +0.002 C 
ATOM     36  C   UNL     1       1.134  -2.902  -0.299  0.00  0.00    +0.027 C 
ENDBRANCH  30  31
ENDBRANCH   1  26
TORSDOF 4
