REMARK  Name = ZINC36806960
REMARK  12 active torsions:
REMARK  status: ('A' for Active; 'I' for Inactive)
REMARK    1  A    between atoms: C_1  and  C_2
REMARK    2  A    between atoms: C_2  and  C_3
REMARK    3  A    between atoms: C_3  and  C_4
REMARK    4  A    between atoms: C_4  and  C_5
REMARK    5  A    between atoms: C_5  and  C_6
REMARK    6  A    between atoms: C_6  and  C_7
REMARK    7  A    between atoms: C_7  and  C_28
REMARK    8  A    between atoms: N_10  and  C_14
REMARK    9  A    between atoms: C_14  and  C_15
REMARK   10  A    between atoms: N_17  and  C_18
REMARK   11  A    between atoms: C_18  and  C_20
REMARK   12  A    between atoms: C_18  and  C_21
REMARK                            x       y       z     vdW  Elec       q    Type
REMARK                         _______ _______ _______ _____ _____    ______ ____
ROOT
ATOM      1  C   UNL     1       2.264  -4.584   3.704  0.00  0.00    +0.110 C 
ATOM      2  C   UNL     1       2.501  -6.078   3.609  0.00  0.00    +0.247 C 
ATOM      3  O   UNL     1       1.662  -6.950   3.538  0.00  0.00    -0.273 OA
ATOM      4  N   UNL     1       3.840  -6.236   3.620  0.00  0.00    -0.215 N 
ATOM      5  C   UNL     1       4.474  -5.061   3.707  0.00  0.00    +0.310 C 
ATOM      6  O   UNL     1       5.684  -4.947   3.734  0.00  0.00    -0.252 OA
ATOM      7  N   UNL     1       3.623  -4.020   3.762  0.00  0.00    -0.285 N 
ATOM      8  C   UNL     1       1.483  -4.239   4.973  0.00  0.00    +0.041 C 
ATOM      9  H   UNL     1       3.859  -3.082   3.828  0.00  0.00    +0.151 HD
ENDROOT
BRANCH   1  10
ATOM     10  C   UNL     1       1.524  -4.077   2.464  0.00  0.00    +0.035 C 
BRANCH  10  11
ATOM     11  C   UNL     1       1.503  -2.548   2.473  0.00  0.00    +0.003 C 
BRANCH  11  12
ATOM     12  C   UNL     1       0.763  -2.041   1.233  0.00  0.00    +0.000 C 
BRANCH  12  13
ATOM     13  C   UNL     1       0.742  -0.511   1.242  0.00  0.00    -0.000 C 
BRANCH  13  15
ATOM     14  C   UNL     1      -0.019   1.526   0.010  0.00  0.00    +0.004 C 
ATOM     15  C   UNL     1       0.002  -0.004   0.002  0.00  0.00    -0.003 C 
ENDBRANCH  13  15
ENDBRANCH  12  13
ENDBRANCH  11  12
ENDBRANCH  10  11
ENDBRANCH   1  10
BRANCH   4  16
ATOM     16  C   UNL     1       4.516  -7.533   3.546  0.00  0.00    +0.213 C 
BRANCH  16  17
ATOM     17  C   UNL     1       4.771  -7.885   2.103  0.00  0.00    +0.231 C 
ATOM     18  O   UNL     1       4.421  -7.128   1.223  0.00  0.00    -0.274 OA
ATOM     19  N   UNL     1       5.387  -9.043   1.791  0.00  0.00    -0.307 N 
ATOM     20  H   UNL     1       5.666  -9.649   2.494  0.00  0.00    +0.149 HD
BRANCH  19  21
ATOM     21  C   UNL     1       5.634  -9.385   0.388  0.00  0.00    +0.100 C 
ATOM     22  C   UNL     1       6.940  -8.736  -0.073  0.00  0.00    +0.033 C 
BRANCH  21  23
ATOM     23  C   UNL     1       5.740 -10.882   0.247  0.00  0.00    -0.027 A 
ATOM     24  C   UNL     1       6.401 -11.621   1.211  0.00  0.00    +0.008 A 
ATOM     25  C   UNL     1       6.499 -12.993   1.084  0.00  0.00    +0.038 A 
ATOM     26  C   UNL     1       5.935 -13.629  -0.009  0.00  0.00    +0.123 A 
ATOM     27  C   UNL     1       5.273 -12.888  -0.974  0.00  0.00    +0.038 A 
ATOM     28  C   UNL     1       5.172 -11.516  -0.842  0.00  0.00    +0.008 A 
ATOM     29  F   UNL     1       6.030 -14.970  -0.135  0.00  0.00    -0.205 F 
ENDBRANCH  21  23
ENDBRANCH  19  21
ENDBRANCH  16  17
ENDBRANCH   4  16
TORSDOF 9
