REMARK  Name = ZINC00924965
REMARK  10 active torsions:
REMARK  status: ('A' for Active; 'I' for Inactive)
REMARK    1  A    between atoms: C_1  and  C_2
REMARK    2  A    between atoms: C_2  and  O_3
REMARK    3  A    between atoms: O_3  and  C_4
REMARK    4  A    between atoms: C_11  and  C_16
REMARK    5  A    between atoms: C_16  and  N_17
REMARK    6  A    between atoms: N_17  and  C_18
REMARK    7  A    between atoms: N_17  and  S_26
REMARK    8  A    between atoms: C_18  and  C_19
REMARK    9  A    between atoms: C_19  and  C_20
REMARK   10  A    between atoms: S_26  and  C_29
REMARK                            x       y       z     vdW  Elec       q    Type
REMARK                         _______ _______ _______ _____ _____    ______ ____
ROOT
ATOM      1  N   UNL     1       0.002  -0.004   0.002  0.00  0.00    -0.172 NA
ENDROOT
BRANCH   1   2
ATOM      2  S   UNL     1      -0.020   1.652   0.011  0.00  0.00    +0.063 S 
ATOM      3  O   UNL     1      -0.589   2.057  -1.227  0.00  0.00    -0.153 OA
ATOM      4  O   UNL     1      -0.565   2.044   1.264  0.00  0.00    -0.153 OA
BRANCH   2   5
ATOM      5  C   UNL     1       1.655   2.196  -0.002  0.00  0.00    +0.134 A 
ATOM      6  C   UNL     1       2.136   2.882  -1.066  0.00  0.00    +0.031 A 
ATOM      7  C   UNL     1       3.457   3.328  -1.110  0.00  0.00    +0.004 A 
ATOM      8  C   UNL     1       4.318   3.095  -0.091  0.00  0.00    +0.031 A 
ATOM      9  C   UNL     1       3.884   2.381   1.056  0.00  0.00    +0.102 A 
ATOM     10  C   UNL     1       2.500   1.919   1.105  0.00  0.00    +0.126 A 
ATOM     11  N   UNL     1       2.228   1.273   2.237  0.00  0.00    -0.189 NA
ATOM     12  S   UNL     1       3.551   1.284   3.076  0.00  0.00    +0.117 S 
ATOM     13  N   UNL     1       4.561   2.049   2.153  0.00  0.00    -0.191 NA
ENDBRANCH   2   5
ENDBRANCH   1   2
BRANCH   1  14
ATOM     14  C   UNL     1      -0.000  -0.730  -1.271  0.00  0.00    +0.150 C 
BRANCH  14  22
ATOM     15  C   UNL     1       5.204  -4.055  -1.811  0.00  0.00    +0.121 A 
ATOM     16  C   UNL     1       5.931  -3.084  -2.495  0.00  0.00    +0.047 A 
ATOM     17  C   UNL     1       5.364  -1.866  -2.799  0.00  0.00    +0.030 A 
ATOM     18  C   UNL     1       4.053  -1.597  -2.422  0.00  0.00    +0.049 A 
ATOM     19  C   UNL     1       3.314  -2.575  -1.730  0.00  0.00    +0.002 A 
ATOM     20  C   UNL     1       3.901  -3.808  -1.427  0.00  0.00    +0.055 A 
ATOM     21  C   UNL     1       1.936  -2.276  -1.335  0.00  0.00    +0.020 A 
ATOM     22  C   UNL     1       1.416  -1.067  -1.659  0.00  0.00    +0.033 A 
ATOM     23  C   UNL     1       2.199  -0.120  -2.354  0.00  0.00    +0.254 A 
ATOM     24  O   UNL     1       1.714   0.963  -2.632  0.00  0.00    -0.268 OA
ATOM     25  N   UNL     1       3.466  -0.383  -2.718  0.00  0.00    -0.322 N 
ATOM     26  H   UNL     1       3.992   0.311  -3.209  0.00  0.00    +0.169 HD
BRANCH  15  27
ATOM     27  O   UNL     1       5.780  -5.251  -1.518  0.00  0.00    -0.492 OA
BRANCH  27  29
ATOM     28  C   UNL     1       7.604  -6.837  -1.529  0.00  0.00    +0.048 C 
ATOM     29  C   UNL     1       7.131  -5.442  -1.944  0.00  0.00    +0.225 C 
ENDBRANCH  27  29
ENDBRANCH  15  27
ENDBRANCH  14  22
ENDBRANCH   1  14
BRANCH   1  30
ATOM     30  C   UNL     1       0.024  -0.743   1.267  0.00  0.00    +0.114 C 
BRANCH  30  31
ATOM     31  C   UNL     1      -1.404  -1.129   1.657  0.00  0.00    +0.052 C 
BRANCH  31  32
ATOM     32  C   UNL     1      -1.381  -1.889   2.958  0.00  0.00    -0.046 A 
ATOM     33  C   UNL     1      -1.264  -3.267   2.951  0.00  0.00    +0.003 A 
ATOM     34  C   UNL     1      -1.238  -3.964   4.145  0.00  0.00    +0.000 A 
ATOM     35  C   UNL     1      -1.340  -3.284   5.345  0.00  0.00    +0.000 A 
ATOM     36  C   UNL     1      -1.463  -1.907   5.351  0.00  0.00    +0.000 A 
ATOM     37  C   UNL     1      -1.484  -1.210   4.157  0.00  0.00    +0.003 A 
ENDBRANCH  31  32
ENDBRANCH  30  31
ENDBRANCH   1  30
TORSDOF 9
