REMARK  Name = ZINC09868103
REMARK  6 active torsions:
REMARK  status: ('A' for Active; 'I' for Inactive)
REMARK    1  A    between atoms: C_3  and  N_18
REMARK    2  A    between atoms: C_6  and  N_7
REMARK    3  A    between atoms: N_7  and  S_8
REMARK    4  A    between atoms: S_8  and  C_11
REMARK    5  A    between atoms: N_18  and  S_19
REMARK    6  A    between atoms: S_19  and  C_22
REMARK                            x       y       z     vdW  Elec       q    Type
REMARK                         _______ _______ _______ _____ _____    ______ ____
ROOT
ATOM      1  C   UNL     1       2.790  -0.997  -2.426  0.00  0.00    +0.026 A 
ATOM      2  C   UNL     1       3.796  -0.803  -3.352  0.00  0.00    +0.026 A 
ATOM      3  C   UNL     1       4.113  -1.811  -4.254  0.00  0.00    +0.048 A 
ATOM      4  C   UNL     1       3.422  -3.015  -4.220  0.00  0.00    +0.026 A 
ATOM      5  C   UNL     1       2.420  -3.210  -3.290  0.00  0.00    +0.026 A 
ATOM      6  C   UNL     1       2.103  -2.203  -2.388  0.00  0.00    +0.048 A 
ENDROOT
BRANCH   6   7
ATOM      7  N   UNL     1       1.088  -2.401  -1.445  0.00  0.00    -0.216 N 
ATOM      8  H   UNL     1       0.234  -1.954  -1.551  0.00  0.00    +0.174 HD
BRANCH   7   9
ATOM      9  S   UNL     1       1.345  -3.400  -0.149  0.00  0.00    +0.072 S 
ATOM     10  O   UNL     1       1.875  -4.611  -0.669  0.00  0.00    -0.150 OA
ATOM     11  O   UNL     1       0.160  -3.361   0.634  0.00  0.00    -0.150 OA
BRANCH   9  12
ATOM     12  C   UNL     1       2.618  -2.671   0.826  0.00  0.00    +0.109 A 
ATOM     13  C   UNL     1       2.303  -1.705   1.763  0.00  0.00    +0.031 A 
ATOM     14  C   UNL     1       3.300  -1.132   2.529  0.00  0.00    +0.040 A 
ATOM     15  C   UNL     1       4.617  -1.526   2.357  0.00  0.00    +0.124 A 
ATOM     16  C   UNL     1       4.931  -2.493   1.417  0.00  0.00    +0.040 A 
ATOM     17  C   UNL     1       3.932  -3.064   0.653  0.00  0.00    +0.031 A 
ATOM     18  F   UNL     1       5.593  -0.966   3.104  0.00  0.00    -0.205 F 
ENDBRANCH   9  12
ENDBRANCH   7   9
ENDBRANCH   6   7
BRANCH   3  19
ATOM     19  N   UNL     1       5.129  -1.613  -5.196  0.00  0.00    -0.216 N 
ATOM     20  H   UNL     1       6.058  -1.643  -4.921  0.00  0.00    +0.174 HD
BRANCH  19  21
ATOM     21  S   UNL     1       4.744  -1.327  -6.781  0.00  0.00    +0.079 S 
ATOM     22  O   UNL     1       5.972  -1.129  -7.468  0.00  0.00    -0.149 OA
ATOM     23  O   UNL     1       3.812  -2.330  -7.160  0.00  0.00    -0.149 OA
BRANCH  21  24
ATOM     24  C   UNL     1       3.882   0.209  -6.839  0.00  0.00    +0.147 A 
ATOM     25  C   UNL     1       4.366   1.451  -7.085  0.00  0.00    +0.038 A 
ATOM     26  C   UNL     1       3.494   2.524  -7.080  0.00  0.00    +0.030 A 
ATOM     27  C   UNL     1       2.180   2.301  -6.829  0.00  0.00    +0.080 A 
ATOM     28  S   UNL     1       2.143   0.532  -6.596  0.00  0.00    -0.057 S 
ATOM     29 CL   UNL     1       0.872   3.441  -6.760  0.00  0.00    -0.076 Cl
ENDBRANCH  21  24
ENDBRANCH  19  21
ENDBRANCH   3  19
TORSDOF 6
