REMARK  Name = ZINC19597569
REMARK  15 active torsions:
REMARK  status: ('A' for Active; 'I' for Inactive)
REMARK    1  A    between atoms: C_1  and  C_2
REMARK    2  A    between atoms: C_3  and  C_22
REMARK    3  A    between atoms: C_4  and  C_16
REMARK    4  A    between atoms: C_5  and  C_9
REMARK    5  A    between atoms: C_6  and  C_8
REMARK    6  A    between atoms: C_9  and  O_11
REMARK    7  A    between atoms: O_11  and  C_12
REMARK    8  A    between atoms: C_12  and  C_13
REMARK    9  A    between atoms: C_12  and  C_14
REMARK   10  A    between atoms: C_12  and  C_15
REMARK   11  A    between atoms: C_22  and  O_24
REMARK   12  A    between atoms: O_24  and  C_25
REMARK   13  A    between atoms: C_25  and  C_26
REMARK   14  A    between atoms: C_25  and  C_27
REMARK   15  A    between atoms: C_25  and  C_28
REMARK                            x       y       z     vdW  Elec       q    Type
REMARK                         _______ _______ _______ _____ _____    ______ ____
ROOT
ATOM      1  C   UNL     1      -5.092   3.680   0.632  0.00  0.00    +0.061 C 
ATOM      2  C   UNL     1      -3.724   3.128   0.326  0.00  0.00    +0.016 C 
ATOM      3  C   UNL     1      -2.639   3.900   0.514  0.00  0.00    +0.067 C 
ATOM      4  C   UNL     1      -1.257   3.393   0.220  0.00  0.00    +0.112 C 
ATOM      5  C   UNL     1      -1.253   1.897   0.089  0.00  0.00    +0.067 C 
ATOM      6  C   UNL     1      -2.393   1.205  -0.082  0.00  0.00    +0.016 C 
ATOM      7  N   UNL     1      -3.600   1.847  -0.139  0.00  0.00    -0.321 N 
ATOM      8  C   UNL     1      -2.341  -0.295  -0.213  0.00  0.00    +0.061 C 
ATOM      9  H   UNL     1      -4.474   1.329  -0.562  0.00  0.00    +0.152 HD
ENDROOT
BRANCH   4  10
ATOM     10  C   UNL     1      -0.773   4.006  -1.069  0.00  0.00    +0.028 A 
ATOM     11  C   UNL     1      -1.000   3.524  -2.308  0.00  0.00    +0.023 A 
ATOM     12  C   UNL     1      -0.376   4.397  -3.221  0.00  0.00    +0.019 A 
ATOM     13  C   UNL     1       0.216   5.374  -2.505  0.00  0.00    +0.083 A 
ATOM     14  N   UNL     1      -0.024   5.140  -1.183  0.00  0.00    -0.364 N 
ATOM     15  H   UNL     1       0.278   5.692  -0.282  0.00  0.00    +0.165 HD
ENDBRANCH   4  10
BRANCH   5  16
ATOM     16  C   UNL     1      -0.024   1.200   0.152  0.00  0.00    +0.338 C 
ATOM     17  O   UNL     1       0.486   0.963   1.231  0.00  0.00    -0.245 OA
BRANCH  16  18
ATOM     18  O   UNL     1       0.580   0.793  -0.984  0.00  0.00    -0.456 OA
BRANCH  18  19
ATOM     19  C   UNL     1       1.816   0.089  -0.846  0.00  0.00    +0.106 C 
ATOM     20  C   UNL     1       1.590  -1.181  -0.023  0.00  0.00    +0.055 C 
ATOM     21  C   UNL     1       2.346  -0.287  -2.231  0.00  0.00    +0.055 C 
ATOM     22  C   UNL     1       2.835   0.983  -0.135  0.00  0.00    +0.055 C 
ENDBRANCH  18  19
ENDBRANCH  16  18
ENDBRANCH   5  16
BRANCH   3  23
ATOM     23  C   UNL     1      -2.803   5.216   1.004  0.00  0.00    +0.338 C 
ATOM     24  O   UNL     1      -3.917   5.638   1.252  0.00  0.00    -0.245 OA
BRANCH  23  25
ATOM     25  O   UNL     1      -1.724   6.003   1.198  0.00  0.00    -0.456 OA
BRANCH  25  26
ATOM     26  C   UNL     1      -1.964   7.321   1.696  0.00  0.00    +0.106 C 
ATOM     27  C   UNL     1      -2.659   7.234   3.056  0.00  0.00    +0.055 C 
ATOM     28  C   UNL     1      -0.632   8.058   1.850  0.00  0.00    +0.055 C 
ATOM     29  C   UNL     1      -2.857   8.082   0.714  0.00  0.00    +0.055 C 
ENDBRANCH  25  26
ENDBRANCH  23  25
ENDBRANCH   3  23
TORSDOF 7
