REMARK  Name = ZINC09272720
REMARK  13 active torsions:
REMARK  status: ('A' for Active; 'I' for Inactive)
REMARK    1  A    between atoms: C_1  and  C_2
REMARK    2  A    between atoms: C_4  and  C_10
REMARK    3  A    between atoms: C_7  and  O_8
REMARK    4  A    between atoms: O_8  and  C_9
REMARK    5  A    between atoms: C_10  and  C_12
REMARK    6  A    between atoms: C_13  and  O_31
REMARK    7  A    between atoms: N_16  and  C_26
REMARK    8  A    between atoms: C_17  and  C_19
REMARK    9  A    between atoms: C_26  and  C_27
REMARK   10  A    between atoms: C_27  and  C_28
REMARK   11  A    between atoms: C_28  and  N_58
REMARK   12  A    between atoms: C_29  and  N_58
REMARK   13  A    between atoms: C_30  and  N_58
REMARK                            x       y       z     vdW  Elec       q    Type
REMARK                         _______ _______ _______ _____ _____    ______ ____
ROOT
ATOM      1  C   UNL     1      -0.414   8.012   0.824  0.00  0.00    +0.071 C 
ATOM      2  C   UNL     1      -0.307   9.357   0.729  0.00  0.00    +0.188 C 
ATOM      3  C   UNL     1       0.366   9.703  -0.541  0.00  0.00    +0.282 C 
ATOM      4  O   UNL     1       0.609  10.832  -0.917  0.00  0.00    -0.267 OA
ATOM      5  N   UNL     1       0.669   8.581  -1.220  0.00  0.00    -0.284 N 
ATOM      6  C   UNL     1       0.215   7.435  -0.423  0.00  0.00    +0.144 C 
ENDROOT
BRANCH   6   7
ATOM      7  C   UNL     1       1.385   6.559  -0.056  0.00  0.00    -0.022 A 
ATOM      8  C   UNL     1       2.537   7.124   0.457  0.00  0.00    +0.007 A 
ATOM      9  C   UNL     1       3.609   6.320   0.798  0.00  0.00    +0.015 A 
ATOM     10  C   UNL     1       3.531   4.951   0.617  0.00  0.00    +0.018 A 
ATOM     11  C   UNL     1       2.379   4.386   0.099  0.00  0.00    +0.015 A 
ATOM     12  C   UNL     1       1.307   5.191  -0.237  0.00  0.00    +0.007 A 
ATOM     13 BR   UNL     1       4.999   3.852   1.078  0.00  0.00    -0.050 Br
ENDBRANCH   6   7
BRANCH   1  14
ATOM     14  C   UNL     1      -1.018   7.258   1.928  0.00  0.00    +0.195 C 
ATOM     15  O   UNL     1      -0.538   7.325   3.044  0.00  0.00    -0.287 OA
BRANCH  14  19
ATOM     16  C   UNL     1      -4.431   4.030   3.601  0.00  0.00    +0.047 C 
ATOM     17  C   UNL     1      -3.852   4.864   2.487  0.00  0.00    -0.008 A 
ATOM     18  C   UNL     1      -2.739   5.641   2.717  0.00  0.00    +0.018 A 
ATOM     19  C   UNL     1      -2.207   6.419   1.684  0.00  0.00    +0.023 A 
ATOM     20  C   UNL     1      -2.805   6.400   0.420  0.00  0.00    +0.015 A 
ATOM     21  C   UNL     1      -3.914   5.616   0.197  0.00  0.00    +0.046 A 
ATOM     22  C   UNL     1      -4.440   4.843   1.227  0.00  0.00    +0.123 A 
BRANCH  22  23
ATOM     23  O   UNL     1      -5.534   4.072   1.004  0.00  0.00    -0.495 OA
ATOM     24  C   UNL     1      -6.091   4.102  -0.312  0.00  0.00    +0.277 C 
ENDBRANCH  22  23
ENDBRANCH  14  19
ENDBRANCH   1  14
BRANCH   2  25
ATOM     25  O   UNL     1      -0.746  10.246   1.650  0.00  0.00    -0.502 OA
ATOM     26  H   UNL     1      -0.545  11.175   1.339  0.00  0.00    +0.292 HD
ENDBRANCH   2  25
BRANCH   5  27
ATOM     27  C   UNL     1       1.340   8.515  -2.520  0.00  0.00    +0.107 C 
BRANCH  27  28
ATOM     28  C   UNL     1       2.854   8.437  -2.309  0.00  0.00    +0.000 C 
BRANCH  28  29
ATOM     29  C   UNL     1       3.555   8.368  -3.668  0.00  0.00    -0.078 C 
BRANCH  29  32
ATOM     30  C   UNL     1       5.700   7.989  -4.725  0.00  0.00    -0.097 C 
ATOM     31  C   UNL     1       5.521   9.535  -2.870  0.00  0.00    -0.097 C 
ATOM     32  N   UNL     1       5.013   8.273  -3.447  0.00  0.00    +0.376 N 
ATOM     33  H   UNL     1       5.202   7.506  -2.790  0.00  0.00    -0.083 HD
ENDBRANCH  29  32
ENDBRANCH  28  29
ENDBRANCH  27  28
ENDBRANCH   5  27
TORSDOF 9
