REMARK  Name = ZINC48839787
REMARK  5 active torsions:
REMARK  status: ('A' for Active; 'I' for Inactive)
REMARK    1  A    between atoms: C_4  and  S_10
REMARK    2  A    between atoms: C_6  and  C_7
REMARK    3  A    between atoms: S_10  and  N_13
REMARK    4  A    between atoms: N_13  and  C_14
REMARK    5  A    between atoms: C_20  and  N_22
REMARK                            x       y       z     vdW  Elec       q    Type
REMARK                         _______ _______ _______ _____ _____    ______ ____
ROOT
ATOM      1  S   UNL     1       4.076  -0.851   0.003  0.00  0.00    +0.060 S 
ATOM      2  O   UNL     1       5.060  -0.331   0.886  0.00  0.00    -0.153 OA
ATOM      3  O   UNL     1       3.658  -2.209   0.043  0.00  0.00    -0.153 OA
ENDROOT
BRANCH   1   7
ATOM      4  C   UNL     1       0.337   1.658   0.571  0.00  0.00    +0.016 A 
ATOM      5  C   UNL     1       0.347   0.623  -0.340  0.00  0.00    +0.018 A 
ATOM      6  C   UNL     1       1.489  -0.141  -0.512  0.00  0.00    +0.044 A 
ATOM      7  C   UNL     1       2.628   0.128   0.230  0.00  0.00    +0.120 A 
ATOM      8  C   UNL     1       2.632   1.159   1.144  0.00  0.00    +0.044 A 
ATOM      9  C   UNL     1       1.483   1.935   1.322  0.00  0.00    +0.065 A 
ATOM     10 BR   UNL     1       1.494  -1.558  -1.764  0.00  0.00    -0.048 Br
BRANCH   9  11
ATOM     11  C   UNL     1       1.479   3.040   2.298  0.00  0.00    +0.387 C 
ATOM     12  O   UNL     1       0.472   3.717   2.452  0.00  0.00    -0.241 OA
ATOM     13  O   UNL     1       2.483   3.280   2.954  0.00  0.00    -0.241 OA
ENDBRANCH   9  11
ENDBRANCH   1   7
BRANCH   1  14
ATOM     14  N   UNL     1       4.622  -0.570  -1.534  0.00  0.00    -0.188 NA
ATOM     15  H   UNL     1       4.611  -1.283  -2.191  0.00  0.00    +0.148 HD
BRANCH  14  16
ATOM     16  C   UNL     1       5.122   0.757  -1.902  0.00  0.00    +0.062 C 
ATOM     17  C   UNL     1       6.642   0.795  -1.732  0.00  0.00    +0.019 C 
ATOM     18  C   UNL     1       7.165   2.180  -2.116  0.00  0.00    +0.001 C 
ATOM     19  C   UNL     1       6.807   2.474  -3.575  0.00  0.00    -0.001 C 
ATOM     20  C   UNL     1       5.287   2.437  -3.745  0.00  0.00    -0.015 C 
ATOM     21  C   UNL     1       4.765   1.051  -3.361  0.00  0.00    -0.056 C 
BRANCH  21  22
ATOM     22  N   UNL     1       3.305   1.015  -3.524  0.00  0.00    +0.381 N 
ATOM     23  H   UNL     1       2.883   1.711  -2.927  0.00  0.00    -0.090 HD
ATOM     24  H   UNL     1       3.069   1.209  -4.485  0.00  0.00    -0.090 HD
ATOM     25  H   UNL     1       2.961   0.101  -3.270  0.00  0.00    -0.090 HD
ENDBRANCH  21  22
ENDBRANCH  14  16
ENDBRANCH   1  14
TORSDOF 5
