REMARK  Name = ZINC02218116
REMARK  6 active torsions:
REMARK  status: ('A' for Active; 'I' for Inactive)
REMARK    1  A    between atoms: C_3  and  C_6
REMARK    2  A    between atoms: C_8  and  C_31
REMARK    3  A    between atoms: C_9  and  S_18
REMARK    4  A    between atoms: S_18  and  C_19
REMARK    5  A    between atoms: C_19  and  C_20
REMARK    6  A    between atoms: N_22  and  C_23
REMARK                            x       y       z     vdW  Elec       q    Type
REMARK                         _______ _______ _______ _____ _____    ______ ____
ROOT
ATOM      1  C   UNL     1       3.645   0.658  -0.033  0.00  0.00    +0.133 C 
ATOM      2  C   UNL     1       4.082  -0.007  -1.326  0.00  0.00    +0.076 C 
ATOM      3  C   UNL     1       4.863  -1.146  -1.220  0.00  0.00    +0.112 C 
ATOM      4  N   UNL     1       5.227  -1.654  -0.042  0.00  0.00    -0.244 NA
ATOM      5  C   UNL     1       4.909  -1.165   1.131  0.00  0.00    +0.050 C 
ATOM      6  C   UNL     1       4.118  -0.011   1.244  0.00  0.00    +0.032 C 
ATOM      7  C   UNL     1       3.778   0.504   2.437  0.00  0.00    +0.162 C 
ATOM      8  C   UNL     1       4.232  -0.134   3.722  0.00  0.00    +0.080 C 
ATOM      9  C   UNL     1       4.403  -1.641   3.506  0.00  0.00    +0.014 C 
ATOM     10  C   UNL     1       5.404  -1.860   2.378  0.00  0.00    +0.056 C 
ATOM     11  O   UNL     1       3.016   1.615   2.483  0.00  0.00    -0.292 OA
ENDROOT
BRANCH   1  14
ATOM     12  C   UNL     1       0.035   1.395   0.019  0.00  0.00    +0.041 A 
ATOM     13  C   UNL     1       1.384   1.815   0.001  0.00  0.00    +0.045 A 
ATOM     14  C   UNL     1       2.139   0.702  -0.011  0.00  0.00    +0.117 A 
ATOM     15  O   UNL     1       1.323  -0.364  -0.002  0.00  0.00    -0.467 OA
ATOM     16  C   UNL     1       0.045   0.050   0.016  0.00  0.00    +0.195 A 
ENDBRANCH   1  14
BRANCH   2  17
ATOM     17  C   UNL     1       3.703   0.521  -2.601  0.00  0.00    +0.099 C 
ATOM     18  N   UNL     1       3.401   0.940  -3.613  0.00  0.00    -0.191 NA
ENDBRANCH   2  17
BRANCH   3  19
ATOM     19  S   UNL     1       5.393  -1.952  -2.694  0.00  0.00    -0.096 S 
BRANCH  19  20
ATOM     20  C   UNL     1       6.366  -3.362  -2.097  0.00  0.00    +0.172 C 
BRANCH  20  21
ATOM     21  C   UNL     1       6.886  -4.147  -3.274  0.00  0.00    +0.227 C 
ATOM     22  O   UNL     1       6.626  -3.791  -4.404  0.00  0.00    -0.275 OA
ATOM     23  N   UNL     1       7.641  -5.245  -3.070  0.00  0.00    -0.284 N 
ATOM     24  H   UNL     1       7.903  -5.494  -2.170  0.00  0.00    +0.155 HD
BRANCH  23  25
ATOM     25  C   UNL     1       8.045  -6.028  -4.159  0.00  0.00    +0.052 A 
ATOM     26  C   UNL     1       8.339  -5.428  -5.376  0.00  0.00    +0.026 A 
ATOM     27  C   UNL     1       8.738  -6.203  -6.447  0.00  0.00    +0.022 A 
ATOM     28  C   UNL     1       8.845  -7.575  -6.310  0.00  0.00    +0.042 A 
ATOM     29  C   UNL     1       8.553  -8.177  -5.098  0.00  0.00    +0.041 A 
ATOM     30  C   UNL     1       8.159  -7.406  -4.021  0.00  0.00    +0.064 A 
ATOM     31 CL   UNL     1       7.800  -8.160  -2.499  0.00  0.00    -0.082 Cl
ATOM     32 CL   UNL     1       9.346  -8.545  -7.660  0.00  0.00    -0.083 Cl
ENDBRANCH  23  25
ENDBRANCH  20  21
ENDBRANCH  19  20
ENDBRANCH   3  19
TORSDOF 6
