REMARK  Name = ZINC38188571
REMARK  5 active torsions:
REMARK  status: ('A' for Active; 'I' for Inactive)
REMARK    1  A    between atoms: C_2  and  C_3
REMARK    2  A    between atoms: C_3  and  N_4
REMARK    3  A    between atoms: N_21  and  N_22
REMARK    4  A    between atoms: C_23  and  C_25
REMARK    5  A    between atoms: C_25  and  C_26
REMARK                            x       y       z     vdW  Elec       q    Type
REMARK                         _______ _______ _______ _____ _____    ______ ____
ROOT
ATOM      1  N   UNL     1       1.367  -1.676   1.111  0.00  0.00    -0.241 N 
ATOM      2  C   UNL     1       1.851  -1.276   2.276  0.00  0.00    +0.260 C 
ATOM      3  O   UNL     1       2.259  -0.142   2.441  0.00  0.00    -0.269 OA
ATOM      4  C   UNL     1       1.871  -2.278   3.372  0.00  0.00    +0.090 C 
ATOM      5  C   UNL     1       2.314  -2.142   4.679  0.00  0.00    +0.065 C 
ATOM      6  C   UNL     1       2.320  -3.174   5.737  0.00  0.00    +0.011 A 
ATOM      7  C   UNL     1       1.919  -4.506   5.773  0.00  0.00    +0.025 A 
ATOM      8  C   UNL     1       2.053  -5.230   6.941  0.00  0.00    +0.019 A 
ATOM      9  C   UNL     1       2.586  -4.631   8.072  0.00  0.00    +0.017 A 
ATOM     10  C   UNL     1       2.987  -3.311   8.046  0.00  0.00    +0.025 A 
ATOM     11  C   UNL     1       2.860  -2.565   6.880  0.00  0.00    +0.042 A 
ATOM     12  N   UNL     1       3.179  -1.244   6.587  0.00  0.00    -0.281 N 
ATOM     13  C   UNL     1       2.887  -0.943   5.310  0.00  0.00    +0.250 C 
ATOM     14  O   UNL     1       3.062   0.135   4.771  0.00  0.00    -0.270 OA
ATOM     15 BR   UNL     1       1.509  -7.040   6.999  0.00  0.00    -0.050 Br
ATOM     16  S   UNL     1       1.170  -3.704   2.555  0.00  0.00    -0.047 S 
ATOM     17  C   UNL     1       0.903  -2.970   0.950  0.00  0.00    +0.186 C 
ATOM     18  N   UNL     1       0.395  -3.521  -0.118  0.00  0.00    -0.157 NA
ATOM     19  H   UNL     1       3.566  -0.621   7.221  0.00  0.00    +0.155 HD
ENDROOT
BRANCH  18  20
ATOM     20  N   UNL     1      -0.023  -4.858  -0.085  0.00  0.00    -0.204 N 
ATOM     21  C   UNL     1      -0.548  -5.427  -1.190  0.00  0.00    +0.237 C 
ATOM     22  O   UNL     1      -0.659  -4.781  -2.211  0.00  0.00    -0.274 OA
ATOM     23  H   UNL     1       0.066  -5.374   0.731  0.00  0.00    +0.177 HD
BRANCH  21  24
ATOM     24  C   UNL     1      -0.997  -6.865  -1.155  0.00  0.00    +0.132 C 
BRANCH  24  25
ATOM     25  C   UNL     1      -1.542  -7.254  -2.505  0.00  0.00    -0.039 A 
ATOM     26  C   UNL     1      -2.883  -7.078  -2.787  0.00  0.00    +0.004 A 
ATOM     27  C   UNL     1      -3.383  -7.435  -4.025  0.00  0.00    +0.000 A 
ATOM     28  C   UNL     1      -2.540  -7.968  -4.983  0.00  0.00    +0.000 A 
ATOM     29  C   UNL     1      -1.198  -8.143  -4.702  0.00  0.00    +0.000 A 
ATOM     30  C   UNL     1      -0.698  -7.782  -3.465  0.00  0.00    +0.004 A 
ENDBRANCH  24  25
ENDBRANCH  21  24
ENDBRANCH  18  20
BRANCH   1  31
ATOM     31  C   UNL     1       1.317  -0.740  -0.015  0.00  0.00    +0.142 C 
BRANCH  31  33
ATOM     32  C   UNL     1      -0.016   1.306   0.009  0.00  0.00    +0.005 C 
ATOM     33  C   UNL     1       0.002  -0.004   0.002  0.00  0.00    -0.015 C 
ENDBRANCH  31  33
ENDBRANCH   1  31
TORSDOF 5
