REMARK  Name = ZINC14999234
REMARK  3 active torsions:
REMARK  status: ('A' for Active; 'I' for Inactive)
REMARK    1  A    between atoms: C_17  and  C_30
REMARK    2  A    between atoms: C_18  and  C_21
REMARK    3  A    between atoms: N_23  and  C_24
REMARK                            x       y       z     vdW  Elec       q    Type
REMARK                         _______ _______ _______ _____ _____    ______ ____
ROOT
ATOM      1  C   UNL     1       0.979  13.039   0.618  0.00  0.00    +0.000 A 
ATOM      2  C   UNL     1       0.409  12.044   1.392  0.00  0.00    +0.001 A 
ATOM      3  C   UNL     1       0.939  10.770   1.384  0.00  0.00    +0.010 A 
ATOM      4  C   UNL     1       2.048  10.490   0.591  0.00  0.00    +0.004 A 
ATOM      5  C   UNL     1       2.605  11.490  -0.207  0.00  0.00    -0.038 A 
ATOM      6  C   UNL     1       2.074  12.762  -0.182  0.00  0.00    +0.004 A 
ATOM      7  C   UNL     1       3.775  11.160  -1.092  0.00  0.00    +0.036 C 
ATOM      8  C   UNL     1       5.072  11.065  -0.291  0.00  0.00    +0.009 C 
ATOM      9  C   UNL     1       4.856  10.273   0.996  0.00  0.00    +0.039 C 
ATOM     10  C   UNL     1       4.044   9.037   0.735  0.00  0.00    -0.003 A 
ATOM     11  C   UNL     1       2.660   9.143   0.581  0.00  0.00    +0.080 A 
ATOM     12  N   UNL     1       1.939   8.043   0.404  0.00  0.00    -0.210 NA
ATOM     13  C   UNL     1       2.534   6.861   0.356  0.00  0.00    +0.252 A 
ATOM     14  N   UNL     1       3.845   6.731   0.484  0.00  0.00    -0.219 NA
ATOM     15  C   UNL     1       4.625   7.787   0.669  0.00  0.00    +0.120 A 
ATOM     16  N   UNL     1       1.755   5.718   0.170  0.00  0.00    -0.201 N 
ATOM     17  C   UNL     1       2.199   4.447   0.213  0.00  0.00    +0.063 A 
ATOM     18  C   UNL     1       1.116   3.625  -0.024  0.00  0.00    +0.078 A 
ATOM     19  C   UNL     1      -0.011   4.460  -0.205  0.00  0.00    +0.148 A 
ATOM     20  N   UNL     1       0.380   5.699  -0.088  0.00  0.00    -0.171 NA
ENDROOT
BRANCH  18  21
ATOM     21  C   UNL     1       1.131   2.152  -0.073  0.00  0.00    +0.248 C 
ATOM     22  O   UNL     1       2.172   1.548   0.101  0.00  0.00    -0.270 OA
ATOM     23  N   UNL     1      -0.010   1.474  -0.310  0.00  0.00    -0.306 N 
ATOM     24  H   UNL     1      -0.840   1.956  -0.453  0.00  0.00    +0.149 HD
BRANCH  23  25
ATOM     25  C   UNL     1       0.004   0.010  -0.358  0.00  0.00    +0.101 C 
ATOM     26  C   UNL     1      -1.222  -0.518  -1.141  0.00  0.00    +0.052 C 
ATOM     27  C   UNL     1      -1.645  -1.745  -0.293  0.00  0.00    +0.162 C 
ATOM     28  O   UNL     1      -1.401  -1.317   1.064  0.00  0.00    -0.378 OA
ATOM     29  C   UNL     1      -0.168  -0.578   1.056  0.00  0.00    +0.182 C 
ENDBRANCH  23  25
ENDBRANCH  18  21
BRANCH  17  30
ATOM     30  C   UNL     1       3.616   4.005   0.470  0.00  0.00    +0.039 C 
ATOM     31  C   UNL     1       3.838   2.922   1.528  0.00  0.00    +0.010 C 
ATOM     32  C   UNL     1       4.237   4.371   1.819  0.00  0.00    +0.010 C 
ENDBRANCH  17  30
TORSDOF 3
