REMARK  Name = ZINC03532378
REMARK  9 active torsions:
REMARK  status: ('A' for Active; 'I' for Inactive)
REMARK    1  A    between atoms: C_1  and  C_2
REMARK    2  A    between atoms: C_2  and  C_3
REMARK    3  A    between atoms: C_3  and  C_5
REMARK    4  A    between atoms: C_3  and  C_6
REMARK    5  A    between atoms: C_9  and  N_12
REMARK    6  A    between atoms: C_22  and  S_23
REMARK    7  A    between atoms: S_23  and  C_24
REMARK    8  A    between atoms: C_24  and  C_26
REMARK    9  A    between atoms: C_24  and  C_27
REMARK                            x       y       z     vdW  Elec       q    Type
REMARK                         _______ _______ _______ _____ _____    ______ ____
ROOT
ATOM      1  N   UNL     1       2.357   3.889  -0.001  0.00  0.00    -0.255 N 
ATOM      2  C   UNL     1       3.535   3.229   0.087  0.00  0.00    +0.267 A 
ATOM      3  O   UNL     1       3.573   2.015   0.174  0.00  0.00    -0.267 OA
ATOM      4  C   UNL     1       4.766   4.030   0.074  0.00  0.00    +0.065 A 
ATOM      5  C   UNL     1       6.028   3.443   0.159  0.00  0.00    +0.015 A 
ATOM      6  C   UNL     1       7.142   4.236   0.143  0.00  0.00    +0.001 A 
ATOM      7  C   UNL     1       7.029   5.617   0.042  0.00  0.00    +0.002 A 
ATOM      8  C   UNL     1       5.806   6.218  -0.043  0.00  0.00    +0.028 A 
ATOM      9  C   UNL     1       4.647   5.435  -0.028  0.00  0.00    +0.079 A 
ATOM     10  N   UNL     1       3.415   5.989  -0.110  0.00  0.00    -0.223 NA
ATOM     11  C   UNL     1       2.331   5.253  -0.102  0.00  0.00    +0.177 A 
ENDROOT
BRANCH   1  15
ATOM     12  C   UNL     1      -1.216   1.745   0.024  0.00  0.00    -0.044 A 
ATOM     13  C   UNL     1      -0.671   2.191   1.214  0.00  0.00    +0.006 A 
ATOM     14  C   UNL     1       0.514   2.900   1.209  0.00  0.00    +0.026 A 
ATOM     15  C   UNL     1       1.155   3.170   0.008  0.00  0.00    +0.052 A 
ATOM     16  C   UNL     1       0.602   2.726  -1.186  0.00  0.00    +0.026 A 
ATOM     17  C   UNL     1      -0.583   2.017  -1.175  0.00  0.00    +0.006 A 
BRANCH  12  18
ATOM     18  C   UNL     1      -2.506   0.966   0.033  0.00  0.00    +0.016 C 
ATOM     19  C   UNL     1      -3.560   1.713  -0.786  0.00  0.00    +0.012 C 
BRANCH  18  21
ATOM     20  C   UNL     1      -3.547  -1.252  -0.456  0.00  0.00    +0.004 C 
ATOM     21  C   UNL     1      -2.271  -0.417  -0.579  0.00  0.00    +0.004 C 
ENDBRANCH  18  21
ENDBRANCH  12  18
ENDBRANCH   1  15
BRANCH  11  22
ATOM     22  S   UNL     1       0.768   6.058  -0.222  0.00  0.00    -0.075 S 
BRANCH  22  23
ATOM     23  C   UNL     1       1.310   7.781  -0.329  0.00  0.00    +0.137 C 
ATOM     24  C   UNL     1       2.093   7.990  -1.626  0.00  0.00    +0.029 C 
BRANCH  23  25
ATOM     25  C   UNL     1       0.105   8.688  -0.317  0.00  0.00    +0.233 C 
ATOM     26  O   UNL     1      -0.987   8.248  -0.606  0.00  0.00    -0.274 OA
ATOM     27  N   UNL     1       0.243   9.987   0.014  0.00  0.00    -0.239 N 
ATOM     28  C   UNL     1      -0.834  10.797   0.025  0.00  0.00    +0.303 C 
ATOM     29  O   UNL     1      -1.929  10.356  -0.265  0.00  0.00    -0.253 OA
ATOM     30  N   UNL     1      -0.697  12.096   0.356  0.00  0.00    -0.313 N 
ATOM     31  H   UNL     1       1.234  10.386   0.277  0.00  0.00    +0.159 HD
ATOM     32  H   UNL     1      -1.575  12.758   0.364  0.00  0.00    +0.146 HD
ATOM     33  H   UNL     1       0.294  12.495   0.619  0.00  0.00    +0.146 HD
ENDBRANCH  23  25
ENDBRANCH  22  23
ENDBRANCH  11  22
TORSDOF 6
