REMARK  Name = ZINC66346559
REMARK  3 active torsions:
REMARK  status: ('A' for Active; 'I' for Inactive)
REMARK    1  A    between atoms: C_8  and  C_12
REMARK    2  A    between atoms: C_12  and  S_13
REMARK    3  A    between atoms: S_13  and  C_14
REMARK                            x       y       z     vdW  Elec       q    Type
REMARK                         _______ _______ _______ _____ _____    ______ ____
ROOT
ATOM      1  C   UNL     1      -0.019   1.518   0.010  0.00  0.00    -0.010 C 
ATOM      2  C   UNL     1       1.420   2.045  -0.001  0.00  0.00    -0.082 C 
ATOM      3  N   UNL     1       2.117   1.543  -1.191  0.00  0.00    +0.379 N 
ATOM      4  C   UNL     1       2.218   0.080  -1.133  0.00  0.00    -0.082 C 
ATOM      5  C   UNL     1       0.815  -0.533  -1.172  0.00  0.00    -0.010 C 
ATOM      6  C   UNL     1       0.002  -0.004   0.002  0.00  0.00    -0.007 C 
ATOM      7  C   UNL     1      -1.438  -0.561  -0.046  0.00  0.00    +0.041 C 
ATOM      8  C   UNL     1      -1.806  -0.554   1.460  0.00  0.00    +0.129 C 
ATOM      9  O   UNL     1      -0.589  -0.891   2.147  0.00  0.00    -0.375 OA
ATOM     10  C   UNL     1       0.542  -0.551   1.332  0.00  0.00    +0.167 C 
ATOM     11  H   UNL     1       1.603   1.811  -2.017  0.00  0.00    -0.086 HD
ATOM     12  H   UNL     1       3.043   1.942  -1.230  0.00  0.00    -0.086 HD
ENDROOT
BRANCH   8  13
ATOM     13  C   UNL     1      -2.886  -1.599   1.748  0.00  0.00    +0.108 C 
BRANCH  13  14
ATOM     14  S   UNL     1      -3.403  -1.472   3.482  0.00  0.00    -0.094 S 
BRANCH  14  15
ATOM     15  C   UNL     1      -4.633  -2.722   3.653  0.00  0.00    +0.160 A 
ATOM     16  N   UNL     1      -5.089  -3.574   2.755  0.00  0.00    -0.133 NA
ATOM     17  N   UNL     1      -6.064  -4.480   3.104  0.00  0.00    -0.125 NA
ATOM     18  C   UNL     1      -6.537  -4.493   4.335  0.00  0.00    +0.180 A 
ATOM     19  S   UNL     1      -5.589  -3.181   5.090  0.00  0.00    -0.025 S 
ATOM     20  N   UNL     1      -7.510  -5.312   4.896  0.00  0.00    -0.336 N 
ATOM     21  H   UNL     1      -7.941  -5.993   4.356  0.00  0.00    +0.144 HD
ATOM     22  H   UNL     1      -7.758  -5.203   5.827  0.00  0.00    +0.144 HD
ENDBRANCH  14  15
ENDBRANCH  13  14
ENDBRANCH   8  13
TORSDOF 3
