REMARK  Name = ZINC62853087
REMARK  5 active torsions:
REMARK  status: ('A' for Active; 'I' for Inactive)
REMARK    1  A    between atoms: C_1  and  C_2
REMARK    2  A    between atoms: C_2  and  C_3
REMARK    3  A    between atoms: C_3  and  C_4
REMARK    4  A    between atoms: C_4  and  C_10
REMARK    5  A    between atoms: C_16  and  C_18
REMARK                            x       y       z     vdW  Elec       q    Type
REMARK                         _______ _______ _______ _____ _____    ______ ____
ROOT
ATOM      1  C   UNL     1      -0.640  -2.445  -1.354  0.00  0.00    +0.221 C 
ATOM      2  O   UNL     1       0.288  -3.221  -1.267  0.00  0.00    -0.275 OA
ATOM      3  N   UNL     1      -0.983  -1.936  -2.554  0.00  0.00    -0.290 N 
ATOM      4  C   UNL     1      -2.147  -1.072  -2.819  0.00  0.00    +0.108 C 
ATOM      5  C   UNL     1      -1.772  -0.283  -4.098  0.00  0.00    +0.021 C 
ATOM      6  C   UNL     1      -0.998  -1.355  -4.910  0.00  0.00    +0.033 C 
ATOM      7  C   UNL     1      -0.254  -2.146  -3.813  0.00  0.00    +0.162 C 
ENDROOT
BRANCH   1   8
ATOM      8  C   UNL     1      -1.411  -2.051  -0.120  0.00  0.00    +0.032 C 
ATOM      9  C   UNL     1      -0.928  -2.882   1.073  0.00  0.00    +0.012 C 
ATOM     10  C   UNL     1      -1.227  -4.360   0.807  0.00  0.00    -0.018 C 
ATOM     11  C   UNL     1      -2.725  -4.534   0.548  0.00  0.00    -0.083 C 
ATOM     12  N   UNL     1      -3.119  -3.736  -0.619  0.00  0.00    +0.380 N 
ATOM     13  C   UNL     1      -2.902  -2.310  -0.344  0.00  0.00    -0.066 C 
ATOM     14  H   UNL     1      -2.565  -4.012  -1.416  0.00  0.00    -0.086 HD
ATOM     15  H   UNL     1      -4.095  -3.894  -0.819  0.00  0.00    -0.086 HD
BRANCH   8  16
ATOM     16  C   UNL     1      -1.188  -0.565   0.169  0.00  0.00    +0.014 C 
BRANCH  16  18
ATOM     17  C   UNL     1       0.532   1.170   0.691  0.00  0.00    +0.004 C 
ATOM     18  C   UNL     1       0.281  -0.331   0.529  0.00  0.00    -0.002 C 
ENDBRANCH  16  18
ENDBRANCH   8  16
ENDBRANCH   1   8
BRANCH   7  19
ATOM     19  C   UNL     1       1.158  -1.636  -3.679  0.00  0.00    +0.231 C 
ATOM     20  O   UNL     1       1.528  -1.144  -2.635  0.00  0.00    -0.274 OA
ATOM     21  N   UNL     1       2.009  -1.728  -4.720  0.00  0.00    -0.328 N 
ATOM     22  H   UNL     1       1.713  -2.122  -5.556  0.00  0.00    +0.145 HD
ATOM     23  H   UNL     1       2.918  -1.400  -4.634  0.00  0.00    +0.145 HD
ENDBRANCH   7  19
TORSDOF 4
