REMARK  Name = ZINC14628900
REMARK  8 active torsions:
REMARK  status: ('A' for Active; 'I' for Inactive)
REMARK    1  A    between atoms: C_1  and  S_2
REMARK    2  A    between atoms: S_2  and  C_3
REMARK    3  A    between atoms: C_6  and  C_9
REMARK    4  A    between atoms: C_15  and  C_17
REMARK    5  A    between atoms: C_17  and  S_18
REMARK    6  A    between atoms: S_18  and  C_19
REMARK    7  A    between atoms: C_22  and  C_28
REMARK    8  A    between atoms: C_24  and  N_25
REMARK                            x       y       z     vdW  Elec       q    Type
REMARK                         _______ _______ _______ _____ _____    ______ ____
ROOT
ATOM      1  C   UNL     1      -5.815  -1.539   0.049  0.00  0.00    +0.080 A 
ATOM      2  C   UNL     1      -6.181  -2.856   0.056  0.00  0.00    +0.076 A 
ATOM      3  S   UNL     1      -7.963  -2.705   0.069  0.00  0.00    -0.060 S 
ATOM      4  C   UNL     1      -8.035  -0.919   0.064  0.00  0.00    +0.165 A 
ATOM      5  N   UNL     1      -6.753  -0.604   0.059  0.00  0.00    -0.225 NA
ATOM      6  N   UNL     1      -9.146  -0.084   0.070  0.00  0.00    -0.264 N 
ATOM      7  C   UNL     1     -10.386  -0.612   0.081  0.00  0.00    +0.229 C 
ATOM      8  O   UNL     1     -10.532  -1.816   0.086  0.00  0.00    -0.275 OA
ATOM      9  H   UNL     1      -9.028   0.879   0.066  0.00  0.00    +0.157 HD
ENDROOT
BRANCH   1  13
ATOM     10  C   UNL     1      -1.702  -0.454   0.016  0.00  0.00    +0.008 A 
ATOM     11  C   UNL     1      -2.680   0.534   0.025  0.00  0.00    +0.015 A 
ATOM     12  C   UNL     1      -4.014   0.185   0.036  0.00  0.00    +0.011 A 
ATOM     13  C   UNL     1      -4.381  -1.160   0.037  0.00  0.00    +0.001 A 
ATOM     14  C   UNL     1      -3.398  -2.149   0.028  0.00  0.00    +0.011 A 
ATOM     15  C   UNL     1      -2.066  -1.796   0.012  0.00  0.00    +0.015 A 
BRANCH  10  17
ATOM     16  C   UNL     1      -0.022   1.810   0.012  0.00  0.00    +0.090 C 
ATOM     17  S   UNL     1       0.002  -0.004   0.002  0.00  0.00    -0.129 S 
ENDBRANCH  10  17
ENDBRANCH   1  13
BRANCH   7  18
ATOM     18  C   UNL     1     -11.590   0.294   0.087  0.00  0.00    +0.170 C 
BRANCH  18  19
ATOM     19  S   UNL     1     -13.101  -0.710   0.102  0.00  0.00    -0.114 S 
BRANCH  19  20
ATOM     20  C   UNL     1     -14.402   0.478   0.108  0.00  0.00    +0.039 A 
ATOM     21  C   UNL     1     -14.101   1.839   0.095  0.00  0.00    +0.018 A 
ATOM     22  C   UNL     1     -15.105   2.764   0.100  0.00  0.00    +0.014 A 
ATOM     23  C   UNL     1     -16.441   2.349   0.117  0.00  0.00    +0.039 A 
ATOM     24  C   UNL     1     -16.745   0.984   0.130  0.00  0.00    +0.047 A 
ATOM     25  C   UNL     1     -15.729   0.056   0.119  0.00  0.00    +0.140 A 
BRANCH  23  26
ATOM     26  C   UNL     1     -17.525   3.348   0.123  0.00  0.00    +0.242 C 
ATOM     27  O   UNL     1     -18.686   2.986   0.138  0.00  0.00    -0.270 OA
ATOM     28  N   UNL     1     -17.230   4.663   0.111  0.00  0.00    -0.325 N 
ATOM     29  H   UNL     1     -16.304   4.952   0.099  0.00  0.00    +0.145 HD
ATOM     30  H   UNL     1     -17.943   5.320   0.115  0.00  0.00    +0.145 HD
ENDBRANCH  23  26
BRANCH  25  31
ATOM     31  N   UNL     1     -16.047  -1.390   0.127  0.00  0.00    +0.058 N 
ATOM     32  O   UNL     1     -17.199  -1.756   0.136  0.00  0.00    -0.126 OA
ATOM     33  O   UNL     1     -15.153  -2.205   0.122  0.00  0.00    -0.126 OA
ENDBRANCH  25  31
ENDBRANCH  19  20
ENDBRANCH  18  19
ENDBRANCH   7  18
TORSDOF 7
