REMARK  Name = ZINC00861040
REMARK  8 active torsions:
REMARK  status: ('A' for Active; 'I' for Inactive)
REMARK    1  A    between atoms: C_1  and  C_2
REMARK    2  A    between atoms: C_3  and  C_32
REMARK    3  A    between atoms: C_4  and  C_23
REMARK    4  A    between atoms: C_10  and  C_15
REMARK    5  A    between atoms: C_18  and  O_21
REMARK    6  A    between atoms: O_21  and  C_22
REMARK    7  A    between atoms: C_32  and  O_34
REMARK    8  A    between atoms: O_34  and  C_35
REMARK                            x       y       z     vdW  Elec       q    Type
REMARK                         _______ _______ _______ _____ _____    ______ ____
ROOT
ATOM      1  C   UNL     1       8.479  -1.464  -3.872  0.00  0.00    +0.061 C 
ATOM      2  C   UNL     1       7.773  -1.563  -2.544  0.00  0.00    +0.016 C 
ATOM      3  C   UNL     1       8.466  -1.900  -1.443  0.00  0.00    +0.065 C 
ATOM      4  C   UNL     1       7.795  -2.017  -0.106  0.00  0.00    +0.092 C 
ATOM      5  C   UNL     1       6.458  -1.318  -0.108  0.00  0.00    +0.024 C 
ATOM      6  C   UNL     1       5.847  -1.003  -1.269  0.00  0.00    +0.016 C 
ATOM      7  N   UNL     1       6.431  -1.311  -2.468  0.00  0.00    -0.321 N 
ATOM      8  C   UNL     1       4.510  -0.303  -1.279  0.00  0.00    +0.059 C 
ATOM      9  C   UNL     1       3.711  -0.707  -0.038  0.00  0.00    +0.032 C 
ATOM     10  C   UNL     1       4.525  -0.336   1.206  0.00  0.00    +0.088 C 
ATOM     11  C   UNL     1       5.868  -1.009   1.130  0.00  0.00    +0.162 C 
ATOM     12  O   UNL     1       6.454  -1.290   2.157  0.00  0.00    -0.292 OA
ATOM     13  H   UNL     1       5.811  -1.354  -3.376  0.00  0.00    +0.152 HD
ENDROOT
BRANCH   4  14
ATOM     14  C   UNL     1       7.591  -3.474   0.219  0.00  0.00    -0.032 A 
ATOM     15  C   UNL     1       6.794  -4.257  -0.596  0.00  0.00    +0.008 A 
ATOM     16  C   UNL     1       6.608  -5.596  -0.305  0.00  0.00    +0.050 A 
ATOM     17  C   UNL     1       7.211  -6.154   0.810  0.00  0.00    +0.166 A 
ATOM     18  C   UNL     1       8.009  -5.363   1.634  0.00  0.00    +0.167 A 
ATOM     19  C   UNL     1       8.196  -4.024   1.333  0.00  0.00    +0.054 A 
ATOM     20  O   UNL     1       8.483  -6.137   2.654  0.00  0.00    -0.453 OA
ATOM     21  C   UNL     1       8.300  -7.498   2.222  0.00  0.00    +0.466 C 
ATOM     22  O   UNL     1       7.185  -7.422   1.315  0.00  0.00    -0.453 OA
ENDBRANCH   4  14
BRANCH   9  23
ATOM     23  C   UNL     1       2.396   0.030  -0.021  0.00  0.00    -0.043 A 
ATOM     24  C   UNL     1       1.208  -0.677  -0.013  0.00  0.00    +0.007 A 
ATOM     25  C   UNL     1       0.002  -0.004   0.002  0.00  0.00    +0.046 A 
ATOM     26  C   UNL     1      -0.017   1.383   0.010  0.00  0.00    +0.120 A 
ATOM     27  C   UNL     1       1.177   2.091   0.002  0.00  0.00    +0.046 A 
ATOM     28  C   UNL     1       2.380   1.413  -0.013  0.00  0.00    +0.007 A 
BRANCH  26  29
ATOM     29  O   UNL     1      -1.202   2.048   0.019  0.00  0.00    -0.495 OA
ATOM     30  C   UNL     1      -1.145   3.475   0.026  0.00  0.00    +0.277 C 
ENDBRANCH  26  29
ENDBRANCH   9  23
BRANCH   3  31
ATOM     31  C   UNL     1       9.855  -2.148  -1.546  0.00  0.00    +0.338 C 
ATOM     32  O   UNL     1      10.411  -2.056  -2.624  0.00  0.00    -0.245 OA
BRANCH  31  33
ATOM     33  O   UNL     1      10.563  -2.487  -0.448  0.00  0.00    -0.458 OA
BRANCH  33  34
ATOM     34  C   UNL     1      11.961  -2.723  -0.625  0.00  0.00    +0.177 C 
ATOM     35  C   UNL     1      12.214  -4.220  -0.897  0.00  0.00    +0.044 C 
ATOM     36  C   UNL     1      13.540  -4.522  -0.155  0.00  0.00    +0.004 C 
ATOM     37  C   UNL     1      13.411  -3.673   1.135  0.00  0.00    +0.004 C 
ATOM     38  C   UNL     1      12.722  -2.375   0.666  0.00  0.00    +0.044 C 
ENDBRANCH  33  34
ENDBRANCH  31  33
ENDBRANCH   3  31
TORSDOF 6
