REMARK  Name = ZINC00817724
REMARK  5 active torsions:
REMARK  status: ('A' for Active; 'I' for Inactive)
REMARK    1  A    between atoms: C_1  and  C_2
REMARK    2  A    between atoms: C_10  and  C_24
REMARK    3  A    between atoms: C_13  and  C_16
REMARK    4  A    between atoms: C_19  and  O_23
REMARK    5  A    between atoms: C_20  and  O_22
REMARK                            x       y       z     vdW  Elec       q    Type
REMARK                         _______ _______ _______ _____ _____    ______ ____
ROOT
ATOM      1  C   UNL     1      -0.018   1.503   0.010  0.00  0.00    +0.044 C 
ATOM      2  C   UNL     1       0.002  -0.004   0.002  0.00  0.00    -0.050 A 
ATOM      3  C   UNL     1       0.006  -0.687  -1.202  0.00  0.00    +0.005 A 
ATOM      4  C   UNL     1       0.029  -2.070  -1.230  0.00  0.00    +0.024 A 
ATOM      5  C   UNL     1       0.047  -2.783  -0.044  0.00  0.00    +0.038 A 
ATOM      6  C   UNL     1       0.035  -2.084   1.180  0.00  0.00    +0.021 A 
ATOM      7  C   UNL     1       0.023  -0.700   1.197  0.00  0.00    +0.015 A 
ATOM      8  C   UNL     1       0.025  -2.907   2.404  0.00  0.00    +0.073 A 
ATOM      9  C   UNL     1       0.229  -2.591   3.701  0.00  0.00    +0.052 A 
ATOM     10  C   UNL     1       0.112  -3.769   4.448  0.00  0.00    +0.061 A 
ATOM     11  N   UNL     1      -0.155  -4.761   3.631  0.00  0.00    -0.174 NA
ATOM     12  N   UNL     1      -0.224  -4.259   2.337  0.00  0.00    -0.238 N 
ATOM     13  C   UNL     1      -0.510  -4.941   1.073  0.00  0.00    +0.222 C 
ATOM     14  N   UNL     1       0.087  -4.176  -0.031  0.00  0.00    -0.319 N 
ATOM     15  C   UNL     1       0.268  -3.880   5.943  0.00  0.00    +0.067 C 
ATOM     16  H   UNL     1       0.515  -4.648  -0.762  0.00  0.00    +0.148 HD
ENDROOT
BRANCH  13  17
ATOM     17  C   UNL     1      -2.001  -5.034   0.876  0.00  0.00    -0.002 A 
ATOM     18  C   UNL     1      -2.703  -3.943   0.399  0.00  0.00    +0.011 A 
ATOM     19  C   UNL     1      -4.071  -4.023   0.216  0.00  0.00    +0.049 A 
ATOM     20  C   UNL     1      -4.741  -5.199   0.511  0.00  0.00    +0.158 A 
ATOM     21  C   UNL     1      -4.035  -6.298   0.990  0.00  0.00    +0.159 A 
ATOM     22  C   UNL     1      -2.663  -6.212   1.166  0.00  0.00    +0.056 A 
BRANCH  21  23
ATOM     23  O   UNL     1      -4.688  -7.455   1.281  0.00  0.00    -0.503 OA
ATOM     24  H   UNL     1      -4.750  -8.069   0.536  0.00  0.00    +0.292 HD
ENDBRANCH  21  23
BRANCH  20  25
ATOM     25  O   UNL     1      -6.087  -5.279   0.332  0.00  0.00    -0.503 OA
ATOM     26  H   UNL     1      -6.349  -5.582  -0.548  0.00  0.00    +0.292 HD
ENDBRANCH  20  25
ENDBRANCH  13  17
TORSDOF 3
