REMARK  Name = ZINC51363654
REMARK  5 active torsions:
REMARK  status: ('A' for Active; 'I' for Inactive)
REMARK    1  A    between atoms: C_1  and  C_2
REMARK    2  A    between atoms: C_2  and  N_3
REMARK    3  A    between atoms: C_7  and  C_13
REMARK    4  A    between atoms: C_13  and  C_15
REMARK    5  A    between atoms: C_13  and  O_22
REMARK                            x       y       z     vdW  Elec       q    Type
REMARK                         _______ _______ _______ _____ _____    ______ ____
ROOT
ATOM      1  N   UNL     1       0.711  -0.489   1.189  0.00  0.00    -0.274 N 
ATOM      2  C   UNL     1       2.079  -0.741   1.287  0.00  0.00    +0.090 A 
ATOM      3  C   UNL     1       3.133  -0.632   0.394  0.00  0.00    +0.030 A 
ATOM      4  C   UNL     1       4.412  -0.965   0.796  0.00  0.00    +0.009 A 
ATOM      5  C   UNL     1       4.642  -1.407   2.088  0.00  0.00    -0.011 A 
ATOM      6  C   UNL     1       3.596  -1.517   2.984  0.00  0.00    +0.055 A 
ATOM      7  C   UNL     1       2.310  -1.185   2.589  0.00  0.00    +0.157 A 
ATOM      8  O   UNL     1       1.115  -1.192   3.230  0.00  0.00    -0.407 OA
ATOM      9  C   UNL     1       0.160  -0.769   2.387  0.00  0.00    +0.421 A 
ATOM     10  O   UNL     1      -1.019  -0.657   2.661  0.00  0.00    -0.223 OA
ENDROOT
BRANCH   1  12
ATOM     11  C   UNL     1      -0.019   1.526   0.010  0.00  0.00    +0.027 C 
ATOM     12  C   UNL     1       0.002  -0.004   0.002  0.00  0.00    +0.125 C 
ENDBRANCH   1  12
BRANCH   5  13
ATOM     13  C   UNL     1       6.040  -1.768   2.519  0.00  0.00    +0.176 C 
BRANCH  13  14
ATOM     14  C   UNL     1       6.765  -0.526   2.967  0.00  0.00    -0.002 A 
ATOM     15  C   UNL     1       7.567   0.166   2.078  0.00  0.00    +0.007 A 
ATOM     16  C   UNL     1       8.232   1.306   2.489  0.00  0.00    +0.000 A 
ATOM     17  C   UNL     1       8.096   1.755   3.789  0.00  0.00    +0.001 A 
ATOM     18  C   UNL     1       7.295   1.064   4.678  0.00  0.00    +0.015 A 
ATOM     19  C   UNL     1       6.624  -0.073   4.266  0.00  0.00    +0.019 A 
ATOM     20  I   UNL     1       5.403  -1.116   5.612  0.00  0.00    -0.043 I 
ENDBRANCH  13  14
BRANCH  13  21
ATOM     21  O   UNL     1       6.739  -2.358   1.421  0.00  0.00    -0.382 OA
ATOM     22  H   UNL     1       6.819  -1.780   0.649  0.00  0.00    +0.211 HD
ENDBRANCH  13  21
ENDBRANCH   5  13
TORSDOF 4
