REMARK  Name = ZINC02310212
REMARK  11 active torsions:
REMARK  status: ('A' for Active; 'I' for Inactive)
REMARK    1  A    between atoms: C_1  and  C_2
REMARK    2  A    between atoms: C_2  and  O_3
REMARK    3  A    between atoms: O_3  and  C_4
REMARK    4  A    between atoms: C_7  and  C_10
REMARK    5  A    between atoms: C_12  and  C_37
REMARK    6  A    between atoms: C_13  and  S_22
REMARK    7  A    between atoms: S_22  and  C_23
REMARK    8  A    between atoms: C_23  and  C_24
REMARK    9  A    between atoms: N_26  and  C_27
REMARK   10  A    between atoms: C_30  and  N_33
REMARK   11  A    between atoms: C_34  and  C_36
REMARK                            x       y       z     vdW  Elec       q    Type
REMARK                         _______ _______ _______ _____ _____    ______ ____
ROOT
ATOM      1  C   UNL     1       1.046  -6.065  -1.831  0.00  0.00    +0.097 C 
ATOM      2  C   UNL     1       0.355  -6.471  -3.099  0.00  0.00    +0.069 C 
ATOM      3  C   UNL     1       1.064  -6.745  -4.227  0.00  0.00    +0.080 C 
ATOM      4  N   UNL     1       2.437  -6.659  -4.217  0.00  0.00    -0.311 N 
ATOM      5  C   UNL     1       3.128  -6.697  -3.037  0.00  0.00    +0.016 C 
ATOM      6  C   UNL     1       2.509  -6.428  -1.869  0.00  0.00    +0.024 C 
ATOM      7  C   UNL     1       3.209  -6.480  -0.651  0.00  0.00    +0.162 C 
ATOM      8  O   UNL     1       2.625  -6.226   0.384  0.00  0.00    -0.292 OA
ATOM      9  C   UNL     1       4.668  -6.843  -0.604  0.00  0.00    +0.080 C 
ATOM     10  C   UNL     1       4.992  -7.759  -1.789  0.00  0.00    +0.014 C 
ATOM     11  C   UNL     1       4.597  -7.040  -3.077  0.00  0.00    +0.051 C 
ATOM     12  H   UNL     1       2.919  -6.572  -5.054  0.00  0.00    +0.152 HD
ENDROOT
BRANCH   1  16
ATOM     13  C   UNL     1       0.663  -1.840  -1.316  0.00  0.00    +0.121 A 
ATOM     14  C   UNL     1       0.137  -2.706  -0.368  0.00  0.00    +0.046 A 
ATOM     15  C   UNL     1       0.262  -4.072  -0.537  0.00  0.00    +0.008 A 
ATOM     16  C   UNL     1       0.911  -4.575  -1.649  0.00  0.00    -0.034 A 
ATOM     17  C   UNL     1       1.436  -3.714  -2.595  0.00  0.00    +0.008 A 
ATOM     18  C   UNL     1       1.308  -2.348  -2.434  0.00  0.00    +0.046 A 
BRANCH  13  19
ATOM     19  O   UNL     1       0.541  -0.497  -1.152  0.00  0.00    -0.492 OA
BRANCH  19  21
ATOM     20  C   UNL     1      -0.174   1.484   0.033  0.00  0.00    +0.048 C 
ATOM     21  C   UNL     1      -0.135  -0.045   0.023  0.00  0.00    +0.225 C 
ENDBRANCH  19  21
ENDBRANCH  13  19
ENDBRANCH   1  16
BRANCH   2  22
ATOM     22  C   UNL     1      -1.073  -6.572  -3.123  0.00  0.00    +0.098 C 
ATOM     23  N   UNL     1      -2.206  -6.652  -3.142  0.00  0.00    -0.191 NA
ENDBRANCH   2  22
BRANCH   3  24
ATOM     24  S   UNL     1       0.223  -7.210  -5.704  0.00  0.00    -0.100 S 
BRANCH  24  25
ATOM     25  C   UNL     1       1.556  -7.468  -6.906  0.00  0.00    +0.171 C 
BRANCH  25  26
ATOM     26  C   UNL     1       0.966  -7.875  -8.232  0.00  0.00    +0.227 C 
ATOM     27  O   UNL     1      -0.236  -7.982  -8.353  0.00  0.00    -0.275 OA
ATOM     28  N   UNL     1       1.773  -8.122  -9.282  0.00  0.00    -0.285 N 
ATOM     29  H   UNL     1       2.728  -7.972  -9.205  0.00  0.00    +0.155 HD
BRANCH  28  30
ATOM     30  C   UNL     1       1.233  -8.594 -10.485  0.00  0.00    +0.034 A 
ATOM     31  C   UNL     1       1.948  -9.499 -11.259  0.00  0.00    +0.025 A 
ATOM     32  C   UNL     1       1.415  -9.964 -12.444  0.00  0.00    +0.025 A 
ATOM     33  C   UNL     1       0.166  -9.527 -12.864  0.00  0.00    +0.033 A 
ATOM     34  C   UNL     1      -0.549  -8.622 -12.090  0.00  0.00    +0.025 A 
ATOM     35  C   UNL     1      -0.019  -8.161 -10.901  0.00  0.00    +0.025 A 
BRANCH  33  36
ATOM     36  N   UNL     1      -0.374  -9.999 -14.067  0.00  0.00    -0.286 N 
ATOM     37  C   UNL     1      -1.125  -9.185 -14.834  0.00  0.00    +0.214 C 
ATOM     38  O   UNL     1      -1.404  -8.071 -14.443  0.00  0.00    -0.276 OA
ATOM     39  C   UNL     1      -1.619  -9.658 -16.177  0.00  0.00    +0.109 C 
ATOM     40  H   UNL     1      -0.207 -10.912 -14.348  0.00  0.00    +0.155 HD
ENDBRANCH  33  36
ENDBRANCH  28  30
ENDBRANCH  25  26
ENDBRANCH  24  25
ENDBRANCH   3  24
TORSDOF 9
