REMARK  Name = ZINC44253896
REMARK  11 active torsions:
REMARK  status: ('A' for Active; 'I' for Inactive)
REMARK    1  A    between atoms: C_1  and  C_2
REMARK    2  A    between atoms: C_3  and  C_15
REMARK    3  A    between atoms: C_4  and  C_7
REMARK    4  A    between atoms: C_15  and  O_17
REMARK    5  A    between atoms: O_17  and  C_18
REMARK    6  A    between atoms: C_19  and  C_26
REMARK    7  A    between atoms: C_23  and  O_24
REMARK    8  A    between atoms: O_24  and  C_25
REMARK    9  A    between atoms: C_26  and  C_28
REMARK   10  A    between atoms: C_26  and  N_32
REMARK   11  A    between atoms: C_28  and  C_29
REMARK                            x       y       z     vdW  Elec       q    Type
REMARK                         _______ _______ _______ _____ _____    ______ ____
ROOT
ATOM      1  C   UNL     1      -4.302  -0.336   1.941  0.00  0.00    +0.175 A 
ATOM      2  C   UNL     1      -4.750   0.938   2.252  0.00  0.00    -0.015 A 
ATOM      3  C   UNL     1      -6.099   1.168   2.446  0.00  0.00    +0.006 A 
ATOM      4  C   UNL     1      -7.004   0.130   2.331  0.00  0.00    +0.004 A 
ATOM      5  C   UNL     1      -6.565  -1.143   2.021  0.00  0.00    +0.049 A 
ATOM      6  C   UNL     1      -5.215  -1.380   1.819  0.00  0.00    +0.162 A 
ENDROOT
BRANCH   6   7
ATOM      7  O   UNL     1      -4.781  -2.631   1.509  0.00  0.00    -0.491 OA
ATOM      8  C   UNL     1      -5.774  -3.654   1.401  0.00  0.00    +0.277 C 
ENDBRANCH   6   7
BRANCH   1   9
ATOM      9  O   UNL     1      -2.976  -0.565   1.749  0.00  0.00    -0.418 OA
BRANCH   9  10
ATOM     10  C   UNL     1      -2.509  -0.559   0.484  0.00  0.00    +0.350 C 
ATOM     11  O   UNL     1      -3.247  -0.260  -0.434  0.00  0.00    -0.244 OA
BRANCH  10  14
ATOM     12  C   UNL     1      -0.137   1.453   0.174  0.00  0.00    +0.090 C 
ATOM     13  C   UNL     1      -0.060  -0.049   0.078  0.00  0.00    +0.149 A 
ATOM     14  C   UNL     1      -1.107  -0.914   0.216  0.00  0.00    +0.129 A 
ATOM     15  C   UNL     1      -0.562  -2.270   0.045  0.00  0.00    +0.130 A 
ATOM     16  N   UNL     1       0.722  -2.139  -0.175  0.00  0.00    -0.077 NA
ATOM     17  O   UNL     1       1.043  -0.762  -0.162  0.00  0.00    -0.358 OA
BRANCH  15  18
ATOM     18  C   UNL     1      -1.321  -3.541   0.109  0.00  0.00    +0.041 A 
ATOM     19  C   UNL     1      -2.367  -3.778  -0.783  0.00  0.00    +0.052 A 
ATOM     20  C   UNL     1      -3.071  -4.965  -0.718  0.00  0.00    +0.021 A 
ATOM     21  C   UNL     1      -2.741  -5.917   0.229  0.00  0.00    +0.003 A 
ATOM     22  C   UNL     1      -1.706  -5.688   1.117  0.00  0.00    +0.021 A 
ATOM     23  C   UNL     1      -0.990  -4.508   1.058  0.00  0.00    +0.052 A 
ATOM     24 CL   UNL     1       0.315  -4.226   2.168  0.00  0.00    -0.083 Cl
ATOM     25 CL   UNL     1      -2.784  -2.584  -1.972  0.00  0.00    -0.083 Cl
ENDBRANCH  15  18
ENDBRANCH  10  14
ENDBRANCH   9  10
ENDBRANCH   1   9
BRANCH   2  26
ATOM     26  C   UNL     1      -3.766   2.072   2.378  0.00  0.00    -0.032 C 
BRANCH  26  27
ATOM     27  N   UNL     1      -4.325   3.111   3.254  0.00  0.00    +0.383 N 
ATOM     28  H   UNL     1      -5.187   3.455   2.858  0.00  0.00    -0.089 HD
ATOM     29  H   UNL     1      -4.507   2.719   4.166  0.00  0.00    -0.089 HD
ATOM     30  H   UNL     1      -3.666   3.870   3.339  0.00  0.00    -0.089 HD
ENDBRANCH  26  27
BRANCH  26  31
ATOM     31  C   UNL     1      -3.490   2.666   0.995  0.00  0.00    +0.084 C 
BRANCH  31  32
ATOM     32  C   UNL     1      -2.416   3.717   1.105  0.00  0.00    +0.209 C 
ATOM     33  O   UNL     1      -1.919   3.966   2.183  0.00  0.00    -0.276 OA
ATOM     34  N   UNL     1      -2.007   4.379   0.004  0.00  0.00    -0.329 N 
ATOM     35  H   UNL     1      -2.404   4.179  -0.858  0.00  0.00    +0.145 HD
ATOM     36  H   UNL     1      -1.315   5.055   0.075  0.00  0.00    +0.145 HD
ENDBRANCH  31  32
ENDBRANCH  26  31
ENDBRANCH   2  26
TORSDOF 9
