REMARK  Name = ZINC09742975
REMARK  8 active torsions:
REMARK  status: ('A' for Active; 'I' for Inactive)
REMARK    1  A    between atoms: C_1  and  C_2
REMARK    2  A    between atoms: C_2  and  O_3
REMARK    3  A    between atoms: O_3  and  C_4
REMARK    4  A    between atoms: C_4  and  C_6
REMARK    5  A    between atoms: C_7  and  N_36
REMARK    6  A    between atoms: C_11  and  C_35
REMARK    7  A    between atoms: N_24  and  C_27
REMARK    8  A    between atoms: C_27  and  C_28
REMARK                            x       y       z     vdW  Elec       q    Type
REMARK                         _______ _______ _______ _____ _____    ______ ____
ROOT
ATOM      1  C   UNL     1      -1.559   0.940   3.510  0.00  0.00    +0.117 C 
ATOM      2  C   UNL     1      -1.103   0.385   4.663  0.00  0.00    +0.196 C 
ATOM      3  O   UNL     1      -1.612   0.718   5.860  0.00  0.00    -0.441 OA
ATOM      4  C   UNL     1      -2.318   1.859   6.005  0.00  0.00    +0.142 A 
ATOM      5  C   UNL     1      -2.519   2.404   7.290  0.00  0.00    +0.067 A 
ATOM      6  C   UNL     1      -3.225   3.546   7.431  0.00  0.00    +0.019 A 
ATOM      7  N   UNL     1      -3.749   4.182   6.350  0.00  0.00    -0.326 N 
ATOM      8  H   UNL     1      -4.252   5.001   6.475  0.00  0.00    +0.169 HD
ATOM      9  C   UNL     1      -3.578   3.692   5.107  0.00  0.00    +0.257 A 
ATOM     10  O   UNL     1      -4.057   4.279   4.149  0.00  0.00    -0.267 OA
ATOM     11  C   UNL     1      -2.852   2.510   4.912  0.00  0.00    +0.083 A 
ATOM     12  C   UNL     1      -2.657   1.964   3.529  0.00  0.00    +0.144 C 
ATOM     13  C   UNL     1      -3.934   1.389   3.000  0.00  0.00    -0.002 A 
ATOM     14  C   UNL     1      -4.722   0.351   3.449  0.00  0.00    +0.007 A 
ATOM     15  C   UNL     1      -5.867   0.064   2.713  0.00  0.00    +0.000 A 
ATOM     16  C   UNL     1      -6.196   0.788   1.586  0.00  0.00    +0.002 A 
ATOM     17  C   UNL     1      -5.410   1.834   1.129  0.00  0.00    +0.024 A 
ATOM     18  C   UNL     1      -4.258   2.133   1.859  0.00  0.00    +0.041 A 
ATOM     19  N   UNL     1      -3.305   3.111   1.636  0.00  0.00    -0.265 N 
ATOM     20  C   UNL     1      -2.330   3.089   2.567  0.00  0.00    +0.240 C 
ATOM     21  O   UNL     1      -1.371   3.829   2.624  0.00  0.00    -0.274 OA
ATOM     22  C   UNL     1      -3.437   4.124   8.806  0.00  0.00    +0.063 C 
ENDROOT
BRANCH   2  23
ATOM     23  N   UNL     1      -0.095  -0.540   4.602  0.00  0.00    -0.329 N 
ATOM     24  H   UNL     1       0.338  -0.731   3.756  0.00  0.00    +0.145 HD
ATOM     25  H   UNL     1       0.185  -1.005   5.406  0.00  0.00    +0.145 HD
ENDBRANCH   2  23
BRANCH   1  26
ATOM     26  C   UNL     1      -0.993   0.555   2.286  0.00  0.00    +0.342 C 
ATOM     27  O   UNL     1      -0.148   1.257   1.758  0.00  0.00    -0.245 OA
BRANCH  26  28
ATOM     28  O   UNL     1      -1.385  -0.593   1.692  0.00  0.00    -0.462 OA
BRANCH  28  30
ATOM     29  C   UNL     1      -1.336  -2.236  -0.080  0.00  0.00    +0.048 C 
ATOM     30  C   UNL     1      -0.685  -0.982   0.508  0.00  0.00    +0.229 C 
ENDBRANCH  28  30
ENDBRANCH  26  28
ENDBRANCH   1  26
BRANCH  19  31
ATOM     31  C   UNL     1      -3.351   4.058   0.519  0.00  0.00    +0.150 C 
BRANCH  31  32
ATOM     32  C   UNL     1      -2.744   3.422  -0.705  0.00  0.00    -0.011 A 
ATOM     33  C   UNL     1      -3.559   2.835  -1.654  0.00  0.00    +0.006 A 
ATOM     34  C   UNL     1      -3.003   2.251  -2.777  0.00  0.00    +0.000 A 
ATOM     35  C   UNL     1      -1.632   2.254  -2.951  0.00  0.00    +0.001 A 
ATOM     36  C   UNL     1      -0.816   2.841  -2.003  0.00  0.00    +0.020 A 
ATOM     37  C   UNL     1      -1.372   3.430  -0.881  0.00  0.00    +0.046 A 
ATOM     38 CL   UNL     1      -0.349   4.174   0.307  0.00  0.00    -0.083 Cl
ENDBRANCH  31  32
ENDBRANCH  19  31
TORSDOF 6
