REMARK  Name = ZINC35743746
REMARK  12 active torsions:
REMARK  status: ('A' for Active; 'I' for Inactive)
REMARK    1  A    between atoms: C_1  and  C_2
REMARK    2  A    between atoms: C_2  and  C_4
REMARK    3  A    between atoms: C_2  and  N_17
REMARK    4  A    between atoms: N_14  and  C_15
REMARK    5  A    between atoms: N_17  and  C_18
REMARK    6  A    between atoms: C_18  and  C_19
REMARK    7  A    between atoms: C_19  and  C_20
REMARK    8  A    between atoms: C_20  and  C_21
REMARK    9  A    between atoms: C_21  and  C_22
REMARK   10  A    between atoms: C_22  and  C_23
REMARK   11  A    between atoms: C_23  and  N_24
REMARK   12  A    between atoms: C_25  and  C_27
REMARK                            x       y       z     vdW  Elec       q    Type
REMARK                         _______ _______ _______ _____ _____    ______ ____
ROOT
ATOM      1  N   UNL     1       0.966   0.241   1.250  0.00  0.00    -0.291 N 
ATOM      2  C   UNL     1       0.314   0.024   2.409  0.00  0.00    +0.219 C 
ATOM      3  O   UNL     1      -0.898   0.052   2.438  0.00  0.00    -0.275 OA
ENDROOT
BRANCH   2   4
ATOM      4  C   UNL     1       1.091  -0.253   3.670  0.00  0.00    +0.075 C 
ATOM      5  C   UNL     1       1.571  -1.706   3.665  0.00  0.00    +0.013 C 
ATOM      6  C   UNL     1       2.360  -1.987   4.945  0.00  0.00    +0.001 C 
ATOM      7  C   UNL     1       1.461  -1.751   6.160  0.00  0.00    +0.000 C 
ATOM      8  C   UNL     1       0.982  -0.298   6.166  0.00  0.00    +0.001 C 
ATOM      9  C   UNL     1       0.193  -0.017   4.886  0.00  0.00    +0.013 C 
ENDBRANCH   2   4
BRANCH   1  11
ATOM     10  C   UNL     1      -0.468   1.945   0.238  0.00  0.00    +0.036 C 
ATOM     11  C   UNL     1       0.214   0.590   0.041  0.00  0.00    +0.139 C 
BRANCH  11  12
ATOM     12  C   UNL     1      -0.829  -0.465  -0.223  0.00  0.00    +0.133 A 
ATOM     13  N   UNL     1      -2.071  -0.179   0.027  0.00  0.00    -0.232 NA
ATOM     14  C   UNL     1      -3.064  -1.078  -0.186  0.00  0.00    +0.080 A 
ATOM     15  C   UNL     1      -4.400  -0.772   0.081  0.00  0.00    +0.048 A 
ATOM     16  C   UNL     1      -5.373  -1.720  -0.153  0.00  0.00    +0.043 A 
ATOM     17  C   UNL     1      -5.040  -2.974  -0.651  0.00  0.00    +0.021 A 
ATOM     18  C   UNL     1      -3.739  -3.295  -0.920  0.00  0.00    +0.017 A 
ATOM     19  C   UNL     1      -2.736  -2.355  -0.693  0.00  0.00    +0.065 A 
ATOM     20  C   UNL     1      -1.321  -2.646  -0.965  0.00  0.00    +0.262 A 
ATOM     21  O   UNL     1      -0.971  -3.727  -1.403  0.00  0.00    -0.267 OA
ATOM     22  N   UNL     1      -0.424  -1.664  -0.716  0.00  0.00    -0.298 N 
ATOM     23  C   UNL     1       0.999  -1.899  -0.974  0.00  0.00    +0.154 C 
ATOM     24 CL   UNL     1      -7.035  -1.342   0.179  0.00  0.00    -0.083 Cl
ENDBRANCH  11  12
ENDBRANCH   1  11
BRANCH   1  25
ATOM     25  C   UNL     1       2.425   0.129   1.198  0.00  0.00    +0.108 C 
BRANCH  25  26
ATOM     26  C   UNL     1       3.053   1.490   1.504  0.00  0.00    +0.019 C 
BRANCH  26  27
ATOM     27  C   UNL     1       4.578   1.372   1.450  0.00  0.00    +0.001 C 
BRANCH  27  28
ATOM     28  C   UNL     1       5.205   2.734   1.756  0.00  0.00    -0.002 C 
BRANCH  28  29
ATOM     29  C   UNL     1       6.730   2.616   1.701  0.00  0.00    -0.020 C 
BRANCH  29  30
ATOM     30  C   UNL     1       7.358   3.977   2.007  0.00  0.00    -0.086 C 
BRANCH  30  31
ATOM     31  N   UNL     1       8.821   3.865   1.955  0.00  0.00    +0.378 N 
ATOM     32  H   UNL     1       9.235   4.762   2.157  0.00  0.00    -0.090 HD
ATOM     33  H   UNL     1       9.131   3.190   2.639  0.00  0.00    -0.090 HD
ATOM     34  H   UNL     1       9.103   3.564   1.034  0.00  0.00    -0.090 HD
ENDBRANCH  30  31
ENDBRANCH  29  30
ENDBRANCH  28  29
ENDBRANCH  27  28
ENDBRANCH  26  27
ENDBRANCH  25  26
ENDBRANCH   1  25
TORSDOF 10
