REMARK  Name = ZINC35452947
REMARK  4 active torsions:
REMARK  status: ('A' for Active; 'I' for Inactive)
REMARK    1  A    between atoms: C_1  and  C_2
REMARK    2  A    between atoms: C_5  and  N_8
REMARK    3  A    between atoms: N_8  and  C_9
REMARK    4  A    between atoms: C_14  and  N_15
REMARK                            x       y       z     vdW  Elec       q    Type
REMARK                         _______ _______ _______ _____ _____    ______ ____
ROOT
ATOM      1  C   UNL     1      -1.230  -2.807   3.653  0.00  0.00    +0.050 A 
ATOM      2  C   UNL     1      -0.450  -3.953   3.703  0.00  0.00    +0.051 A 
ATOM      3  C   UNL     1      -0.325  -4.651   4.893  0.00  0.00    +0.078 A 
ATOM      4  C   UNL     1      -0.983  -4.205   6.038  0.00  0.00    +0.144 A 
ATOM      5  C   UNL     1      -1.761  -3.062   5.989  0.00  0.00    +0.072 A 
ATOM      6  C   UNL     1      -1.883  -2.358   4.799  0.00  0.00    +0.049 A 
ATOM      7  O   UNL     1      -0.852  -4.903   7.199  0.00  0.00    -0.481 OA
ATOM      8  C   UNL     1      -0.704  -6.321   7.084  0.00  0.00    +0.325 C 
ATOM      9  C   UNL     1       0.318  -6.638   6.021  0.00  0.00    +0.255 C 
ATOM     10  O   UNL     1       1.008  -7.631   6.117  0.00  0.00    -0.272 OA
ATOM     11  N   UNL     1       0.462  -5.812   4.962  0.00  0.00    -0.280 N 
ATOM     12  H   UNL     1       1.099  -6.018   4.260  0.00  0.00    +0.155 HD
ENDROOT
BRANCH   6  13
ATOM     13  N   UNL     1      -2.667  -1.196   4.750  0.00  0.00    -0.356 N 
ATOM     14  H   UNL     1      -2.755  -0.706   3.917  0.00  0.00    +0.142 HD
ATOM     15  H   UNL     1      -3.121  -0.883   5.547  0.00  0.00    +0.142 HD
ENDBRANCH   6  13
BRANCH   1  16
ATOM     16  N   UNL     1      -1.358  -2.098   2.449  0.00  0.00    -0.340 N 
ATOM     17  H   UNL     1      -1.901  -1.294   2.415  0.00  0.00    +0.146 HD
BRANCH  16  22
ATOM     18  C   UNL     1      -0.019   1.526   0.010  0.00  0.00    +0.007 C 
ATOM     19  C   UNL     1       0.002  -0.004   0.002  0.00  0.00    -0.014 C 
ATOM     20  C   UNL     1      -1.433  -0.534   0.013  0.00  0.00    +0.005 C 
ATOM     21  C   UNL     1      -1.413  -2.063   0.004  0.00  0.00    +0.022 C 
ATOM     22  C   UNL     1      -0.673  -2.570   1.244  0.00  0.00    +0.070 C 
ATOM     23  C   UNL     1       0.763  -2.041   1.233  0.00  0.00    +0.022 C 
ATOM     24  C   UNL     1       0.742  -0.511   1.242  0.00  0.00    +0.005 C 
ENDBRANCH  16  22
ENDBRANCH   1  16
TORSDOF 3
