REMARK  Name = ZINC15970228
REMARK  10 active torsions:
REMARK  status: ('A' for Active; 'I' for Inactive)
REMARK    1  A    between atoms: C_1  and  C_2
REMARK    2  A    between atoms: C_2  and  C_3
REMARK    3  A    between atoms: C_2  and  C_4
REMARK    4  A    between atoms: C_4  and  C_6
REMARK    5  A    between atoms: C_4  and  N_13
REMARK    6  A    between atoms: N_8  and  C_9
REMARK    7  A    between atoms: C_9  and  C_10
REMARK    8  A    between atoms: C_10  and  O_11
REMARK    9  A    between atoms: O_11  and  C_12
REMARK   10  A    between atoms: C_14  and  C_16
REMARK                            x       y       z     vdW  Elec       q    Type
REMARK                         _______ _______ _______ _____ _____    ______ ____
ROOT
ATOM      1  C   UNL     1      -4.502  -3.833   0.099  0.00  0.00    +0.167 C 
ATOM      2  C   UNL     1      -5.148  -3.316  -1.194  0.00  0.00    +0.069 C 
ATOM      3  C   UNL     1      -6.470  -3.999  -1.428  0.00  0.00    -0.015 A 
ATOM      4  C   UNL     1      -7.517  -3.595  -2.350  0.00  0.00    +0.003 A 
ATOM      5  C   UNL     1      -7.626  -2.521  -3.239  0.00  0.00    +0.010 A 
ATOM      6  C   UNL     1      -8.782  -2.443  -3.976  0.00  0.00    +0.001 A 
ATOM      7  C   UNL     1      -9.798  -3.377  -3.853  0.00  0.00    +0.002 A 
ATOM      8  C   UNL     1      -9.715  -4.449  -2.981  0.00  0.00    +0.026 A 
ATOM      9  C   UNL     1      -8.553  -4.553  -2.220  0.00  0.00    +0.047 A 
ATOM     10  N   UNL     1      -8.149  -5.462  -1.285  0.00  0.00    -0.356 N 
ATOM     11  H   UNL     1      -8.662  -6.234  -0.998  0.00  0.00    +0.166 HD
ATOM     12  C   UNL     1      -6.910  -5.121  -0.813  0.00  0.00    +0.046 A 
ATOM     13  C   UNL     1      -6.110  -5.848   0.240  0.00  0.00    +0.155 C 
ATOM     14  N   UNL     1      -4.744  -5.277   0.176  0.00  0.00    -0.273 N 
ATOM     15  C   UNL     1      -3.862  -6.286   0.157  0.00  0.00    +0.248 C 
ATOM     16  O   UNL     1      -2.661  -6.168   0.307  0.00  0.00    -0.270 OA
ATOM     17  C   UNL     1      -4.565  -7.552  -0.071  0.00  0.00    +0.042 A 
ATOM     18  C   UNL     1      -5.952  -7.300  -0.057  0.00  0.00    -0.009 A 
ATOM     19  C   UNL     1      -6.869  -8.301  -0.288  0.00  0.00    +0.006 A 
ATOM     20  C   UNL     1      -6.366  -9.578  -0.522  0.00  0.00    +0.000 A 
ATOM     21  C   UNL     1      -5.010  -9.837  -0.525  0.00  0.00    +0.001 A 
ATOM     22  C   UNL     1      -4.074  -8.839  -0.302  0.00  0.00    +0.013 A 
ENDROOT
BRANCH   1  24
ATOM     23  N   UNL     1      -2.485  -2.652   0.908  0.00  0.00    -0.302 N 
ATOM     24  C   UNL     1      -3.019  -3.564   0.072  0.00  0.00    +0.235 C 
ATOM     25  O   UNL     1      -2.308  -4.169  -0.701  0.00  0.00    -0.274 OA
ATOM     26  H   UNL     1      -3.054  -2.168   1.526  0.00  0.00    +0.150 HD
BRANCH  23  27
ATOM     27  C   UNL     1      -1.044  -2.391   0.882  0.00  0.00    +0.161 C 
BRANCH  27  28
ATOM     28  C   UNL     1      -0.606  -1.855   2.220  0.00  0.00    +0.234 C 
ATOM     29  O   UNL     1      -1.397  -1.267   2.927  0.00  0.00    -0.274 OA
ATOM     30  N   UNL     1       0.665  -2.029   2.633  0.00  0.00    -0.312 N 
ATOM     31  H   UNL     1       1.280  -2.558   2.100  0.00  0.00    +0.149 HD
BRANCH  30  32
ATOM     32  C   UNL     1       1.119  -1.421   3.886  0.00  0.00    +0.132 C 
BRANCH  32  33
ATOM     33  C   UNL     1       2.590  -1.770   4.120  0.00  0.00    +0.178 C 
BRANCH  33  34
ATOM     34  O   UNL     1       3.390  -1.172   3.098  0.00  0.00    -0.381 OA
ATOM     35  C   UNL     1       4.788  -1.438   3.224  0.00  0.00    +0.194 C 
ENDBRANCH  33  34
ENDBRANCH  32  33
ENDBRANCH  30  32
ENDBRANCH  27  28
BRANCH  27  37
ATOM     36  C   UNL     1       0.759  -1.017  -0.171  0.00  0.00    +0.009 C 
ATOM     37  C   UNL     1      -0.731  -1.361  -0.206  0.00  0.00    +0.012 C 
ATOM     38  C   UNL     1      -1.088  -1.943  -1.576  0.00  0.00    +0.009 C 
ENDBRANCH  27  37
ENDBRANCH  23  27
ENDBRANCH   1  24
TORSDOF 7
