REMARK  Name = ZINC09375375
REMARK  20 active torsions:
REMARK  status: ('A' for Active; 'I' for Inactive)
REMARK    1  A    between atoms: C_1  and  C_2
REMARK    2  A    between atoms: C_2  and  N_71
REMARK    3  A    between atoms: C_3  and  C_4
REMARK    4  A    between atoms: C_3  and  N_71
REMARK    5  A    between atoms: C_5  and  C_6
REMARK    6  A    between atoms: C_5  and  N_71
REMARK    7  A    between atoms: C_6  and  C_7
REMARK    8  A    between atoms: C_7  and  N_8
REMARK    9  A    between atoms: C_9  and  C_25
REMARK   10  A    between atoms: C_11  and  C_16
REMARK   11  A    between atoms: C_12  and  O_15
REMARK   12  A    between atoms: C_16  and  C_18
REMARK   13  A    between atoms: C_19  and  C_24
REMARK   14  A    between atoms: C_21  and  C_23
REMARK   15  A    between atoms: C_27  and  O_35
REMARK   16  A    between atoms: C_28  and  O_33
REMARK   17  A    between atoms: C_29  and  O_31
REMARK   18  A    between atoms: O_31  and  C_32
REMARK   19  A    between atoms: O_33  and  C_34
REMARK   20  A    between atoms: O_35  and  C_36
REMARK                            x       y       z     vdW  Elec       q    Type
REMARK                         _______ _______ _______ _____ _____    ______ ____
ROOT
ATOM      1  N   UNL     1       5.353   3.791  -0.399  0.00  0.00    -0.284 N 
ATOM      2  C   UNL     1       4.230   2.848  -0.333  0.00  0.00    +0.145 C 
ATOM      3  C   UNL     1       3.010   3.671   0.011  0.00  0.00    +0.072 C 
ATOM      4  C   UNL     1       3.422   4.954   0.118  0.00  0.00    +0.188 C 
ATOM      5  C   UNL     1       4.876   5.020  -0.132  0.00  0.00    +0.282 C 
ATOM      6  O   UNL     1       5.543   6.036  -0.105  0.00  0.00    -0.267 OA
ENDROOT
BRANCH   2   7
ATOM      7  C   UNL     1       4.480   1.819   0.740  0.00  0.00    -0.015 A 
ATOM      8  C   UNL     1       4.185   2.113   2.058  0.00  0.00    +0.055 A 
ATOM      9  C   UNL     1       4.409   1.167   3.048  0.00  0.00    +0.165 A 
ATOM     10  C   UNL     1       4.940  -0.073   2.714  0.00  0.00    +0.204 A 
ATOM     11  C   UNL     1       5.240  -0.362   1.388  0.00  0.00    +0.165 A 
ATOM     12  C   UNL     1       5.009   0.588   0.404  0.00  0.00    +0.055 A 
BRANCH  11  13
ATOM     13  O   UNL     1       5.760  -1.574   1.056  0.00  0.00    -0.491 OA
ATOM     14  C   UNL     1       6.148  -1.762  -0.306  0.00  0.00    +0.277 C 
ENDBRANCH  11  13
BRANCH  10  15
ATOM     15  O   UNL     1       5.165  -1.002   3.683  0.00  0.00    -0.488 OA
ATOM     16  C   UNL     1       6.448  -0.986   4.311  0.00  0.00    +0.277 C 
ENDBRANCH  10  15
BRANCH   9  17
ATOM     17  O   UNL     1       4.114   1.455   4.344  0.00  0.00    -0.491 OA
ATOM     18  C   UNL     1       3.571   2.749   4.614  0.00  0.00    +0.277 C 
ENDBRANCH   9  17
ENDBRANCH   2   7
BRANCH   4  19
ATOM     19  O   UNL     1       2.628   6.011   0.411  0.00  0.00    -0.502 OA
ATOM     20  H   UNL     1       3.178   6.846   0.430  0.00  0.00    +0.292 HD
ENDBRANCH   4  19
BRANCH   3  21
ATOM     21  C   UNL     1       1.640   3.173   0.187  0.00  0.00    +0.203 C 
ATOM     22  O   UNL     1       0.765   3.925   0.577  0.00  0.00    -0.286 OA
BRANCH  21  23
ATOM     23  C   UNL     1       1.326   1.771  -0.107  0.00  0.00    +0.082 A 
ATOM     24  C   UNL     1       0.152   1.059   0.111  0.00  0.00    +0.057 A 
ATOM     25  N   UNL     1       0.131  -0.199  -0.247  0.00  0.00    -0.249 NA
ATOM     26  C   UNL     1       1.176  -0.782  -0.795  0.00  0.00    +0.076 A 
ATOM     27  S   UNL     1       2.344   0.501  -0.845  0.00  0.00    -0.069 S 
ATOM     28  C   UNL     1       1.322  -2.208  -1.264  0.00  0.00    +0.073 C 
ATOM     29  C   UNL     1      -1.055   1.714   0.732  0.00  0.00    +0.067 C 
ENDBRANCH  21  23
ENDBRANCH   3  21
BRANCH   1  30
ATOM     30  C   UNL     1       6.746   3.453  -0.702  0.00  0.00    +0.107 C 
BRANCH  30  31
ATOM     31  C   UNL     1       6.975   3.540  -2.212  0.00  0.00    +0.000 C 
BRANCH  31  32
ATOM     32  C   UNL     1       8.430   3.188  -2.529  0.00  0.00    -0.077 C 
BRANCH  32  33
ATOM     33  N   UNL     1       8.655   3.364  -3.979  0.00  0.00    +0.379 N 
ATOM     34  H   UNL     1       7.840   3.005  -4.489  0.00  0.00    -0.082 HD
BRANCH  33  36
ATOM     35  C   UNL     1       8.831   4.974  -5.813  0.00  0.00    -0.017 C 
ATOM     36  C   UNL     1       8.824   4.799  -4.293  0.00  0.00    -0.082 C 
ENDBRANCH  33  36
BRANCH  33  37
ATOM     37  C   UNL     1       9.855   2.611  -4.399  0.00  0.00    -0.082 C 
ATOM     38  C   UNL     1       9.486   1.131  -4.523  0.00  0.00    -0.017 C 
ENDBRANCH  33  37
ENDBRANCH  32  33
ENDBRANCH  31  32
ENDBRANCH  30  31
ENDBRANCH   1  30
TORSDOF 13
