REMARK  Name = ZINC08868785
REMARK  11 active torsions:
REMARK  status: ('A' for Active; 'I' for Inactive)
REMARK    1  A    between atoms: C_1  and  C_2
REMARK    2  A    between atoms: C_5  and  S_8
REMARK    3  A    between atoms: S_8  and  N_11
REMARK    4  A    between atoms: C_15  and  C_17
REMARK    5  A    between atoms: N_19  and  C_20
REMARK    6  A    between atoms: C_20  and  C_21
REMARK    7  A    between atoms: C_21  and  C_22
REMARK    8  A    between atoms: C_22  and  N_66
REMARK    9  A    between atoms: C_23  and  N_66
REMARK   10  A    between atoms: C_24  and  N_66
REMARK   11  A    between atoms: C_30  and  C_34
REMARK                            x       y       z     vdW  Elec       q    Type
REMARK                         _______ _______ _______ _____ _____    ______ ____
ROOT
ATOM      1  C   UNL     1      -2.046  -4.833   0.413  0.00  0.00    +0.240 C 
ATOM      2  O   UNL     1      -0.869  -4.839   0.123  0.00  0.00    -0.273 OA
ATOM      3  N   UNL     1      -2.648  -3.680   0.766  0.00  0.00    -0.249 N 
ATOM      4  C   UNL     1      -1.902  -2.520   0.894  0.00  0.00    +0.168 A 
ATOM      5  N   UNL     1      -2.303  -1.315   1.224  0.00  0.00    -0.224 NA
ATOM      6  C   UNL     1      -1.457  -0.266   1.312  0.00  0.00    +0.080 A 
ATOM      7  C   UNL     1      -1.758   1.073   1.654  0.00  0.00    +0.029 A 
ATOM      8  C   UNL     1      -0.771   2.023   1.696  0.00  0.00    +0.005 A 
ATOM      9  C   UNL     1       0.550   1.711   1.408  0.00  0.00    -0.049 A 
ATOM     10  C   UNL     1       0.880   0.411   1.069  0.00  0.00    +0.020 A 
ATOM     11  C   UNL     1      -0.102  -0.547   1.024  0.00  0.00    +0.041 A 
ATOM     12  S   UNL     1      -0.146  -2.284   0.653  0.00  0.00    -0.052 S 
ATOM     13  C   UNL     1       1.613   2.777   1.462  0.00  0.00    +0.044 C 
ENDROOT
BRANCH   1  18
ATOM     14  N   UNL     1      -2.379  -6.972  -0.729  0.00  0.00    -0.165 NA
ATOM     15  C   UNL     1      -2.420  -8.375  -0.288  0.00  0.00    +0.110 C 
ATOM     16  C   UNL     1      -2.906  -8.382   1.177  0.00  0.00    +0.019 C 
ATOM     17  C   UNL     1      -2.570  -6.947   1.661  0.00  0.00    +0.031 C 
ATOM     18  C   UNL     1      -2.837  -6.116   0.381  0.00  0.00    +0.166 C 
BRANCH  14  19
ATOM     19  S   UNL     1      -1.899  -6.441  -2.223  0.00  0.00    +0.062 S 
ATOM     20  O   UNL     1      -2.279  -7.447  -3.152  0.00  0.00    -0.153 OA
ATOM     21  O   UNL     1      -2.338  -5.094  -2.336  0.00  0.00    -0.153 OA
BRANCH  19  26
ATOM     22  C   UNL     1       4.133  -6.295  -2.209  0.00  0.00    +0.044 C 
ATOM     23  C   UNL     1       2.626  -6.331  -2.214  0.00  0.00    -0.050 A 
ATOM     24  C   UNL     1       1.964  -7.524  -2.435  0.00  0.00    +0.005 A 
ATOM     25  C   UNL     1       0.582  -7.558  -2.438  0.00  0.00    +0.029 A 
ATOM     26  C   UNL     1      -0.138  -6.399  -2.219  0.00  0.00    +0.106 A 
ATOM     27  C   UNL     1       0.524  -5.204  -2.003  0.00  0.00    +0.029 A 
ATOM     28  C   UNL     1       1.906  -5.171  -1.996  0.00  0.00    +0.005 A 
ENDBRANCH  19  26
ENDBRANCH  14  19
ENDBRANCH   1  18
BRANCH   3  29
ATOM     29  C   UNL     1      -4.092  -3.653   1.012  0.00  0.00    +0.114 C 
BRANCH  29  30
ATOM     30  C   UNL     1      -4.826  -3.322  -0.289  0.00  0.00    +0.001 C 
BRANCH  30  31
ATOM     31  C   UNL     1      -6.334  -3.294  -0.031  0.00  0.00    -0.078 C 
BRANCH  31  34
ATOM     32  C   UNL     1      -6.872  -4.053  -2.266  0.00  0.00    -0.097 C 
ATOM     33  C   UNL     1      -8.460  -2.708  -1.029  0.00  0.00    -0.097 C 
ATOM     34  N   UNL     1      -7.027  -2.953  -1.291  0.00  0.00    +0.376 N 
ATOM     35  H   UNL     1      -6.608  -2.101  -1.682  0.00  0.00    -0.083 HD
ENDBRANCH  31  34
ENDBRANCH  30  31
ENDBRANCH  29  30
ENDBRANCH   3  29
TORSDOF 7
