REMARK  Name = ZINC35889705
REMARK  4 active torsions:
REMARK  status: ('A' for Active; 'I' for Inactive)
REMARK    1  A    between atoms: C_1  and  C_2
REMARK    2  A    between atoms: C_2  and  C_3
REMARK    3  A    between atoms: N_25  and  C_28
REMARK    4  A    between atoms: C_33  and  C_34
REMARK                            x       y       z     vdW  Elec       q    Type
REMARK                         _______ _______ _______ _____ _____    ______ ____
ROOT
ATOM      1  C   UNL     1       0.770   1.238  -0.574  0.00  0.00    -0.026 A 
ATOM      2  C   UNL     1      -0.096   0.868  -1.582  0.00  0.00    +0.005 A 
ATOM      3  C   UNL     1       0.363   0.141  -2.665  0.00  0.00    +0.001 A 
ATOM      4  C   UNL     1       1.698  -0.217  -2.737  0.00  0.00    +0.004 A 
ATOM      5  C   UNL     1       2.566   0.149  -1.733  0.00  0.00    -0.027 A 
ATOM      6  C   UNL     1       2.116   0.886  -0.641  0.00  0.00    +0.039 A 
ATOM      7  N   UNL     1       3.172   1.143   0.236  0.00  0.00    -0.286 N 
ATOM      8  C   UNL     1       4.333   0.620  -0.201  0.00  0.00    +0.212 C 
ATOM      9  O   UNL     1       5.410   0.685   0.354  0.00  0.00    -0.277 OA
ATOM     10  C   UNL     1       4.035  -0.072  -1.504  0.00  0.00    +0.053 C 
ATOM     11  C   UNL     1       4.876   0.525  -2.638  0.00  0.00    +0.089 C 
ATOM     12  C   UNL     1       5.222  -0.683  -3.550  0.00  0.00    +0.074 C 
ATOM     13  C   UNL     1       4.541  -1.896  -2.890  0.00  0.00    -0.054 C 
ATOM     14  N   UNL     1       4.364  -1.506  -1.453  0.00  0.00    +0.395 N 
ATOM     15  C   UNL     1       5.700  -1.679  -0.835  0.00  0.00    -0.076 C 
ATOM     16  C   UNL     1       6.290  -2.940  -1.498  0.00  0.00    -0.020 C 
ATOM     17  C   UNL     1       5.523  -3.082  -2.871  0.00  0.00    -0.016 C 
ATOM     18  C   UNL     1       6.724  -0.800  -3.420  0.00  0.00    +0.228 C 
ATOM     19  O   UNL     1       7.412  -1.629  -3.975  0.00  0.00    -0.275 OA
ATOM     20  N   UNL     1       7.174   0.154  -2.598  0.00  0.00    -0.210 N 
ATOM     21  C   UNL     1       6.217   0.970  -2.099  0.00  0.00    +0.229 C 
ATOM     22  O   UNL     1       6.395   1.901  -1.344  0.00  0.00    -0.275 OA
ATOM     23  H   UNL     1       3.079   1.640   1.064  0.00  0.00    +0.155 HD
ATOM     24  H   UNL     1       3.647  -2.049  -0.995  0.00  0.00    -0.079 HD
ENDROOT
BRANCH  20  25
ATOM     25  C   UNL     1       8.532   0.303  -2.280  0.00  0.00    +0.048 A 
ATOM     26  C   UNL     1       9.072  -0.380  -1.199  0.00  0.00    +0.044 A 
ATOM     27  C   UNL     1      10.411  -0.231  -0.889  0.00  0.00    +0.043 A 
ATOM     28  C   UNL     1      11.212   0.598  -1.656  0.00  0.00    +0.020 A 
ATOM     29  C   UNL     1      10.675   1.278  -2.733  0.00  0.00    +0.006 A 
ATOM     30  C   UNL     1       9.339   1.129  -3.050  0.00  0.00    -0.029 A 
ATOM     31  C   UNL     1       8.757   1.867  -4.228  0.00  0.00    +0.045 C 
ATOM     32 CL   UNL     1      11.088  -1.084   0.463  0.00  0.00    -0.083 Cl
ENDBRANCH  20  25
BRANCH   1  34
ATOM     33  C   UNL     1       0.486   3.522   0.349  0.00  0.00    +0.009 C 
ATOM     34  C   UNL     1       0.259   2.030   0.602  0.00  0.00    +0.033 C 
ENDBRANCH   1  34
TORSDOF 2
