REMARK  Name = ZINC29155122
REMARK  11 active torsions:
REMARK  status: ('A' for Active; 'I' for Inactive)
REMARK    1  A    between atoms: C_1  and  C_2
REMARK    2  A    between atoms: C_2  and  O_3
REMARK    3  A    between atoms: O_3  and  C_4
REMARK    4  A    between atoms: C_4  and  C_6
REMARK    5  A    between atoms: C_7  and  C_19
REMARK    6  A    between atoms: C_12  and  C_14
REMARK    7  A    between atoms: C_19  and  N_20
REMARK    8  A    between atoms: N_20  and  C_21
REMARK    9  A    between atoms: N_20  and  C_22
REMARK   10  A    between atoms: C_22  and  C_23
REMARK   11  A    between atoms: C_28  and  N_29
REMARK                            x       y       z     vdW  Elec       q    Type
REMARK                         _______ _______ _______ _____ _____    ______ ____
ROOT
ATOM      1  C   UNL     1      -0.381  -0.680   1.107  0.00  0.00    +0.079 C 
ATOM      2  C   UNL     1      -0.122  -0.012  -0.038  0.00  0.00    +0.008 C 
ATOM      3  N   UNL     1       0.278  -0.672  -1.164  0.00  0.00    -0.274 N 
ATOM      4  C   UNL     1       0.453  -1.999  -1.225  0.00  0.00    +0.304 C 
ATOM      5  O   UNL     1       0.817  -2.497  -2.272  0.00  0.00    -0.252 OA
ATOM      6  N   UNL     1       0.234  -2.800  -0.163  0.00  0.00    -0.285 N 
ATOM      7  C   UNL     1      -0.206  -2.185   1.100  0.00  0.00    +0.179 C 
ATOM      8  H   UNL     1       0.476  -0.112  -2.090  0.00  0.00    +0.156 HD
ATOM      9  H   UNL     1       0.376  -3.889  -0.225  0.00  0.00    +0.151 HD
ENDROOT
BRANCH   7  10
ATOM     10  C   UNL     1      -1.524  -2.807   1.485  0.00  0.00    +0.130 A 
ATOM     11  C   UNL     1      -1.847  -3.275   2.704  0.00  0.00    +0.047 A 
ATOM     12  C   UNL     1      -3.170  -3.766   2.617  0.00  0.00    +0.041 A 
ATOM     13  C   UNL     1      -3.576  -3.569   1.351  0.00  0.00    +0.195 A 
ATOM     14  O   UNL     1      -2.578  -2.982   0.671  0.00  0.00    -0.466 OA
ENDBRANCH   7  10
BRANCH   1  15
ATOM     15  C   UNL     1      -0.799   0.003   2.273  0.00  0.00    +0.339 C 
ATOM     16  O   UNL     1      -0.004   0.227   3.166  0.00  0.00    -0.245 OA
BRANCH  15  17
ATOM     17  O   UNL     1      -2.082   0.406   2.395  0.00  0.00    -0.462 OA
BRANCH  17  19
ATOM     18  C   UNL     1      -3.917   1.465   3.556  0.00  0.00    +0.048 C 
ATOM     19  C   UNL     1      -2.435   1.089   3.599  0.00  0.00    +0.229 C 
ENDBRANCH  17  19
ENDBRANCH  15  17
ENDBRANCH   1  15
BRANCH   2  20
ATOM     20  C   UNL     1      -0.282   1.486  -0.075  0.00  0.00    -0.026 C 
BRANCH  20  21
ATOM     21  N   UNL     1       1.024   2.113  -0.313  0.00  0.00    +0.384 N 
ATOM     22  C   UNL     1       1.931   1.887   0.820  0.00  0.00    -0.095 C 
ATOM     23  H   UNL     1       1.469   1.641  -1.201  0.00  0.00    -0.081 HD
BRANCH  21  24
ATOM     24  C   UNL     1       0.877   3.548  -0.591  0.00  0.00    -0.041 C 
BRANCH  24  25
ATOM     25  C   UNL     1       2.193   4.105  -1.069  0.00  0.00    -0.043 A 
ATOM     26  C   UNL     1       3.008   4.800  -0.196  0.00  0.00    +0.003 A 
ATOM     27  C   UNL     1       4.218   5.307  -0.632  0.00  0.00    +0.000 A 
ATOM     28  C   UNL     1       4.612   5.130  -1.945  0.00  0.00    +0.002 A 
ATOM     29  C   UNL     1       3.800   4.441  -2.825  0.00  0.00    +0.023 A 
ATOM     30  C   UNL     1       2.586   3.926  -2.389  0.00  0.00    +0.031 A 
BRANCH  30  31
ATOM     31  N   UNL     1       1.763   3.229  -3.276  0.00  0.00    -0.330 N 
ATOM     32  C   UNL     1       2.410   1.994  -3.735  0.00  0.00    +0.105 C 
ATOM     33  C   UNL     1       1.427   1.187  -4.586  0.00  0.00    +0.019 C 
ATOM     34  C   UNL     1       0.986   2.030  -5.785  0.00  0.00    +0.003 C 
ATOM     35  C   UNL     1       0.358   3.333  -5.280  0.00  0.00    +0.019 C 
ATOM     36  C   UNL     1       1.373   4.077  -4.409  0.00  0.00    +0.105 C 
ENDBRANCH  30  31
ENDBRANCH  24  25
ENDBRANCH  21  24
ENDBRANCH  20  21
ENDBRANCH   2  20
TORSDOF 9
