REMARK  Name = ZINC39983983
REMARK  11 active torsions:
REMARK  status: ('A' for Active; 'I' for Inactive)
REMARK    1  A    between atoms: C_1  and  C_2
REMARK    2  A    between atoms: N_4  and  C_5
REMARK    3  A    between atoms: N_4  and  C_11
REMARK    4  A    between atoms: C_5  and  C_6
REMARK    5  A    between atoms: C_6  and  C_7
REMARK    6  A    between atoms: C_7  and  O_9
REMARK    7  A    between atoms: O_9  and  C_10
REMARK    8  A    between atoms: C_14  and  N_17
REMARK    9  A    between atoms: N_17  and  C_18
REMARK   10  A    between atoms: N_21  and  S_22
REMARK   11  A    between atoms: S_22  and  C_25
REMARK                            x       y       z     vdW  Elec       q    Type
REMARK                         _______ _______ _______ _____ _____    ______ ____
ROOT
ATOM      1  C   UNL     1      -6.074   3.414  -0.104  0.00  0.00    +0.237 C 
ATOM      2  C   UNL     1      -6.865   3.953   1.066  0.00  0.00    +0.192 C 
ATOM      3  N   UNL     1      -6.504   3.684   2.286  0.00  0.00    -0.110 NA
ATOM      4  N   UNL     1      -7.944   4.715   0.828  0.00  0.00    -0.226 NA
ATOM      5  C   UNL     1      -8.329   5.003  -0.398  0.00  0.00    +0.089 A 
ATOM      6  C   UNL     1      -9.474   5.811  -0.613  0.00  0.00    +0.030 A 
ATOM      7  C   UNL     1      -9.874   6.108  -1.869  0.00  0.00    +0.002 A 
ATOM      8  C   UNL     1      -9.198   5.647  -3.011  0.00  0.00    +0.002 A 
ATOM      9  C   UNL     1      -8.096   4.871  -2.919  0.00  0.00    +0.027 A 
ATOM     10  C   UNL     1      -7.595   4.502  -1.587  0.00  0.00    +0.063 A 
ATOM     11  N   UNL     1      -6.535   3.755  -1.459  0.00  0.00    -0.359 N 
ATOM     12  H   UNL     1      -6.060   3.432  -2.241  0.00  0.00    +0.162 HD
ENDROOT
BRANCH   3  13
ATOM     13  S   UNL     1      -7.379   4.281   3.559  0.00  0.00    +0.100 S 
ATOM     14  O   UNL     1      -7.222   5.693   3.533  0.00  0.00    -0.146 OA
ATOM     15  O   UNL     1      -8.653   3.655   3.506  0.00  0.00    -0.146 OA
BRANCH  13  16
ATOM     16  C   UNL     1      -6.601   3.716   5.036  0.00  0.00    +0.113 A 
ATOM     17  C   UNL     1      -6.981   2.512   5.599  0.00  0.00    +0.029 A 
ATOM     18  C   UNL     1      -6.371   2.068   6.758  0.00  0.00    +0.002 A 
ATOM     19  C   UNL     1      -5.382   2.829   7.353  0.00  0.00    +0.000 A 
ATOM     20  C   UNL     1      -5.002   4.032   6.790  0.00  0.00    +0.002 A 
ATOM     21  C   UNL     1      -5.609   4.474   5.629  0.00  0.00    +0.029 A 
ENDBRANCH  13  16
ENDBRANCH   3  13
BRANCH   1  22
ATOM     22  N   UNL     1      -6.053   1.953   0.006  0.00  0.00    -0.318 N 
ATOM     23  H   UNL     1      -6.883   1.463   0.118  0.00  0.00    +0.148 HD
BRANCH  22  27
ATOM     24  C   UNL     1      -2.428  -0.097  -0.160  0.00  0.00    +0.036 A 
ATOM     25  C   UNL     1      -2.469   1.264  -0.432  0.00  0.00    +0.025 A 
ATOM     26  C   UNL     1      -3.669   1.943  -0.377  0.00  0.00    +0.025 A 
ATOM     27  C   UNL     1      -4.837   1.265  -0.050  0.00  0.00    +0.029 A 
ATOM     28  C   UNL     1      -4.795  -0.097   0.222  0.00  0.00    +0.025 A 
ATOM     29  C   UNL     1      -3.595  -0.777   0.162  0.00  0.00    +0.025 A 
BRANCH  24  33
ATOM     30  C   UNL     1      -1.410  -1.188   2.216  0.00  0.00    +0.109 C 
ATOM     31  C   UNL     1      -0.659  -1.277   0.912  0.00  0.00    +0.217 C 
ATOM     32  O   UNL     1       0.440  -1.789   0.879  0.00  0.00    -0.276 OA
ATOM     33  N   UNL     1      -1.209  -0.787  -0.216  0.00  0.00    -0.271 N 
BRANCH  33  34
ATOM     34  C   UNL     1      -0.532  -0.975  -1.502  0.00  0.00    +0.125 C 
BRANCH  34  35
ATOM     35  C   UNL     1      -1.008  -2.281  -2.142  0.00  0.00    +0.140 C 
BRANCH  35  36
ATOM     36  C   UNL     1      -0.312  -2.474  -3.465  0.00  0.00    +0.308 C 
ATOM     37  O   UNL     1       0.483  -1.652  -3.856  0.00  0.00    -0.251 OA
BRANCH  36  38
ATOM     38  O   UNL     1      -0.574  -3.560  -4.209  0.00  0.00    -0.468 OA
ATOM     39  C   UNL     1       0.121  -3.679  -5.451  0.00  0.00    +0.280 C 
ENDBRANCH  36  38
ENDBRANCH  35  36
ENDBRANCH  34  35
ENDBRANCH  33  34
ENDBRANCH  24  33
ENDBRANCH  22  27
ENDBRANCH   1  22
TORSDOF 9
