REMARK  Name = ZINC49741628
REMARK  6 active torsions:
REMARK  status: ('A' for Active; 'I' for Inactive)
REMARK    1  A    between atoms: C_1  and  C_2
REMARK    2  A    between atoms: C_2  and  C_3
REMARK    3  A    between atoms: C_2  and  C_4
REMARK    4  A    between atoms: C_8  and  N_15
REMARK    5  A    between atoms: N_15  and  S_16
REMARK    6  A    between atoms: S_16  and  C_19
REMARK                            x       y       z     vdW  Elec       q    Type
REMARK                         _______ _______ _______ _____ _____    ______ ____
ROOT
ATOM      1  C   UNL     1       0.533  -0.545   1.211  0.00  0.00    +0.110 C 
ATOM      2  C   UNL     1       0.605  -2.054   1.265  0.00  0.00    -0.012 A 
ATOM      3  C   UNL     1       1.137  -2.995   0.413  0.00  0.00    +0.030 A 
ATOM      4  C   UNL     1       1.051  -4.345   0.732  0.00  0.00    +0.048 A 
ATOM      5  C   UNL     1       0.427  -4.735   1.911  0.00  0.00    +0.026 A 
ATOM      6  C   UNL     1      -0.104  -3.789   2.762  0.00  0.00    +0.025 A 
ATOM      7  C   UNL     1      -0.020  -2.434   2.445  0.00  0.00    +0.037 A 
ATOM      8  N   UNL     1      -0.476  -1.306   3.134  0.00  0.00    -0.285 N 
ATOM      9  C   UNL     1      -0.192  -0.162   2.483  0.00  0.00    +0.225 C 
ATOM     10  O   UNL     1      -0.466   0.963   2.845  0.00  0.00    -0.275 OA
ATOM     11  H   UNL     1      -0.943  -1.343   3.984  0.00  0.00    +0.155 HD
ENDROOT
BRANCH   1  13
ATOM     12  C   UNL     1      -0.358   1.437  -0.022  0.00  0.00    +0.008 C 
ATOM     13  C   UNL     1      -0.260  -0.090  -0.016  0.00  0.00    -0.001 C 
ATOM     14  C   UNL     1       0.452  -0.560  -1.286  0.00  0.00    +0.008 C 
ENDBRANCH   1  13
BRANCH   4  15
ATOM     15  N   UNL     1       1.589  -5.307  -0.129  0.00  0.00    -0.216 N 
ATOM     16  H   UNL     1       1.418  -5.255  -1.082  0.00  0.00    +0.174 HD
BRANCH  15  17
ATOM     17  S   UNL     1       2.520  -6.535   0.479  0.00  0.00    +0.072 S 
ATOM     18  O   UNL     1       1.768  -7.135   1.525  0.00  0.00    -0.150 OA
ATOM     19  O   UNL     1       2.997  -7.274  -0.637  0.00  0.00    -0.150 OA
BRANCH  17  20
ATOM     20  C   UNL     1       3.930  -5.795   1.234  0.00  0.00    +0.109 A 
ATOM     21  C   UNL     1       5.033  -5.469   0.466  0.00  0.00    +0.030 A 
ATOM     22  C   UNL     1       6.139  -4.889   1.058  0.00  0.00    +0.022 A 
ATOM     23  C   UNL     1       6.143  -4.635   2.417  0.00  0.00    +0.041 A 
ATOM     24  C   UNL     1       5.039  -4.961   3.185  0.00  0.00    +0.022 A 
ATOM     25  C   UNL     1       3.931  -5.536   2.591  0.00  0.00    +0.030 A 
ATOM     26 CL   UNL     1       7.532  -3.906   3.161  0.00  0.00    -0.084 Cl
ENDBRANCH  17  20
ENDBRANCH  15  17
ENDBRANCH   4  15
TORSDOF 4
