REMARK  Name = ZINC06281936
REMARK  10 active torsions:
REMARK  status: ('A' for Active; 'I' for Inactive)
REMARK    1  A    between atoms: C_1  and  C_2
REMARK    2  A    between atoms: C_9  and  C_14
REMARK    3  A    between atoms: C_14  and  C_16
REMARK    4  A    between atoms: C_14  and  N_66
REMARK    5  A    between atoms: N_20  and  C_21
REMARK    6  A    between atoms: C_21  and  C_22
REMARK    7  A    between atoms: C_28  and  C_29
REMARK    8  A    between atoms: C_28  and  N_66
REMARK    9  A    between atoms: C_35  and  C_36
REMARK   10  A    between atoms: C_35  and  N_66
REMARK                            x       y       z     vdW  Elec       q    Type
REMARK                         _______ _______ _______ _____ _____    ______ ____
ROOT
ATOM      1  C   UNL     1       4.263   2.796  -1.709  0.00  0.00    +0.040 C 
ENDROOT
BRANCH   1  10
ATOM      2  C   UNL     1      10.103   2.350   2.908  0.00  0.00    +0.044 C 
ATOM      3  C   UNL     1       9.521   2.323   1.518  0.00  0.00    -0.050 A 
ATOM      4  C   UNL     1      10.357   2.124   0.427  0.00  0.00    +0.005 A 
ATOM      5  C   UNL     1       9.847   2.096  -0.853  0.00  0.00    +0.026 A 
ATOM      6  C   UNL     1       8.481   2.268  -1.056  0.00  0.00    +0.049 A 
ATOM      7  C   UNL     1       7.638   2.469   0.053  0.00  0.00    -0.001 A 
ATOM      8  C   UNL     1       8.178   2.494   1.343  0.00  0.00    +0.013 A 
ATOM      9  C   UNL     1       6.202   2.649  -0.171  0.00  0.00    +0.017 A 
ATOM     10  C   UNL     1       5.736   2.614  -1.444  0.00  0.00    +0.011 A 
ATOM     11  C   UNL     1       6.623   2.403  -2.521  0.00  0.00    +0.251 A 
ATOM     12  O   UNL     1       6.183   2.371  -3.657  0.00  0.00    -0.268 OA
ATOM     13  N   UNL     1       7.944   2.243  -2.325  0.00  0.00    -0.322 N 
ATOM     14  H   UNL     1       8.527   2.104  -3.088  0.00  0.00    +0.169 HD
ENDBRANCH   1  10
BRANCH   1  15
ATOM     15  C   UNL     1       3.682   1.503  -2.219  0.00  0.00    +0.143 A 
ATOM     16  N   UNL     1       3.832   0.996  -3.419  0.00  0.00    -0.115 NA
ATOM     17  N   UNL     1       3.184  -0.117  -3.465  0.00  0.00    -0.023 NA
ATOM     18  N   UNL     1       2.629  -0.336  -2.324  0.00  0.00    -0.044 NA
ATOM     19  N   UNL     1       2.908   0.643  -1.531  0.00  0.00    -0.226 N 
BRANCH  19  20
ATOM     20  C   UNL     1       2.470   0.788  -0.141  0.00  0.00    +0.182 C 
BRANCH  20  21
ATOM     21  C   UNL     1       1.159   1.532  -0.102  0.00  0.00    -0.026 A 
ATOM     22  C   UNL     1      -0.033   0.835  -0.162  0.00  0.00    +0.005 A 
ATOM     23  C   UNL     1      -1.235   1.517  -0.131  0.00  0.00    +0.000 A 
ATOM     24  C   UNL     1      -1.244   2.896  -0.031  0.00  0.00    +0.000 A 
ATOM     25  C   UNL     1      -0.052   3.593   0.030  0.00  0.00    +0.000 A 
ATOM     26  C   UNL     1       1.150   2.911  -0.005  0.00  0.00    +0.005 A 
ENDBRANCH  20  21
ENDBRANCH  19  20
ENDBRANCH   1  15
BRANCH   1  27
ATOM     27  N   UNL     1       4.088   3.841  -2.739  0.00  0.00    +0.397 N 
ATOM     28  H   UNL     1       4.613   3.573  -3.580  0.00  0.00    -0.079 HD
BRANCH  27  29
ATOM     29  C   UNL     1       4.607   5.133  -2.242  0.00  0.00    -0.039 C 
BRANCH  29  30
ATOM     30  C   UNL     1       3.824   5.588  -1.038  0.00  0.00    -0.046 A 
ATOM     31  C   UNL     1       2.670   6.343  -1.195  0.00  0.00    +0.005 A 
ATOM     32  C   UNL     1       1.979   6.736  -0.059  0.00  0.00    +0.020 A 
ATOM     33  C   UNL     1       2.465   6.374   1.183  0.00  0.00    +0.111 A 
ATOM     34  N   UNL     1       3.568   5.660   1.295  0.00  0.00    -0.263 NA
ATOM     35  C   UNL     1       4.248   5.265   0.237  0.00  0.00    +0.112 A 
ENDBRANCH  29  30
ENDBRANCH  27  29
BRANCH  27  36
ATOM     36  C   UNL     1       2.658   3.972  -3.088  0.00  0.00    -0.001 C 
BRANCH  36  37
ATOM     37  C   UNL     1       2.541   4.760  -4.367  0.00  0.00    +0.089 A 
ATOM     38  C   UNL     1       2.463   4.242  -5.606  0.00  0.00    +0.042 A 
ATOM     39  C   UNL     1       2.367   5.332  -6.501  0.00  0.00    +0.041 A 
ATOM     40  C   UNL     1       2.393   6.452  -5.755  0.00  0.00    +0.195 A 
ATOM     41  O   UNL     1       2.492   6.099  -4.463  0.00  0.00    -0.470 OA
ENDBRANCH  36  37
ENDBRANCH  27  36
ENDBRANCH   1  27
TORSDOF 9
