REMARK  Name = ZINC16534099
REMARK  8 active torsions:
REMARK  status: ('A' for Active; 'I' for Inactive)
REMARK    1  A    between atoms: C_4  and  C_7
REMARK    2  A    between atoms: C_7  and  C_8
REMARK    3  A    between atoms: C_9  and  C_20
REMARK    4  A    between atoms: C_10  and  O_19
REMARK    5  A    between atoms: N_11  and  C_13
REMARK    6  A    between atoms: N_24  and  C_28
REMARK    7  A    between atoms: C_28  and  C_29
REMARK    8  A    between atoms: C_32  and  C_35
REMARK                            x       y       z     vdW  Elec       q    Type
REMARK                         _______ _______ _______ _____ _____    ______ ____
ROOT
ATOM      1  C   UNL     1      -2.113   3.890   6.349  0.00  0.00    +0.079 A 
ATOM      2  C   UNL     1      -2.375   3.704   4.970  0.00  0.00    +0.062 A 
ATOM      3  C   UNL     1      -3.733   3.418   4.850  0.00  0.00    +0.223 A 
ATOM      4  N   UNL     1      -4.255   3.439   6.096  0.00  0.00    -0.200 N 
ATOM      5  N   UNL     1      -3.232   3.737   7.001  0.00  0.00    -0.167 NA
ENDROOT
BRANCH   2   6
ATOM      6  C   UNL     1      -1.403   3.789   3.879  0.00  0.00    +0.043 C 
ATOM      7  C   UNL     1      -1.320   2.788   2.962  0.00  0.00    +0.099 C 
ATOM      8  C   UNL     1      -0.435   2.714   1.854  0.00  0.00    +0.269 C 
ATOM      9  O   UNL     1       0.403   3.540   1.540  0.00  0.00    -0.268 OA
ATOM     10  N   UNL     1      -0.698   1.558   1.213  0.00  0.00    -0.216 N 
ATOM     11  C   UNL     1      -1.682   0.903   1.851  0.00  0.00    +0.313 C 
ATOM     12  O   UNL     1      -2.137  -0.174   1.514  0.00  0.00    -0.252 OA
ATOM     13  N   UNL     1      -2.089   1.614   2.920  0.00  0.00    -0.265 N 
ATOM     14  H   UNL     1      -2.787   1.361   3.545  0.00  0.00    +0.157 HD
BRANCH  10  15
ATOM     15  C   UNL     1      -0.013   1.086   0.008  0.00  0.00    +0.153 C 
BRANCH  15  16
ATOM     16  C   UNL     1      -0.742   1.585  -1.213  0.00  0.00    -0.029 A 
ATOM     17  C   UNL     1      -1.750   0.821  -1.773  0.00  0.00    +0.006 A 
ATOM     18  C   UNL     1      -2.425   1.274  -2.888  0.00  0.00    +0.019 A 
ATOM     19  C   UNL     1      -2.080   2.502  -3.457  0.00  0.00    +0.052 A 
ATOM     20  C   UNL     1      -1.058   3.265  -2.890  0.00  0.00    +0.019 A 
ATOM     21  C   UNL     1      -0.395   2.802  -1.772  0.00  0.00    +0.006 A 
BRANCH  19  22
ATOM     22  C   UNL     1      -2.773   2.976  -4.617  0.00  0.00    +0.099 C 
ATOM     23  N   UNL     1      -3.322   3.353  -5.537  0.00  0.00    -0.191 NA
ENDBRANCH  19  22
ENDBRANCH  15  16
ENDBRANCH  10  15
ENDBRANCH   2   6
BRANCH   4  24
ATOM     24  C   UNL     1      -5.597   3.202   6.425  0.00  0.00    +0.069 A 
ATOM     25  C   UNL     1      -6.608   3.624   5.572  0.00  0.00    +0.028 A 
ATOM     26  C   UNL     1      -7.928   3.386   5.898  0.00  0.00    +0.002 A 
ATOM     27  C   UNL     1      -8.245   2.737   7.077  0.00  0.00    +0.000 A 
ATOM     28  C   UNL     1      -7.241   2.320   7.931  0.00  0.00    +0.002 A 
ATOM     29  C   UNL     1      -5.918   2.551   7.609  0.00  0.00    +0.028 A 
ENDBRANCH   4  24
BRANCH   3  30
ATOM     30  O   UNL     1      -4.404   3.166   3.701  0.00  0.00    -0.492 OA
ATOM     31  H   UNL     1      -4.425   2.231   3.455  0.00  0.00    +0.294 HD
ENDBRANCH   3  30
BRANCH   1  32
ATOM     32  C   UNL     1      -0.773   4.214   6.958  0.00  0.00    +0.093 C 
BRANCH  32  36
ATOM     33  C   UNL     1      -0.283   8.454   7.149  0.00  0.00    +0.000 A 
ATOM     34  C   UNL     1      -0.859   7.776   8.207  0.00  0.00    +0.000 A 
ATOM     35  C   UNL     1      -1.018   6.404   8.146  0.00  0.00    +0.004 A 
ATOM     36  C   UNL     1      -0.600   5.710   7.026  0.00  0.00    -0.042 A 
ATOM     37  C   UNL     1      -0.019   6.387   5.970  0.00  0.00    +0.004 A 
ATOM     38  C   UNL     1       0.135   7.759   6.029  0.00  0.00    +0.000 A 
ENDBRANCH  32  36
ENDBRANCH   1  32
TORSDOF 8
