REMARK  Name = ZINC26474456
REMARK  7 active torsions:
REMARK  status: ('A' for Active; 'I' for Inactive)
REMARK    1  A    between atoms: C_1  and  C_2
REMARK    2  A    between atoms: N_11  and  C_14
REMARK    3  A    between atoms: C_14  and  C_15
REMARK    4  A    between atoms: C_15  and  C_16
REMARK    5  A    between atoms: C_27  and  C_36
REMARK    6  A    between atoms: C_28  and  C_29
REMARK    7  A    between atoms: C_32  and  O_35
REMARK                            x       y       z     vdW  Elec       q    Type
REMARK                         _______ _______ _______ _____ _____    ______ ____
ROOT
ATOM      1  C   UNL     1       8.906   4.948  -2.436  0.00  0.00    +0.194 C 
ATOM      2  C   UNL     1       8.977   5.837  -3.687  0.00  0.00    +0.167 C 
ATOM      3  N   UNL     1      10.349   6.351  -3.799  0.00  0.00    -0.333 N 
ATOM      4  C   UNL     1      11.369   5.642  -3.206  0.00  0.00    +0.092 A 
ATOM      5  C   UNL     1      12.590   6.293  -3.427  0.00  0.00    +0.007 A 
ATOM      6  C   UNL     1      13.757   5.726  -2.900  0.00  0.00    +0.010 A 
ATOM      7  C   UNL     1      13.614   4.554  -2.192  0.00  0.00    +0.004 A 
ATOM      8  C   UNL     1      12.391   3.921  -1.981  0.00  0.00    +0.048 A 
ATOM      9  C   UNL     1      11.228   4.452  -2.486  0.00  0.00    +0.145 A 
ATOM     10  O   UNL     1       9.964   3.981  -2.387  0.00  0.00    -0.485 OA
ATOM     11  C   UNL     1      12.251   7.465  -4.204  0.00  0.00    -0.017 A 
ATOM     12  C   UNL     1      10.892   7.450  -4.398  0.00  0.00    +0.053 A 
ATOM     13  C   UNL     1      13.212   8.510  -4.710  0.00  0.00    +0.046 C 
ENDROOT
BRANCH  12  14
ATOM     14  C   UNL     1      10.129   8.473  -5.145  0.00  0.00    -0.001 A 
ATOM     15  C   UNL     1       9.156   8.085  -6.067  0.00  0.00    +0.013 A 
ATOM     16  C   UNL     1       8.442   9.042  -6.757  0.00  0.00    +0.046 A 
ATOM     17  C   UNL     1       8.700  10.390  -6.545  0.00  0.00    +0.117 A 
ATOM     18  C   UNL     1       9.671  10.780  -5.633  0.00  0.00    +0.046 A 
ATOM     19  C   UNL     1      10.384   9.829  -4.934  0.00  0.00    +0.013 A 
BRANCH  17  20
ATOM     20  O   UNL     1       7.999  11.330  -7.231  0.00  0.00    -0.507 OA
ATOM     21  H   UNL     1       8.202  12.398  -7.064  0.00  0.00    +0.292 HD
ENDBRANCH  17  20
ENDBRANCH  12  14
BRANCH   1  22
ATOM     22  C   UNL     1       7.564   4.214  -2.427  0.00  0.00    +0.061 C 
BRANCH  22  23
ATOM     23  C   UNL     1       7.408   3.451  -1.110  0.00  0.00    +0.088 C 
BRANCH  23  34
ATOM     24  C   UNL     1      -1.288  -0.783   0.010  0.00  0.00    +0.045 C 
ATOM     25  C   UNL     1       0.002  -0.004   0.002  0.00  0.00    -0.034 A 
ATOM     26  C   UNL     1      -0.017   1.385   0.010  0.00  0.00    +0.008 A 
ATOM     27  C   UNL     1       1.189   2.061   0.002  0.00  0.00    +0.042 A 
ATOM     28  C   UNL     1       2.374   1.332  -0.013  0.00  0.00    +0.099 A 
ATOM     29  N   UNL     1       2.350   0.008  -0.020  0.00  0.00    -0.349 N 
ATOM     30  C   UNL     1       1.214  -0.664  -0.013  0.00  0.00    +0.087 A 
ATOM     31  N   UNL     1       3.594   1.999  -0.021  0.00  0.00    -0.314 N 
ATOM     32  C   UNL     1       3.679   2.927  -1.157  0.00  0.00    +0.122 C 
ATOM     33  C   UNL     1       4.999   3.697  -1.086  0.00  0.00    +0.103 C 
ATOM     34  N   UNL     1       6.120   2.747  -1.101  0.00  0.00    -0.299 NA
ATOM     35  C   UNL     1       6.035   1.818   0.035  0.00  0.00    +0.103 C 
ATOM     36  C   UNL     1       4.714   1.048  -0.037  0.00  0.00    +0.122 C 
ATOM     37  H   UNL     1       3.293  -0.559  -0.032  0.00  0.00    +0.167 HD
ENDBRANCH  23  34
ENDBRANCH  22  23
ENDBRANCH   1  22
TORSDOF 5
