REMARK  Name = ZINC38552859
REMARK  4 active torsions:
REMARK  status: ('A' for Active; 'I' for Inactive)
REMARK    1  A    between atoms: C_6  and  C_7
REMARK    2  A    between atoms: C_19  and  C_21
REMARK    3  A    between atoms: C_21  and  O_22
REMARK    4  A    between atoms: O_22  and  C_23
REMARK                            x       y       z     vdW  Elec       q    Type
REMARK                         _______ _______ _______ _____ _____    ______ ____
ROOT
ATOM      1  C   UNL     1      -1.233  -0.851  -0.022  0.00  0.00    +0.079 C 
ATOM      2  N   UNL     1      -2.341  -0.219  -0.204  0.00  0.00    -0.176 NA
ATOM      3  N   UNL     1      -3.531  -0.653  -0.152  0.00  0.00    -0.258 N 
ATOM      4  C   UNL     1      -3.908  -1.764   0.446  0.00  0.00    +0.151 C 
ATOM      5  S   UNL     1      -2.669  -2.738   1.255  0.00  0.00    -0.085 S 
ATOM      6  C   UNL     1      -1.187  -2.334   0.267  0.00  0.00    +0.134 C 
ATOM      7  N   UNL     1      -5.223  -2.157   0.442  0.00  0.00    -0.307 N 
ATOM      8  C   UNL     1      -6.288  -1.203   0.100  0.00  0.00    +0.126 C 
ATOM      9  C   UNL     1      -7.115  -1.785  -1.053  0.00  0.00    +0.127 C 
ATOM     10  N   UNL     1      -7.484  -3.167  -0.715  0.00  0.00    -0.296 N 
ATOM     11  C   UNL     1      -6.420  -4.121  -0.372  0.00  0.00    +0.127 C 
ATOM     12  C   UNL     1      -5.592  -3.540   0.775  0.00  0.00    +0.126 C 
ATOM     13  C   UNL     1      -8.776  -3.552  -0.718  0.00  0.00    +0.253 C 
ATOM     14  O   UNL     1      -9.646  -2.756  -1.002  0.00  0.00    -0.272 OA
ATOM     15  H   UNL     1      -4.218  -0.124  -0.587  0.00  0.00    +0.191 HD
ENDROOT
BRANCH   1  21
ATOM     16  C   UNL     1       0.021   1.269  -0.370  0.00  0.00    +0.011 A 
ATOM     17  C   UNL     1       1.211   1.962  -0.445  0.00  0.00    +0.020 A 
ATOM     18  C   UNL     1       2.414   1.302  -0.259  0.00  0.00    +0.041 A 
ATOM     19  C   UNL     1       2.432  -0.057   0.005  0.00  0.00    +0.020 A 
ATOM     20  C   UNL     1       1.251  -0.764   0.083  0.00  0.00    +0.011 A 
ATOM     21  C   UNL     1       0.032  -0.104  -0.104  0.00  0.00    -0.001 A 
ATOM     22 CL   UNL     1       3.907   2.184  -0.355  0.00  0.00    -0.084 Cl
ENDBRANCH   1  21
BRANCH  13  23
ATOM     23  C   UNL     1      -9.139  -4.973  -0.369  0.00  0.00    +0.324 C 
BRANCH  23  24
ATOM     24  O   UNL     1     -10.557  -5.133  -0.443  0.00  0.00    -0.481 OA
BRANCH  24  25
ATOM     25  C   UNL     1     -11.055  -6.365  -0.155  0.00  0.00    +0.140 A 
ATOM     26  C   UNL     1     -10.196  -7.396   0.196  0.00  0.00    +0.048 A 
ATOM     27  C   UNL     1     -10.703  -8.648   0.488  0.00  0.00    +0.023 A 
ATOM     28  C   UNL     1     -12.067  -8.873   0.430  0.00  0.00    +0.043 A 
ATOM     29  C   UNL     1     -12.926  -7.847   0.080  0.00  0.00    +0.043 A 
ATOM     30  C   UNL     1     -12.423  -6.592  -0.207  0.00  0.00    +0.084 A 
ATOM     31 CL   UNL     1     -13.502  -5.302  -0.640  0.00  0.00    -0.080 Cl
ATOM     32 CL   UNL     1     -12.701 -10.447   0.797  0.00  0.00    -0.083 Cl
ENDBRANCH  24  25
ENDBRANCH  23  24
ENDBRANCH  13  23
TORSDOF 4
