REMARK  Name = ZINC16607352
REMARK  10 active torsions:
REMARK  status: ('A' for Active; 'I' for Inactive)
REMARK    1  A    between atoms: C_1  and  C_2
REMARK    2  A    between atoms: N_4  and  C_35
REMARK    3  A    between atoms: C_7  and  C_9
REMARK    4  A    between atoms: C_9  and  C_12
REMARK    5  A    between atoms: N_10  and  O_11
REMARK    6  A    between atoms: C_15  and  C_18
REMARK    7  A    between atoms: C_18  and  C_21
REMARK    8  A    between atoms: N_19  and  O_20
REMARK    9  A    between atoms: N_25  and  C_29
REMARK   10  A    between atoms: C_27  and  C_28
REMARK                            x       y       z     vdW  Elec       q    Type
REMARK                         _______ _______ _______ _____ _____    ______ ____
ROOT
ATOM      1  C   UNL     1      -1.682  -1.375   3.177  0.00  0.00    +0.001 A 
ATOM      2  C   UNL     1      -0.755  -1.954   4.047  0.00  0.00    +0.010 A 
ATOM      3  C   UNL     1      -1.182  -2.546   5.214  0.00  0.00    +0.010 A 
ATOM      4  C   UNL     1      -2.544  -2.568   5.528  0.00  0.00    +0.001 A 
ATOM      5  C   UNL     1      -3.471  -1.988   4.657  0.00  0.00    +0.010 A 
ATOM      6  C   UNL     1      -3.043  -1.393   3.493  0.00  0.00    +0.010 A 
ENDROOT
BRANCH   1   7
ATOM      7  C   UNL     1      -1.224  -0.741   1.926  0.00  0.00    +0.104 C 
ATOM      8  N   UNL     1      -1.844   0.295   1.461  0.00  0.00    -0.090 NA
BRANCH   7  15
ATOM      9  C   UNL     1       0.752   1.025   0.069  0.00  0.00    +0.063 C 
ATOM     10  C   UNL     1       0.325  -0.419   0.011  0.00  0.00    +0.052 C 
ATOM     11  N   UNL     1       0.204  -1.131  -1.041  0.00  0.00    -0.181 NA
ATOM     12  N   UNL     1      -0.208  -2.433  -0.775  0.00  0.00    -0.160 N 
ATOM     13  C   UNL     1      -0.380  -2.628   0.549  0.00  0.00    +0.254 C 
ATOM     14  O   UNL     1      -0.732  -3.647   1.105  0.00  0.00    -0.272 OA
ATOM     15  C   UNL     1      -0.033  -1.299   1.190  0.00  0.00    +0.175 C 
BRANCH  12  16
ATOM     16  C   UNL     1      -0.416  -3.413  -1.754  0.00  0.00    +0.060 A 
ATOM     17  C   UNL     1      -0.834  -4.685  -1.387  0.00  0.00    +0.025 A 
ATOM     18  C   UNL     1      -1.039  -5.649  -2.354  0.00  0.00    +0.002 A 
ATOM     19  C   UNL     1      -0.828  -5.348  -3.688  0.00  0.00    +0.000 A 
ATOM     20  C   UNL     1      -0.411  -4.082  -4.056  0.00  0.00    +0.002 A 
ATOM     21  C   UNL     1      -0.211  -3.112  -3.094  0.00  0.00    +0.025 A 
ENDBRANCH  12  16
ENDBRANCH   7  15
BRANCH   8  22
ATOM     22  O   UNL     1      -2.879   0.899   2.216  0.00  0.00    -0.409 OA
ATOM     23  H   UNL     1      -3.283   1.666   1.788  0.00  0.00    +0.328 HD
ENDBRANCH   8  22
ENDBRANCH   1   7
BRANCH   4  24
ATOM     24  C   UNL     1      -3.002  -3.203   6.778  0.00  0.00    +0.104 C 
ATOM     25  N   UNL     1      -4.016  -2.716   7.418  0.00  0.00    -0.090 NA
BRANCH  24  26
ATOM     26  C   UNL     1      -2.290  -4.420   7.309  0.00  0.00    +0.175 C 
ATOM     27  C   UNL     1      -2.522  -5.614   6.402  0.00  0.00    +0.254 C 
ATOM     28  O   UNL     1      -2.206  -5.728   5.237  0.00  0.00    -0.272 OA
ATOM     29  N   UNL     1      -3.156  -6.521   7.174  0.00  0.00    -0.160 N 
ATOM     30  N   UNL     1      -3.350  -6.035   8.463  0.00  0.00    -0.181 NA
ATOM     31  C   UNL     1      -2.889  -4.854   8.631  0.00  0.00    +0.052 C 
ATOM     32  C   UNL     1      -2.933  -4.044   9.902  0.00  0.00    +0.063 C 
BRANCH  29  33
ATOM     33  C   UNL     1      -3.567  -7.785   6.735  0.00  0.00    +0.060 A 
ATOM     34  C   UNL     1      -3.322  -8.181   5.426  0.00  0.00    +0.025 A 
ATOM     35  C   UNL     1      -3.727  -9.429   4.996  0.00  0.00    +0.002 A 
ATOM     36  C   UNL     1      -4.377 -10.285   5.867  0.00  0.00    +0.000 A 
ATOM     37  C   UNL     1      -4.622  -9.894   7.170  0.00  0.00    +0.002 A 
ATOM     38  C   UNL     1      -4.214  -8.649   7.608  0.00  0.00    +0.025 A 
ENDBRANCH  29  33
ENDBRANCH  24  26
BRANCH  25  39
ATOM     39  O   UNL     1      -4.609  -1.505   6.986  0.00  0.00    -0.409 OA
ATOM     40  H   UNL     1      -5.359  -1.220   7.526  0.00  0.00    +0.328 HD
ENDBRANCH  25  39
ENDBRANCH   4  24
TORSDOF 8
