REMARK  Name = ZINC63614385
REMARK  7 active torsions:
REMARK  status: ('A' for Active; 'I' for Inactive)
REMARK    1  A    between atoms: C_1  and  O_2
REMARK    2  A    between atoms: O_2  and  C_3
REMARK    3  A    between atoms: C_6  and  C_25
REMARK    4  A    between atoms: C_8  and  C_9
REMARK    5  A    between atoms: C_9  and  N_10
REMARK    6  A    between atoms: N_13  and  C_16
REMARK    7  A    between atoms: C_19  and  N_22
REMARK                            x       y       z     vdW  Elec       q    Type
REMARK                         _______ _______ _______ _____ _____    ______ ____
ROOT
ATOM      1  C   UNL     1      -1.196  -0.649   0.017  0.00  0.00    +0.124 A 
ATOM      2  C   UNL     1      -2.366   0.061   0.243  0.00  0.00    +0.046 A 
ATOM      3  C   UNL     1      -3.580  -0.598   0.260  0.00  0.00    +0.009 A 
ATOM      4  C   UNL     1      -3.629  -1.964   0.050  0.00  0.00    -0.028 A 
ATOM      5  C   UNL     1      -2.464  -2.674  -0.175  0.00  0.00    +0.013 A 
ATOM      6  C   UNL     1      -1.248  -2.018  -0.197  0.00  0.00    +0.009 A 
ENDROOT
BRANCH   4   7
ATOM      7  C   UNL     1      -4.955  -2.681   0.068  0.00  0.00    +0.111 C 
ATOM      8  C   UNL     1      -5.694  -2.366   1.371  0.00  0.00    +0.128 C 
ATOM      9  C   UNL     1      -6.029  -0.880   1.323  0.00  0.00    -0.035 C 
ATOM     10  C   UNL     1      -5.542  -0.349   2.437  0.00  0.00    -0.001 A 
ATOM     11  C   UNL     1      -5.623   1.011   2.993  0.00  0.00    +0.010 A 
ATOM     12  C   UNL     1      -4.983   1.214   4.175  0.00  0.00    +0.001 A 
ATOM     13  C   UNL     1      -4.278   0.213   4.850  0.00  0.00    +0.002 A 
ATOM     14  C   UNL     1      -4.156  -1.066   4.415  0.00  0.00    +0.026 A 
ATOM     15  C   UNL     1      -4.792  -1.404   3.185  0.00  0.00    +0.043 A 
ATOM     16  N   UNL     1      -4.856  -2.561   2.554  0.00  0.00    -0.376 N 
ATOM     17  C   UNL     1      -6.699  -0.258   0.122  0.00  0.00    +0.048 C 
ATOM     18  C   UNL     1      -5.926  -0.761  -1.110  0.00  0.00    +0.086 C 
ATOM     19  N   UNL     1      -5.783  -2.219  -1.057  0.00  0.00    -0.307 NA
ATOM     20  H   UNL     1      -5.438  -2.582  -1.933  0.00  0.00    +0.123 HD
ATOM     21  H   UNL     1      -4.427  -3.390   2.815  0.00  0.00    +0.160 HD
ENDBRANCH   4   7
BRANCH   1  23
ATOM     22  C   UNL     1      -0.022   1.408   0.229  0.00  0.00    +0.277 C 
ATOM     23  O   UNL     1      -0.000  -0.003   0.001  0.00  0.00    -0.495 OA
ENDBRANCH   1  23
BRANCH   6  24
ATOM     24  C   UNL     1       0.021  -2.791  -0.449  0.00  0.00    +0.123 C 
BRANCH  24  25
ATOM     25  N   UNL     1       0.491  -2.529  -1.816  0.00  0.00    -0.295 NA
ATOM     26  C   UNL     1      -0.453  -3.060  -2.808  0.00  0.00    +0.103 C 
ATOM     27  C   UNL     1      -0.022  -2.611  -4.209  0.00  0.00    +0.120 C 
ATOM     28  N   UNL     1       1.381  -3.001  -4.414  0.00  0.00    -0.327 N 
ATOM     29  C   UNL     1       2.365  -2.622  -3.389  0.00  0.00    +0.120 C 
ATOM     30  C   UNL     1       1.841  -3.071  -2.021  0.00  0.00    +0.103 C 
BRANCH  28  31
ATOM     31  C   UNL     1       1.768  -3.712  -5.552  0.00  0.00    +0.030 A 
ATOM     32  C   UNL     1       0.851  -3.954  -6.567  0.00  0.00    +0.025 A 
ATOM     33  C   UNL     1       1.237  -4.657  -7.691  0.00  0.00    +0.034 A 
ATOM     34  C   UNL     1       2.535  -5.121  -7.806  0.00  0.00    +0.126 A 
ATOM     35  C   UNL     1       3.450  -4.883  -6.797  0.00  0.00    +0.034 A 
ATOM     36  C   UNL     1       3.072  -4.175  -5.673  0.00  0.00    +0.025 A 
BRANCH  34  37
ATOM     37  N   UNL     1       2.945  -5.876  -9.012  0.00  0.00    +0.056 N 
ATOM     38  O   UNL     1       2.146  -6.085  -9.895  0.00  0.00    -0.126 OA
ATOM     39  O   UNL     1       4.079  -6.282  -9.114  0.00  0.00    -0.126 OA
ENDBRANCH  34  37
ENDBRANCH  28  31
ENDBRANCH  24  25
ENDBRANCH   6  24
TORSDOF 6
