REMARK  Name = ZINC12283467
REMARK  10 active torsions:
REMARK  status: ('A' for Active; 'I' for Inactive)
REMARK    1  A    between atoms: C_1  and  C_2
REMARK    2  A    between atoms: C_5  and  C_34
REMARK    3  A    between atoms: C_6  and  C_8
REMARK    4  A    between atoms: C_8  and  N_60
REMARK    5  A    between atoms: C_10  and  N_19
REMARK    6  A    between atoms: C_13  and  C_15
REMARK    7  A    between atoms: C_15  and  O_17
REMARK    8  A    between atoms: O_17  and  C_18
REMARK    9  A    between atoms: C_20  and  C_22
REMARK   10  A    between atoms: C_23  and  C_33
REMARK                            x       y       z     vdW  Elec       q    Type
REMARK                         _______ _______ _______ _____ _____    ______ ____
ROOT
ATOM      1  C   UNL     1       4.005   1.409  -1.095  0.00  0.00    -0.055 C 
ATOM      2  C   UNL     1       3.690   2.490  -2.146  0.00  0.00    +0.056 C 
ATOM      3  C   UNL     1       2.156   2.670  -2.092  0.00  0.00    +0.016 C 
ATOM      4  C   UNL     1       1.793   2.136  -0.684  0.00  0.00    +0.045 C 
ATOM      5  N   UNL     1       2.713   1.004  -0.530  0.00  0.00    +0.392 N 
ATOM      6  H   UNL     1       2.350   0.191  -1.041  0.00  0.00    -0.080 HD
ENDROOT
BRANCH   2   7
ATOM      7  N   UNL     1       4.362   3.746  -1.801  0.00  0.00    -0.309 N 
ATOM      8  C   UNL     1       5.630   3.964  -2.201  0.00  0.00    +0.261 C 
ATOM      9  O   UNL     1       6.218   3.118  -2.848  0.00  0.00    -0.269 OA
ATOM     10  H   UNL     1       3.893   4.420  -1.284  0.00  0.00    +0.149 HD
BRANCH   8  11
ATOM     11  C   UNL     1       6.304   5.224  -1.855  0.00  0.00    +0.106 A 
ATOM     12  C   UNL     1       7.575   5.558  -2.199  0.00  0.00    -0.013 A 
ATOM     13  C   UNL     1       7.840   6.847  -1.675  0.00  0.00    +0.005 A 
ATOM     14  C   UNL     1       8.959   7.689  -1.712  0.00  0.00    +0.030 A 
ATOM     15  C   UNL     1       8.911   8.908  -1.097  0.00  0.00    +0.042 A 
ATOM     16  C   UNL     1       7.761   9.322  -0.435  0.00  0.00    +0.022 A 
ATOM     17  C   UNL     1       6.649   8.512  -0.387  0.00  0.00    +0.027 A 
ATOM     18  C   UNL     1       6.673   7.265  -1.005  0.00  0.00    +0.047 A 
ATOM     19  N   UNL     1       5.744   6.260  -1.132  0.00  0.00    -0.350 N 
ATOM     20  H   UNL     1       4.843   6.274  -0.772  0.00  0.00    +0.166 HD
ATOM     21 CL   UNL     1      10.300   9.948  -1.144  0.00  0.00    -0.084 Cl
ATOM     22  C   UNL     1       8.532   4.709  -2.996  0.00  0.00    +0.047 C 
ENDBRANCH   8  11
ENDBRANCH   2   7
BRANCH   4  23
ATOM     23  C   UNL     1       0.358   1.679  -0.641  0.00  0.00    +0.293 C 
ATOM     24  O   UNL     1       0.101   0.509  -0.481  0.00  0.00    -0.253 OA
BRANCH  23  25
ATOM     25  O   UNL     1      -0.635   2.570  -0.787  0.00  0.00    -0.469 OA
ATOM     26  C   UNL     1      -1.993   2.058  -0.741  0.00  0.00    +0.280 C 
ENDBRANCH  23  25
ENDBRANCH   4  23
BRANCH   5  27
ATOM     27  C   UNL     1       2.870   0.646   0.912  0.00  0.00    -0.042 C 
BRANCH  27  33
ATOM     28  C   UNL     1       7.252  -1.499   2.027  0.00  0.00    +0.044 C 
ATOM     29  C   UNL     1       5.818  -1.616   1.577  0.00  0.00    -0.050 A 
ATOM     30  C   UNL     1       5.285  -2.858   1.285  0.00  0.00    +0.003 A 
ATOM     31  C   UNL     1       3.970  -2.966   0.873  0.00  0.00    +0.004 A 
ATOM     32  C   UNL     1       3.187  -1.832   0.756  0.00  0.00    -0.049 A 
ATOM     33  C   UNL     1       3.722  -0.590   1.044  0.00  0.00    -0.061 A 
ATOM     34  C   UNL     1       5.037  -0.483   1.457  0.00  0.00    +0.005 A 
ATOM     35  C   UNL     1       1.752  -1.950   0.312  0.00  0.00    +0.044 C 
ENDBRANCH  27  33
ENDBRANCH   5  27
TORSDOF 6
