REMARK  Name = ZINC65116104
REMARK  11 active torsions:
REMARK  status: ('A' for Active; 'I' for Inactive)
REMARK    1  A    between atoms: C_1  and  C_2
REMARK    2  A    between atoms: C_2  and  C_3
REMARK    3  A    between atoms: C_4  and  C_12
REMARK    4  A    between atoms: C_5  and  N_8
REMARK    5  A    between atoms: C_9  and  C_11
REMARK    6  A    between atoms: C_15  and  O_30
REMARK    7  A    between atoms: C_16  and  S_18
REMARK    8  A    between atoms: S_18  and  N_21
REMARK    9  A    between atoms: N_21  and  C_22
REMARK   10  A    between atoms: C_27  and  C_28
REMARK   11  A    between atoms: O_30  and  C_31
REMARK                            x       y       z     vdW  Elec       q    Type
REMARK                         _______ _______ _______ _____ _____    ______ ____
ROOT
ATOM      1  C   UNL     1      -1.659  -0.911  -2.659  0.00  0.00    -0.009 A 
ATOM      2  C   UNL     1      -2.653  -1.785  -2.220  0.00  0.00    +0.012 A 
ATOM      3  C   UNL     1      -3.946  -1.643  -2.678  0.00  0.00    +0.048 A 
ATOM      4  C   UNL     1      -4.258  -0.630  -3.576  0.00  0.00    +0.147 A 
ATOM      5  C   UNL     1      -3.271   0.240  -4.015  0.00  0.00    +0.150 A 
ATOM      6  C   UNL     1      -1.977   0.107  -3.556  0.00  0.00    +0.041 A 
ENDROOT
BRANCH   1   8
ATOM      7  C   UNL     1       0.171  -0.894  -0.836  0.00  0.00    +0.093 A 
ATOM      8  C   UNL     1      -0.267  -1.061  -2.168  0.00  0.00    +0.067 A 
ATOM      9  C   UNL     1       0.835  -1.390  -2.928  0.00  0.00    +0.232 A 
ATOM     10  O   UNL     1       1.897  -1.424  -2.106  0.00  0.00    -0.338 OA
ATOM     11  N   UNL     1       1.455  -1.104  -0.800  0.00  0.00    -0.080 NA
BRANCH   9  12
ATOM     12  N   UNL     1       0.846  -1.640  -4.290  0.00  0.00    -0.254 N 
ATOM     13  C   UNL     1       2.002  -1.953  -4.909  0.00  0.00    +0.216 C 
ATOM     14  O   UNL     1       3.032  -2.014  -4.274  0.00  0.00    -0.276 OA
ATOM     15  C   UNL     1       2.013  -2.225  -6.391  0.00  0.00    +0.109 C 
ATOM     16  H   UNL     1       0.021  -1.591  -4.799  0.00  0.00    +0.158 HD
ENDBRANCH   9  12
BRANCH   7  18
ATOM     17  C   UNL     1      -0.755   0.993   0.480  0.00  0.00    +0.010 C 
ATOM     18  C   UNL     1      -0.698  -0.529   0.341  0.00  0.00    +0.056 C 
ENDBRANCH   7  18
ENDBRANCH   1   8
BRANCH   5  19
ATOM     19  S   UNL     1      -3.673   1.523  -5.154  0.00  0.00    +0.076 S 
ATOM     20  O   UNL     1      -4.817   2.185  -4.634  0.00  0.00    -0.150 OA
ATOM     21  O   UNL     1      -2.460   2.208  -5.439  0.00  0.00    -0.150 OA
BRANCH  19  22
ATOM     22  N   UNL     1      -4.147   0.795  -6.564  0.00  0.00    -0.216 N 
ATOM     23  H   UNL     1      -5.038   0.953  -6.915  0.00  0.00    +0.174 HD
BRANCH  22  24
ATOM     24  C   UNL     1      -3.266  -0.047  -7.247  0.00  0.00    +0.051 A 
ATOM     25  C   UNL     1      -1.906   0.237  -7.266  0.00  0.00    +0.026 A 
ATOM     26  C   UNL     1      -1.037  -0.597  -7.941  0.00  0.00    +0.022 A 
ATOM     27  C   UNL     1      -1.520  -1.716  -8.598  0.00  0.00    +0.041 A 
ATOM     28  C   UNL     1      -2.873  -2.002  -8.580  0.00  0.00    +0.025 A 
ATOM     29  C   UNL     1      -3.746  -1.174  -7.902  0.00  0.00    -0.027 A 
ATOM     30  C   UNL     1      -5.220  -1.489  -7.878  0.00  0.00    +0.046 C 
ATOM     31 CL   UNL     1      -0.424  -2.762  -9.446  0.00  0.00    -0.084 Cl
ENDBRANCH  22  24
ENDBRANCH  19  22
ENDBRANCH   5  19
BRANCH   4  32
ATOM     32  O   UNL     1      -5.533  -0.493  -4.026  0.00  0.00    -0.493 OA
ATOM     33  C   UNL     1      -6.499  -1.424  -3.533  0.00  0.00    +0.277 C 
ENDBRANCH   4  32
TORSDOF 7
