REMARK  Name = ZINC09808535
REMARK  9 active torsions:
REMARK  status: ('A' for Active; 'I' for Inactive)
REMARK    1  A    between atoms: C_1  and  C_2
REMARK    2  A    between atoms: C_2  and  O_3
REMARK    3  A    between atoms: O_3  and  C_4
REMARK    4  A    between atoms: C_4  and  C_6
REMARK    5  A    between atoms: C_12  and  C_14
REMARK    6  A    between atoms: C_12  and  C_22
REMARK    7  A    between atoms: C_12  and  N_56
REMARK    8  A    between atoms: C_23  and  O_35
REMARK    9  A    between atoms: C_28  and  C_30
REMARK                            x       y       z     vdW  Elec       q    Type
REMARK                         _______ _______ _______ _____ _____    ______ ____
ROOT
ATOM      1  C   UNL     1      -0.740   1.453   8.533  0.00  0.00    +0.007 C 
ENDROOT
BRANCH   1   2
ATOM      2  C   UNL     1       0.143   0.699   9.493  0.00  0.00    -0.038 A 
ATOM      3  C   UNL     1       1.472   0.477   9.182  0.00  0.00    +0.005 A 
ATOM      4  C   UNL     1       2.282  -0.214  10.062  0.00  0.00    +0.020 A 
ATOM      5  C   UNL     1       1.764  -0.686  11.256  0.00  0.00    +0.042 A 
ATOM      6  C   UNL     1       0.435  -0.465  11.568  0.00  0.00    +0.040 A 
ATOM      7  C   UNL     1      -0.374   0.233  10.689  0.00  0.00    +0.044 A 
ATOM      8 CL   UNL     1      -2.041   0.518  11.083  0.00  0.00    -0.083 Cl
ATOM      9 CL   UNL     1       2.783  -1.555  12.361  0.00  0.00    -0.083 Cl
ENDBRANCH   1   2
BRANCH   1  10
ATOM     10  C   UNL     1      -0.729   2.918   8.885  0.00  0.00    +0.045 A 
ATOM     11  C   UNL     1      -1.725   3.684   9.344  0.00  0.00    +0.225 A 
ATOM     12  N   UNL     1      -1.520   5.015   9.614  0.00  0.00    -0.173 N 
ATOM     13  C   UNL     1      -0.267   5.511   9.383  0.00  0.00    +0.199 A 
ATOM     14  S   UNL     1       0.618   4.089   8.791  0.00  0.00    -0.050 S 
ATOM     15  N   UNL     1      -0.234   6.780   9.681  0.00  0.00    -0.197 NA
ATOM     16  C   UNL     1      -1.443   7.165  10.113  0.00  0.00    +0.218 A 
ATOM     17  N   UNL     1      -2.256   6.130  10.091  0.00  0.00    -0.138 NA
BRANCH  16  18
ATOM     18  C   UNL     1      -1.805   8.531  10.545  0.00  0.00    +0.173 A 
ATOM     19  C   UNL     1      -0.973   9.606  10.572  0.00  0.00    +0.053 A 
ATOM     20  C   UNL     1      -1.731  10.694  11.047  0.00  0.00    +0.042 A 
ATOM     21  C   UNL     1      -2.975  10.235  11.284  0.00  0.00    +0.196 A 
ATOM     22  O   UNL     1      -3.018   8.929  10.975  0.00  0.00    -0.460 OA
ENDBRANCH  16  18
BRANCH  11  23
ATOM     23  O   UNL     1      -2.954   3.137   9.549  0.00  0.00    -0.492 OA
ATOM     24  H   UNL     1      -3.082   2.778  10.438  0.00  0.00    +0.294 HD
ENDBRANCH  11  23
ENDBRANCH   1  10
BRANCH   1  30
ATOM     25  C   UNL     1       0.317  -0.304   5.375  0.00  0.00    +0.081 C 
ATOM     26  C   UNL     1      -0.378   0.606   4.358  0.00  0.00    +0.011 C 
ATOM     27  C   UNL     1      -0.296   2.056   4.843  0.00  0.00    -0.018 C 
ATOM     28  C   UNL     1      -0.939   2.163   6.227  0.00  0.00    -0.077 C 
ATOM     29  C   UNL     1      -0.345  -0.129   6.744  0.00  0.00    -0.063 C 
ATOM     30  N   UNL     1      -0.210   1.282   7.165  0.00  0.00    +0.388 N 
ATOM     31  H   UNL     1       0.784   1.538   7.157  0.00  0.00    -0.080 HD
BRANCH  25  32
ATOM     32  C   UNL     1       0.189  -1.740   4.935  0.00  0.00    +0.308 C 
ATOM     33  O   UNL     1      -0.373  -2.541   5.643  0.00  0.00    -0.251 OA
BRANCH  32  34
ATOM     34  O   UNL     1       0.700  -2.128   3.756  0.00  0.00    -0.465 OA
BRANCH  34  36
ATOM     35  C   UNL     1       1.181  -3.778   2.030  0.00  0.00    +0.048 C 
ATOM     36  C   UNL     1       0.540  -3.526   3.396  0.00  0.00    +0.229 C 
ENDBRANCH  34  36
ENDBRANCH  32  34
ENDBRANCH  25  32
ENDBRANCH   1  30
TORSDOF 8
