REMARK  Name = ZINC23484299
REMARK  12 active torsions:
REMARK  status: ('A' for Active; 'I' for Inactive)
REMARK    1  A    between atoms: C_1  and  C_2
REMARK    2  A    between atoms: C_2  and  C_3
REMARK    3  A    between atoms: C_2  and  N_4
REMARK    4  A    between atoms: C_8  and  C_10
REMARK    5  A    between atoms: C_10  and  S_11
REMARK    6  A    between atoms: S_11  and  C_12
REMARK    7  A    between atoms: C_15  and  C_18
REMARK    8  A    between atoms: N_16  and  C_17
REMARK    9  A    between atoms: C_25  and  C_28
REMARK   10  A    between atoms: C_28  and  C_29
REMARK   11  A    between atoms: C_28  and  C_30
REMARK   12  A    between atoms: C_28  and  C_31
REMARK                            x       y       z     vdW  Elec       q    Type
REMARK                         _______ _______ _______ _____ _____    ______ ____
ROOT
ATOM      1  C   UNL     1      -3.132  -5.015  -0.910  0.00  0.00    +0.192 A 
ATOM      2  N   UNL     1      -3.793  -4.029  -1.473  0.00  0.00    -0.122 NA
ATOM      3  N   UNL     1      -3.141  -2.929  -1.346  0.00  0.00    -0.128 NA
ATOM      4  C   UNL     1      -2.020  -3.145  -0.694  0.00  0.00    +0.171 A 
ATOM      5  N   UNL     1      -1.978  -4.489  -0.399  0.00  0.00    -0.305 N 
ATOM      6  C   UNL     1      -0.919  -5.206   0.317  0.00  0.00    +0.153 C 
ENDROOT
BRANCH   4   7
ATOM      7  C   UNL     1      -1.000  -2.140  -0.349  0.00  0.00    +0.057 A 
ATOM      8  C   UNL     1      -1.094  -0.775  -0.365  0.00  0.00    +0.023 A 
ATOM      9  C   UNL     1       0.002  -0.004   0.002  0.00  0.00    -0.036 A 
ATOM     10  C   UNL     1       1.131  -0.678   0.365  0.00  0.00    -0.006 A 
ATOM     11  S   UNL     1       0.682  -2.385   0.199  0.00  0.00    -0.090 S 
ATOM     12  C   UNL     1       2.437  -0.097   0.801  0.00  0.00    +0.043 C 
ATOM     13  C   UNL     1       2.218   1.386   1.136  0.00  0.00    +0.009 C 
ATOM     14  C   UNL     1       1.422   2.034  -0.001  0.00  0.00    -0.001 C 
ATOM     15  C   UNL     1      -0.019   1.522   0.010  0.00  0.00    +0.040 C 
BRANCH  14  16
ATOM     16  C   UNL     1       1.422   3.554   0.182  0.00  0.00    -0.035 C 
ATOM     17  C   UNL     1       0.764   3.907   1.517  0.00  0.00    +0.011 C 
ATOM     18  C   UNL     1       2.863   4.068   0.171  0.00  0.00    +0.011 C 
ATOM     19  C   UNL     1       0.639   4.204  -0.961  0.00  0.00    +0.011 C 
ENDBRANCH  14  16
ENDBRANCH   4   7
BRANCH   1  20
ATOM     20  S   UNL     1      -3.635  -6.702  -0.834  0.00  0.00    -0.077 S 
BRANCH  20  21
ATOM     21  C   UNL     1      -5.214  -6.598  -1.712  0.00  0.00    +0.173 C 
BRANCH  21  26
ATOM     22  N   UNL     1      -8.790  -9.520  -3.048  0.00  0.00    -0.297 N 
ATOM     23  C   UNL     1      -7.601  -9.354  -2.437  0.00  0.00    +0.306 C 
ATOM     24  O   UNL     1      -7.037 -10.306  -1.935  0.00  0.00    -0.252 OA
ATOM     25  N   UNL     1      -7.036  -8.131  -2.383  0.00  0.00    -0.239 N 
ATOM     26  C   UNL     1      -5.846  -7.965  -1.772  0.00  0.00    +0.231 C 
ATOM     27  O   UNL     1      -5.284  -8.915  -1.271  0.00  0.00    -0.274 OA
ATOM     28  H   UNL     1      -9.301  -8.658  -3.502  0.00  0.00    +0.151 HD
ATOM     29  H   UNL     1      -7.546  -7.269  -2.838  0.00  0.00    +0.159 HD
BRANCH  22  31
ATOM     30  C   UNL     1     -10.921 -10.704  -3.253  0.00  0.00    +0.027 C 
ATOM     31  C   UNL     1      -9.405 -10.849  -3.106  0.00  0.00    +0.068 C 
ATOM     32  C   UNL     1      -8.847 -11.616  -4.307  0.00  0.00    +0.027 C 
ENDBRANCH  22  31
ENDBRANCH  21  26
ENDBRANCH  20  21
ENDBRANCH   1  20
TORSDOF 6
