REMARK  Name = ZINC39353594
REMARK  5 active torsions:
REMARK  status: ('A' for Active; 'I' for Inactive)
REMARK    1  A    between atoms: C_1  and  C_2
REMARK    2  A    between atoms: C_4  and  C_11
REMARK    3  A    between atoms: N_13  and  C_14
REMARK    4  A    between atoms: C_14  and  C_15
REMARK    5  A    between atoms: C_22  and  C_25
REMARK                            x       y       z     vdW  Elec       q    Type
REMARK                         _______ _______ _______ _____ _____    ______ ____
ROOT
ATOM      1  C   UNL     1      -1.984  -4.420  -3.009  0.00  0.00    +0.149 C 
ENDROOT
BRANCH   1   2
ATOM      2  C   UNL     1      -2.023  -5.949  -3.038  0.00  0.00    +0.195 C 
ATOM      3  C   UNL     1      -2.336  -6.462  -4.464  0.00  0.00    +0.085 C 
ATOM      4  C   UNL     1      -3.202  -7.674  -4.178  0.00  0.00    -0.001 A 
ATOM      5  C   UNL     1      -3.592  -8.737  -4.962  0.00  0.00    +0.007 A 
ATOM      6  C   UNL     1      -4.398  -9.733  -4.437  0.00  0.00    +0.001 A 
ATOM      7  C   UNL     1      -4.812  -9.663  -3.123  0.00  0.00    +0.015 A 
ATOM      8  C   UNL     1      -4.424  -8.591  -2.323  0.00  0.00    +0.061 A 
ATOM      9  C   UNL     1      -3.610  -7.578  -2.855  0.00  0.00    +0.135 A 
ATOM     10  O   UNL     1      -3.130  -6.446  -2.268  0.00  0.00    -0.486 OA
BRANCH   8  11
ATOM     11  C   UNL     1      -4.870  -8.520  -0.912  0.00  0.00    +0.163 A 
ATOM     12  N   UNL     1      -4.495  -7.489  -0.166  0.00  0.00    -0.236 NA
ATOM     13  C   UNL     1      -4.875  -7.396   1.097  0.00  0.00    +0.114 A 
ATOM     14  C   UNL     1      -5.675  -8.392   1.638  0.00  0.00    +0.039 A 
ATOM     15  C   UNL     1      -6.048  -9.455   0.830  0.00  0.00    +0.114 A 
ATOM     16  N   UNL     1      -5.638  -9.486  -0.426  0.00  0.00    -0.236 NA
ENDBRANCH   8  11
ENDBRANCH   1   2
BRANCH   1  19
ATOM     17  C   UNL     1      -1.534  -2.649  -1.398  0.00  0.00    +0.229 C 
ATOM     18  O   UNL     1      -1.743  -1.838  -2.275  0.00  0.00    -0.275 OA
ATOM     19  N   UNL     1      -1.628  -3.967  -1.662  0.00  0.00    -0.311 N 
ATOM     20  H   UNL     1      -1.461  -4.615  -0.960  0.00  0.00    +0.149 HD
BRANCH  17  24
ATOM     21  C   UNL     1      -0.018   1.503   0.010  0.00  0.00    +0.045 C 
ATOM     22  C   UNL     1       0.002  -0.004   0.002  0.00  0.00    -0.033 C 
ATOM     23  C   UNL     1      -1.133  -0.684   0.004  0.00  0.00    -0.000 C 
ATOM     24  C   UNL     1      -1.168  -2.182  -0.012  0.00  0.00    +0.184 C 
ATOM     25  C   UNL     1       0.152  -2.781   0.368  0.00  0.00    +0.233 C 
ATOM     26  O   UNL     1       0.185  -3.943   0.714  0.00  0.00    -0.274 OA
ATOM     27  N   UNL     1       1.298  -2.084   0.341  0.00  0.00    -0.285 N 
ATOM     28  C   UNL     1       1.289  -0.728  -0.014  0.00  0.00    +0.029 C 
ATOM     29  C   UNL     1       2.419  -0.102  -0.354  0.00  0.00    +0.034 C 
ATOM     30  H   UNL     1       2.136  -2.521   0.563  0.00  0.00    +0.155 HD
ENDBRANCH  17  24
ENDBRANCH   1  19
TORSDOF 4
