REMARK  Name = ZINC38831899
REMARK  7 active torsions:
REMARK  status: ('A' for Active; 'I' for Inactive)
REMARK    1  A    between atoms: C_1  and  S_2
REMARK    2  A    between atoms: S_2  and  N_5
REMARK    3  A    between atoms: C_7  and  C_17
REMARK    4  A    between atoms: N_19  and  C_20
REMARK    5  A    between atoms: C_20  and  C_21
REMARK    6  A    between atoms: C_25  and  C_27
REMARK    7  A    between atoms: C_27  and  N_28
REMARK                            x       y       z     vdW  Elec       q    Type
REMARK                         _______ _______ _______ _____ _____    ______ ____
ROOT
ATOM      1  C   UNL     1      -0.584  -0.363  -5.057  0.00  0.00    +0.256 C 
ATOM      2  O   UNL     1      -0.139  -1.028  -5.969  0.00  0.00    -0.272 OA
ATOM      3  N   UNL     1      -1.851   0.091  -5.111  0.00  0.00    -0.308 N 
ATOM      4  H   UNL     1      -2.207   0.623  -4.381  0.00  0.00    +0.149 HD
ENDROOT
BRANCH   1   7
ATOM      5  N   UNL     1       0.600  -0.413  -1.487  0.00  0.00    -0.200 N 
ATOM      6  C   UNL     1      -0.301  -0.716  -2.613  0.00  0.00    +0.185 C 
ATOM      7  C   UNL     1       0.281  -0.044  -3.865  0.00  0.00    +0.277 C 
ATOM      8  O   UNL     1       1.604  -0.542  -4.082  0.00  0.00    -0.476 OA
ATOM      9  C   UNL     1       2.461  -0.546  -3.027  0.00  0.00    +0.144 A 
ATOM     10  C   UNL     1       1.982  -0.479  -1.722  0.00  0.00    +0.094 A 
ATOM     11  C   UNL     1       2.868  -0.482  -0.656  0.00  0.00    +0.048 A 
ATOM     12  C   UNL     1       4.230  -0.544  -0.893  0.00  0.00    +0.043 A 
ATOM     13  C   UNL     1       4.706  -0.602  -2.190  0.00  0.00    +0.024 A 
ATOM     14  C   UNL     1       3.827  -0.612  -3.253  0.00  0.00    +0.049 A 
ATOM     15 CL   UNL     1       5.343  -0.547   0.440  0.00  0.00    -0.083 Cl
BRANCH   5  17
ATOM     16  C   UNL     1       0.038  -1.545   0.959  0.00  0.00    +0.218 C 
ATOM     17  S   UNL     1       0.002  -0.004   0.002  0.00  0.00    +0.043 S 
ATOM     18  O   UNL     1      -1.341   0.389  -0.242  0.00  0.00    -0.155 OA
ATOM     19  O   UNL     1       0.943   0.921   0.529  0.00  0.00    -0.155 OA
ENDBRANCH   5  17
ENDBRANCH   1   7
BRANCH   3  20
ATOM     20  C   UNL     1      -2.692  -0.219  -6.269  0.00  0.00    +0.139 C 
BRANCH  20  21
ATOM     21  C   UNL     1      -4.053   0.401  -6.083  0.00  0.00    -0.030 A 
ATOM     22  C   UNL     1      -5.056  -0.310  -5.450  0.00  0.00    +0.005 A 
ATOM     23  C   UNL     1      -6.304   0.258  -5.278  0.00  0.00    +0.001 A 
ATOM     24  C   UNL     1      -6.550   1.538  -5.739  0.00  0.00    +0.002 A 
ATOM     25  C   UNL     1      -5.547   2.250  -6.372  0.00  0.00    -0.064 A 
ATOM     26  C   UNL     1      -4.298   1.683  -6.539  0.00  0.00    +0.007 A 
BRANCH  25  27
ATOM     27  C   UNL     1      -5.816   3.645  -6.875  0.00  0.00    -0.043 C 
BRANCH  27  28
ATOM     28  N   UNL     1      -5.500   4.615  -5.818  0.00  0.00    +0.385 N 
ATOM     29  C   UNL     1      -5.863   5.968  -6.268  0.00  0.00    -0.073 C 
ATOM     30  C   UNL     1      -5.820   6.910  -5.065  0.00  0.00    +0.017 C 
ATOM     31  C   UNL     1      -4.504   6.758  -4.345  0.00  0.00    -0.048 A 
ATOM     32  C   UNL     1      -4.118   7.743  -3.450  0.00  0.00    +0.004 A 
ATOM     33  C   UNL     1      -2.921   7.636  -2.769  0.00  0.00    +0.000 A 
ATOM     34  C   UNL     1      -2.105   6.541  -2.982  0.00  0.00    +0.000 A 
ATOM     35  C   UNL     1      -2.488   5.560  -3.874  0.00  0.00    +0.002 A 
ATOM     36  C   UNL     1      -3.689   5.667  -4.560  0.00  0.00    -0.061 A 
ATOM     37  C   UNL     1      -4.064   4.577  -5.530  0.00  0.00    -0.042 C 
ATOM     38  H   UNL     1      -6.019   4.386  -4.983  0.00  0.00    -0.081 HD
ENDBRANCH  27  28
ENDBRANCH  25  27
ENDBRANCH  20  21
ENDBRANCH   3  20
TORSDOF 6
