REMARK  Name = ZINC27549739
REMARK  14 active torsions:
REMARK  status: ('A' for Active; 'I' for Inactive)
REMARK    1  A    between atoms: C_1  and  C_2
REMARK    2  A    between atoms: C_2  and  C_3
REMARK    3  A    between atoms: C_9  and  C_10
REMARK    4  A    between atoms: C_13  and  O_18
REMARK    5  A    between atoms: C_14  and  O_16
REMARK    6  A    between atoms: O_16  and  C_17
REMARK    7  A    between atoms: O_18  and  C_19
REMARK    8  A    between atoms: C_19  and  C_20
REMARK    9  A    between atoms: C_20  and  O_21
REMARK   10  A    between atoms: O_21  and  C_22
REMARK   11  A    between atoms: C_27  and  C_28
REMARK   12  A    between atoms: C_28  and  C_30
REMARK   13  A    between atoms: C_28  and  C_31
REMARK   14  A    between atoms: C_31  and  C_32
REMARK                            x       y       z     vdW  Elec       q    Type
REMARK                         _______ _______ _______ _____ _____    ______ ____
ROOT
ATOM      1  C   UNL     1       2.842  -0.761  -8.026  0.00  0.00    -0.021 A 
ATOM      2  C   UNL     1       2.934  -2.159  -7.963  0.00  0.00    +0.012 A 
ATOM      3  C   UNL     1       3.114  -2.889  -9.117  0.00  0.00    +0.050 A 
ATOM      4  C   UNL     1       3.205  -2.244 -10.344  0.00  0.00    +0.162 A 
ATOM      5  C   UNL     1       3.114  -0.853 -10.416  0.00  0.00    +0.162 A 
ATOM      6  C   UNL     1       2.928  -0.113  -9.266  0.00  0.00    +0.057 A 
ENDROOT
BRANCH   1  13
ATOM      7  C   UNL     1       2.630  -1.275  -1.030  0.00  0.00    +0.100 C 
ATOM      8  N   UNL     1       2.421  -0.447  -2.012  0.00  0.00    -0.169 NA
ATOM      9  N   UNL     1       3.044  -0.610  -3.231  0.00  0.00    -0.152 N 
ATOM     10  C   UNL     1       2.957   0.275  -4.327  0.00  0.00    +0.152 C 
ATOM     11  N   UNL     1       2.635   1.535  -4.208  0.00  0.00    -0.283 NA
ATOM     12  C   UNL     1       3.269  -0.371  -5.634  0.00  0.00    +0.081 C 
ATOM     13  C   UNL     1       2.650   0.018  -6.801  0.00  0.00    +0.024 C 
ATOM     14  C   UNL     1       4.281  -1.455  -5.609  0.00  0.00    +0.273 C 
ATOM     15  O   UNL     1       4.931  -1.730  -6.605  0.00  0.00    -0.268 OA
ATOM     16  N   UNL     1       4.463  -2.127  -4.455  0.00  0.00    -0.152 NA
ATOM     17  C   UNL     1       3.843  -1.724  -3.375  0.00  0.00    +0.181 C 
ATOM     18  S   UNL     1       3.785  -2.434  -1.751  0.00  0.00    -0.038 S 
ATOM     19  H   UNL     1       2.441   1.906  -3.333  0.00  0.00    +0.188 HD
BRANCH   7  21
ATOM     20  C   UNL     1       1.107  -0.064   0.507  0.00  0.00    +0.011 C 
ATOM     21  C   UNL     1       2.053  -1.258   0.362  0.00  0.00    +0.061 C 
ENDBRANCH   7  21
ENDBRANCH   1  13
BRANCH   5  22
ATOM     22  O   UNL     1       3.204  -0.228 -11.620  0.00  0.00    -0.491 OA
ATOM     23  C   UNL     1       3.103   1.198 -11.620  0.00  0.00    +0.277 C 
ENDBRANCH   5  22
BRANCH   4  24
ATOM     24  O   UNL     1       3.383  -2.969 -11.478  0.00  0.00    -0.485 OA
BRANCH  24  25
ATOM     25  C   UNL     1       3.468  -4.388 -11.333  0.00  0.00    +0.270 C 
BRANCH  25  26
ATOM     26  C   UNL     1       3.667  -5.030 -12.708  0.00  0.00    +0.270 C 
BRANCH  26  27
ATOM     27  O   UNL     1       4.930  -4.628 -13.242  0.00  0.00    -0.488 OA
BRANCH  27  28
ATOM     28  C   UNL     1       5.264  -5.114 -14.467  0.00  0.00    +0.124 A 
ATOM     29  C   UNL     1       4.392  -5.955 -15.143  0.00  0.00    +0.046 A 
ATOM     30  C   UNL     1       4.733  -6.447 -16.387  0.00  0.00    +0.004 A 
ATOM     31  C   UNL     1       5.944  -6.102 -16.960  0.00  0.00    +0.001 A 
ATOM     32  C   UNL     1       6.815  -5.264 -16.289  0.00  0.00    +0.007 A 
ATOM     33  C   UNL     1       6.475  -4.765 -15.046  0.00  0.00    -0.003 A 
BRANCH  33  34
ATOM     34  C   UNL     1       7.423  -3.847 -14.318  0.00  0.00    +0.019 C 
ATOM     35  C   UNL     1       8.751  -4.568 -14.081  0.00  0.00    +0.012 C 
BRANCH  34  36
ATOM     36  C   UNL     1       7.666  -2.593 -15.160  0.00  0.00    +0.004 C 
ATOM     37  C   UNL     1       8.527  -1.606 -14.368  0.00  0.00    +0.004 C 
ENDBRANCH  34  36
ENDBRANCH  33  34
ENDBRANCH  27  28
ENDBRANCH  26  27
ENDBRANCH  25  26
ENDBRANCH  24  25
ENDBRANCH   4  24
TORSDOF 10
