REMARK  Name = ZINC40979209
REMARK  5 active torsions:
REMARK  status: ('A' for Active; 'I' for Inactive)
REMARK    1  A    between atoms: C_3  and  N_20
REMARK    2  A    between atoms: C_5  and  C_6
REMARK    3  A    between atoms: N_7  and  N_8
REMARK    4  A    between atoms: N_8  and  C_9
REMARK    5  A    between atoms: C_9  and  N_11
REMARK                            x       y       z     vdW  Elec       q    Type
REMARK                         _______ _______ _______ _____ _____    ______ ____
ROOT
ATOM      1  N   UNL     1      -1.948  -2.954   0.005  0.00  0.00    -0.218 N 
ATOM      2  H   UNL     1      -2.843  -2.581   0.015  0.00  0.00    +0.176 HD
ENDROOT
BRANCH   1   4
ATOM      3  C   UNL     1      -1.095  -0.843   0.008  0.00  0.00    +0.176 C 
ATOM      4  N   UNL     1      -0.923  -2.170  -0.001  0.00  0.00    -0.185 NA
BRANCH   3   9
ATOM      5  C   UNL     1      -0.018   1.469   0.010  0.00  0.00    +0.053 A 
ATOM      6  C   UNL     1       1.290   1.861  -0.000  0.00  0.00    +0.076 A 
ATOM      7  C   UNL     1       2.078   0.711  -0.014  0.00  0.00    +0.280 A 
ATOM      8  O   UNL     1       1.303  -0.377  -0.012  0.00  0.00    -0.433 OA
ATOM      9  C   UNL     1       0.002  -0.004   0.002  0.00  0.00    +0.150 A 
BRANCH   7  10
ATOM     10  N   UNL     1       3.559   0.698  -0.029  0.00  0.00    +0.093 N 
ATOM     11  O   UNL     1       4.228   1.833  -0.030  0.00  0.00    -0.123 OA
ATOM     12  O   UNL     1       4.208  -0.449  -0.041  0.00  0.00    -0.123 OA
ENDBRANCH   7  10
ENDBRANCH   3   9
ENDBRANCH   1   4
BRANCH   1  13
ATOM     13  C   UNL     1      -1.774  -4.290  -0.004  0.00  0.00    +0.155 C 
ATOM     14  S   UNL     1      -3.135  -5.330   0.003  0.00  0.00    -0.017 S 
BRANCH  13  15
ATOM     15  N   UNL     1      -0.530  -4.808  -0.019  0.00  0.00    -0.280 N 
ATOM     16  C   UNL     1      -0.351  -6.190  -0.028  0.00  0.00    +0.138 A 
ATOM     17  C   UNL     1       0.936  -6.718  -0.037  0.00  0.00    +0.059 A 
ATOM     18  C   UNL     1       1.100  -8.093  -0.046  0.00  0.00    +0.035 A 
ATOM     19  C   UNL     1      -0.034  -8.895  -0.045  0.00  0.00    +0.037 A 
ATOM     20  C   UNL     1      -1.282  -8.302  -0.036  0.00  0.00    +0.128 A 
ATOM     21  N   UNL     1      -1.407  -6.989  -0.022  0.00  0.00    -0.238 NA
ATOM     22 BR   UNL     1       0.128 -10.779  -0.058  0.00  0.00    -0.049 Br
ATOM     23 BR   UNL     1       2.442  -5.574  -0.038  0.00  0.00    -0.047 Br
ATOM     24  H   UNL     1       0.240  -4.219  -0.023  0.00  0.00    +0.155 HD
ENDBRANCH  13  15
ENDBRANCH   1  13
TORSDOF 5
