REMARK  Name = ZINC28052495
REMARK  10 active torsions:
REMARK  status: ('A' for Active; 'I' for Inactive)
REMARK    1  A    between atoms: C_1  and  C_2
REMARK    2  A    between atoms: C_2  and  O_3
REMARK    3  A    between atoms: O_3  and  C_4
REMARK    4  A    between atoms: C_7  and  C_12
REMARK    5  A    between atoms: C_9  and  O_10
REMARK    6  A    between atoms: O_10  and  C_11
REMARK    7  A    between atoms: C_15  and  C_36
REMARK    8  A    between atoms: C_25  and  C_28
REMARK    9  A    between atoms: C_31  and  O_34
REMARK   10  A    between atoms: O_34  and  C_35
REMARK                            x       y       z     vdW  Elec       q    Type
REMARK                         _______ _______ _______ _____ _____    ______ ____
ROOT
ATOM      1  C   UNL     1       2.502   1.469  -0.020  0.00  0.00    +0.091 C 
ATOM      2  C   UNL     1       1.147   2.100   0.002  0.00  0.00    +0.049 A 
ATOM      3  C   UNL     1       0.730   3.429   0.019  0.00  0.00    +0.087 A 
ATOM      4  N   UNL     1      -0.579   3.399   0.032  0.00  0.00    -0.081 NA
ATOM      5  O   UNL     1      -1.007   2.261   0.029  0.00  0.00    -0.339 OA
ATOM      6  C   UNL     1      -0.017   1.375   0.010  0.00  0.00    +0.226 A 
ATOM      7  N   UNL     1       0.002  -0.004   0.002  0.00  0.00    -0.286 N 
ATOM      8  C   UNL     1       1.184  -0.647   0.284  0.00  0.00    +0.019 C 
ATOM      9  C   UNL     1       2.374  -0.009   0.288  0.00  0.00    +0.024 C 
ATOM     10  C   UNL     1       3.564  -0.701   0.579  0.00  0.00    +0.162 C 
ATOM     11  O   UNL     1       4.616  -0.091   0.599  0.00  0.00    -0.292 OA
ATOM     12  C   UNL     1       3.566  -2.176   0.867  0.00  0.00    +0.088 C 
ATOM     13  C   UNL     1       2.379  -2.823   0.144  0.00  0.00    +0.032 C 
ATOM     14  C   UNL     1       1.099  -2.123   0.601  0.00  0.00    +0.059 C 
ATOM     15  C   UNL     1       1.609   4.653   0.022  0.00  0.00    +0.069 C 
ATOM     16  H   UNL     1      -0.916  -0.565  -0.226  0.00  0.00    +0.155 HD
ENDROOT
BRANCH   1  20
ATOM     17  C   UNL     1       4.241   1.969  -3.895  0.00  0.00    +0.162 A 
ATOM     18  C   UNL     1       3.045   1.285  -3.753  0.00  0.00    +0.050 A 
ATOM     19  C   UNL     1       2.488   1.120  -2.498  0.00  0.00    +0.008 A 
ATOM     20  C   UNL     1       3.117   1.646  -1.385  0.00  0.00    -0.032 A 
ATOM     21  C   UNL     1       4.311   2.329  -1.520  0.00  0.00    +0.054 A 
ATOM     22  C   UNL     1       4.877   2.493  -2.774  0.00  0.00    +0.162 A 
BRANCH  22  23
ATOM     23  O   UNL     1       6.052   3.165  -2.908  0.00  0.00    -0.491 OA
ATOM     24  C   UNL     1       6.648   3.675  -1.714  0.00  0.00    +0.277 C 
ENDBRANCH  22  23
BRANCH  17  25
ATOM     25  O   UNL     1       4.793   2.127  -5.128  0.00  0.00    -0.489 OA
BRANCH  25  27
ATOM     26  C   UNL     1       4.854   1.839  -7.527  0.00  0.00    +0.048 C 
ATOM     27  C   UNL     1       4.085   1.562  -6.233  0.00  0.00    +0.226 C 
ENDBRANCH  25  27
ENDBRANCH  17  25
ENDBRANCH   1  20
BRANCH  13  28
ATOM     28  C   UNL     1       2.309  -4.288   0.493  0.00  0.00    -0.043 A 
ATOM     29  C   UNL     1       2.153  -4.676   1.811  0.00  0.00    +0.007 A 
ATOM     30  C   UNL     1       2.083  -6.018   2.132  0.00  0.00    +0.046 A 
ATOM     31  C   UNL     1       2.182  -6.976   1.133  0.00  0.00    +0.120 A 
ATOM     32  C   UNL     1       2.344  -6.583  -0.187  0.00  0.00    +0.046 A 
ATOM     33  C   UNL     1       2.408  -5.240  -0.504  0.00  0.00    +0.007 A 
BRANCH  31  34
ATOM     34  O   UNL     1       2.120  -8.296   1.448  0.00  0.00    -0.495 OA
ATOM     35  C   UNL     1       1.951  -8.627   2.828  0.00  0.00    +0.277 C 
ENDBRANCH  31  34
ENDBRANCH  13  28
TORSDOF 6
