REMARK  Name = ZINC11761219
REMARK  11 active torsions:
REMARK  status: ('A' for Active; 'I' for Inactive)
REMARK    1  A    between atoms: C_1  and  C_2
REMARK    2  A    between atoms: C_6  and  C_8
REMARK    3  A    between atoms: N_10  and  C_11
REMARK    4  A    between atoms: C_11  and  C_13
REMARK    5  A    between atoms: C_11  and  C_16
REMARK    6  A    between atoms: C_13  and  C_14
REMARK    7  A    between atoms: C_13  and  C_15
REMARK    8  A    between atoms: C_16  and  O_18
REMARK    9  A    between atoms: O_18  and  C_19
REMARK   10  A    between atoms: C_19  and  C_20
REMARK   11  A    between atoms: C_25  and  C_28
REMARK                            x       y       z     vdW  Elec       q    Type
REMARK                         _______ _______ _______ _____ _____    ______ ____
ROOT
ATOM      1  C   UNL     1       4.419   6.375   4.019  0.00  0.00    +0.185 C 
ENDROOT
BRANCH   1   4
ATOM      2  C   UNL     1       5.335   8.616   4.290  0.00  0.00    +0.245 C 
ATOM      3  O   UNL     1       6.264   8.130   4.904  0.00  0.00    -0.270 OA
ATOM      4  N   UNL     1       4.359   7.823   3.805  0.00  0.00    -0.298 N 
ATOM      5  H   UNL     1       3.617   8.210   3.315  0.00  0.00    +0.150 HD
BRANCH   2  11
ATOM      6  C   UNL     1       7.307  13.158   4.913  0.00  0.00    +0.044 C 
ATOM      7  C   UNL     1       6.220  12.265   4.372  0.00  0.00    -0.050 A 
ATOM      8  C   UNL     1       5.160  12.815   3.672  0.00  0.00    +0.003 A 
ATOM      9  C   UNL     1       4.157  12.003   3.173  0.00  0.00    +0.001 A 
ATOM     10  C   UNL     1       4.208  10.639   3.370  0.00  0.00    +0.013 A 
ATOM     11  C   UNL     1       5.274  10.078   4.075  0.00  0.00    +0.037 A 
ATOM     12  C   UNL     1       6.280  10.903   4.580  0.00  0.00    +0.016 A 
ENDBRANCH   2  11
ENDBRANCH   1   4
BRANCH   1  13
ATOM     13  C   UNL     1       3.816   6.035   5.383  0.00  0.00    +0.014 C 
ATOM     14  C   UNL     1       3.879   4.522   5.606  0.00  0.00    +0.009 C 
ATOM     15  C   UNL     1       4.608   6.745   6.482  0.00  0.00    +0.009 C 
ENDBRANCH   1  13
BRANCH   1  16
ATOM     16  C   UNL     1       3.638   5.675   2.936  0.00  0.00    +0.328 C 
ATOM     17  O   UNL     1       3.088   6.319   2.075  0.00  0.00    -0.249 OA
BRANCH  16  18
ATOM     18  O   UNL     1       3.554   4.335   2.929  0.00  0.00    -0.454 OA
BRANCH  18  19
ATOM     19  C   UNL     1       2.786   3.728   1.856  0.00  0.00    +0.327 C 
BRANCH  19  20
ATOM     20  C   UNL     1       2.803   2.229   2.011  0.00  0.00    +0.253 C 
ATOM     21  O   UNL     1       3.404   1.722   2.935  0.00  0.00    -0.272 OA
ATOM     22  N   UNL     1       2.151   1.453   1.124  0.00  0.00    -0.299 N 
ATOM     23  C   UNL     1       1.420   2.052  -0.001  0.00  0.00    +0.108 C 
ATOM     24  C   UNL     1      -0.019   1.526   0.010  0.00  0.00    +0.022 C 
ATOM     25  C   UNL     1       0.002  -0.004   0.002  0.00  0.00    -0.011 C 
ATOM     26  C   UNL     1       0.712  -0.513   1.258  0.00  0.00    +0.022 C 
ATOM     27  C   UNL     1       2.159  -0.010   1.262  0.00  0.00    +0.108 C 
ATOM     28  C   UNL     1      -1.433  -0.533  -0.022  0.00  0.00    +0.007 C 
ENDBRANCH  19  20
ENDBRANCH  18  19
ENDBRANCH  16  18
ENDBRANCH   1  16
TORSDOF 7
