REMARK  Name = ZINC63349979
REMARK  9 active torsions:
REMARK  status: ('A' for Active; 'I' for Inactive)
REMARK    1  A    between atoms: C_1  and  C_2
REMARK    2  A    between atoms: C_4  and  C_33
REMARK    3  A    between atoms: N_5  and  C_7
REMARK    4  A    between atoms: C_7  and  C_8
REMARK    5  A    between atoms: C_10  and  C_16
REMARK    6  A    between atoms: C_13  and  O_14
REMARK    7  A    between atoms: O_14  and  C_15
REMARK    8  A    between atoms: C_23  and  O_28
REMARK    9  A    between atoms: O_28  and  C_29
REMARK                            x       y       z     vdW  Elec       q    Type
REMARK                         _______ _______ _______ _____ _____    ______ ____
ROOT
ATOM      1  C   UNL     1       4.006  -3.302   4.554  0.00  0.00    +0.111 C 
ATOM      2  C   UNL     1       4.892  -2.069   4.359  0.00  0.00    +0.128 C 
ATOM      3  C   UNL     1       5.620  -1.854   5.682  0.00  0.00    -0.035 C 
ATOM      4  C   UNL     1       5.377  -0.603   6.044  0.00  0.00    +0.003 A 
ATOM      5  C   UNL     1       5.865   0.209   7.170  0.00  0.00    +0.055 A 
ATOM      6  C   UNL     1       5.393   1.483   7.255  0.00  0.00    +0.121 A 
ATOM      7  C   UNL     1       4.486   2.045   6.345  0.00  0.00    +0.047 A 
ATOM      8  C   UNL     1       3.977   1.390   5.270  0.00  0.00    +0.029 A 
ATOM      9  C   UNL     1       4.418   0.003   5.068  0.00  0.00    +0.043 A 
ATOM     10  N   UNL     1       4.117  -0.854   4.114  0.00  0.00    -0.376 N 
ATOM     11  C   UNL     1       6.351  -2.978   6.375  0.00  0.00    +0.048 C 
ATOM     12  C   UNL     1       5.384  -4.177   6.385  0.00  0.00    +0.086 C 
ATOM     13  N   UNL     1       4.849  -4.406   5.040  0.00  0.00    -0.307 NA
ATOM     14  H   UNL     1       4.357  -5.286   4.991  0.00  0.00    +0.123 HD
ATOM     15  H   UNL     1       3.495  -0.715   3.382  0.00  0.00    +0.160 HD
ENDROOT
BRANCH   1  18
ATOM     16  C   UNL     1       1.482  -3.682   1.773  0.00  0.00    +0.016 A 
ATOM     17  C   UNL     1       2.064  -3.332   2.976  0.00  0.00    +0.014 A 
ATOM     18  C   UNL     1       3.374  -3.686   3.241  0.00  0.00    -0.028 A 
ATOM     19  C   UNL     1       4.105  -4.391   2.303  0.00  0.00    +0.009 A 
ATOM     20  C   UNL     1       3.528  -4.744   1.099  0.00  0.00    +0.046 A 
ATOM     21  C   UNL     1       2.212  -4.394   0.833  0.00  0.00    +0.125 A 
BRANCH  21  22
ATOM     22  O   UNL     1       1.640  -4.745  -0.349  0.00  0.00    -0.495 OA
ATOM     23  C   UNL     1       2.451  -5.478  -1.270  0.00  0.00    +0.277 C 
ENDBRANCH  21  22
BRANCH  16  24
ATOM     24  C   UNL     1       0.055  -3.295   1.485  0.00  0.00    +0.182 C 
BRANCH  24  29
ATOM     25  C   UNL     1      -0.018   1.503   0.010  0.00  0.00    +0.067 C 
ATOM     26  C   UNL     1       0.002  -0.004   0.002  0.00  0.00    +0.060 A 
ATOM     27  C   UNL     1       0.008  -0.818  -1.135  0.00  0.00    +0.047 A 
ATOM     28  C   UNL     1       0.028  -2.107  -0.725  0.00  0.00    +0.037 A 
ATOM     29  N   UNL     1       0.034  -2.109   0.625  0.00  0.00    -0.264 N 
ATOM     30  N   UNL     1       0.023  -0.777   1.058  0.00  0.00    -0.176 NA
ATOM     31  C   UNL     1       0.040  -3.323  -1.615  0.00  0.00    +0.065 C 
ENDBRANCH  24  29
ENDBRANCH  16  24
ENDBRANCH   1  18
BRANCH   6  32
ATOM     32  O   UNL     1       5.826   2.257   8.285  0.00  0.00    -0.495 OA
ATOM     33  C   UNL     1       5.317   3.590   8.353  0.00  0.00    +0.277 C 
ENDBRANCH   6  32
TORSDOF 5
