REMARK  Name = ZINC64385531
REMARK  6 active torsions:
REMARK  status: ('A' for Active; 'I' for Inactive)
REMARK    1  A    between atoms: C_1  and  C_2
REMARK    2  A    between atoms: C_5  and  N_8
REMARK    3  A    between atoms: N_8  and  C_9
REMARK    4  A    between atoms: C_10  and  C_12
REMARK    5  A    between atoms: N_14  and  N_15
REMARK    6  A    between atoms: N_15  and  C_16
REMARK                            x       y       z     vdW  Elec       q    Type
REMARK                         _______ _______ _______ _____ _____    ______ ____
ROOT
ATOM      1  C   UNL     1      -2.744  -2.794   4.394  0.00  0.00    +0.315 C 
ATOM      2  O   UNL     1      -2.858  -1.647   4.773  0.00  0.00    -0.264 OA
ATOM      3  N   UNL     1      -3.368  -3.788   5.056  0.00  0.00    -0.229 N 
ATOM      4  H   UNL     1      -3.276  -4.705   4.754  0.00  0.00    +0.173 HD
ENDROOT
BRANCH   1   7
ATOM      5  N   UNL     1      -1.345  -2.105   2.488  0.00  0.00    -0.294 N 
ATOM      6  C   UNL     1      -1.425  -0.727   2.979  0.00  0.00    +0.132 C 
ATOM      7  C   UNL     1      -1.910  -3.105   3.193  0.00  0.00    +0.303 C 
ATOM      8  O   UNL     1      -1.743  -4.257   2.852  0.00  0.00    -0.265 OA
BRANCH   5  13
ATOM      9  C   UNL     1      -3.550  -0.016  -0.924  0.00  0.00    +0.007 C 
ATOM     10  C   UNL     1      -2.341  -0.911  -0.643  0.00  0.00    -0.014 C 
ATOM     11  C   UNL     1      -2.813  -2.219  -0.006  0.00  0.00    +0.005 C 
ATOM     12  C   UNL     1      -1.604  -3.114   0.276  0.00  0.00    +0.023 C 
ATOM     13  C   UNL     1      -0.649  -2.396   1.232  0.00  0.00    +0.076 C 
ATOM     14  C   UNL     1      -0.178  -1.087   0.595  0.00  0.00    +0.023 C 
ATOM     15  C   UNL     1      -1.387  -0.193   0.313  0.00  0.00    +0.005 C 
ENDBRANCH   5  13
ENDBRANCH   1   7
BRANCH   3  16
ATOM     16  N   UNL     1      -4.149  -3.497   6.182  0.00  0.00    -0.263 N 
ATOM     17  H   UNL     1      -4.241  -2.579   6.485  0.00  0.00    +0.170 HD
BRANCH  16  18
ATOM     18  C   UNL     1      -4.797  -4.528   6.870  0.00  0.00    +0.063 A 
ATOM     19  C   UNL     1      -4.662  -5.841   6.441  0.00  0.00    +0.027 A 
ATOM     20  C   UNL     1      -5.303  -6.858   7.122  0.00  0.00    +0.022 A 
ATOM     21  C   UNL     1      -6.080  -6.569   8.230  0.00  0.00    +0.042 A 
ATOM     22  C   UNL     1      -6.216  -5.261   8.660  0.00  0.00    +0.042 A 
ATOM     23  C   UNL     1      -5.572  -4.240   7.987  0.00  0.00    +0.065 A 
ATOM     24 CL   UNL     1      -5.738  -2.600   8.531  0.00  0.00    -0.082 Cl
ATOM     25 CL   UNL     1      -6.884  -7.850   9.082  0.00  0.00    -0.083 Cl
ENDBRANCH  16  18
ENDBRANCH   3  16
TORSDOF 4
