REMARK  Name = ZINC02257807
REMARK  4 active torsions:
REMARK  status: ('A' for Active; 'I' for Inactive)
REMARK    1  A    between atoms: C_1  and  S_2
REMARK    2  A    between atoms: S_2  and  C_3
REMARK    3  A    between atoms: C_6  and  C_29
REMARK    4  A    between atoms: C_17  and  C_19
REMARK                            x       y       z     vdW  Elec       q    Type
REMARK                         _______ _______ _______ _____ _____    ______ ____
ROOT
ATOM      1  C   UNL     1       0.949   0.082   1.730  0.00  0.00    +0.210 A 
ATOM      2  N   UNL     1       1.156  -1.181   2.029  0.00  0.00    -0.141 NA
ATOM      3  N   UNL     1       1.881  -1.199   3.221  0.00  0.00    -0.220 N 
ATOM      4  C   UNL     1       2.381  -2.332   3.992  0.00  0.00    +0.172 C 
ATOM      5  C   UNL     1       2.822  -1.876   5.360  0.00  0.00    +0.025 C 
ATOM      6  C   UNL     1       2.993  -0.587   5.662  0.00  0.00    +0.050 C 
ATOM      7  C   UNL     1       3.448  -0.236   7.028  0.00  0.00    +0.038 A 
ATOM      8  C   UNL     1       3.334   1.057   7.522  0.00  0.00    +0.013 A 
ATOM      9  C   UNL     1       3.773   1.339   8.802  0.00  0.00    +0.001 A 
ATOM     10  C   UNL     1       4.322   0.341   9.587  0.00  0.00    +0.004 A 
ATOM     11  C   UNL     1       4.440  -0.950   9.103  0.00  0.00    +0.046 A 
ATOM     12  C   UNL     1       4.004  -1.246   7.825  0.00  0.00    +0.131 A 
ATOM     13  O   UNL     1       4.100  -2.500   7.314  0.00  0.00    -0.479 OA
ATOM     14  C   UNL     1       3.066  -2.921   6.425  0.00  0.00    +0.237 C 
ATOM     15  N   UNL     1       2.749   0.434   4.737  0.00  0.00    -0.283 N 
ATOM     16  C   UNL     1       2.066   0.096   3.579  0.00  0.00    +0.220 A 
ATOM     17  N   UNL     1       1.510   0.853   2.674  0.00  0.00    -0.187 NA
ATOM     18  H   UNL     1       3.047   1.343   4.899  0.00  0.00    +0.155 HD
ENDROOT
BRANCH  14  19
ATOM     19  C   UNL     1       1.796  -3.138   7.208  0.00  0.00    +0.032 A 
ATOM     20  C   UNL     1       1.581  -2.444   8.383  0.00  0.00    +0.010 A 
ATOM     21  C   UNL     1       0.417  -2.643   9.101  0.00  0.00    +0.001 A 
ATOM     22  C   UNL     1      -0.534  -3.536   8.644  0.00  0.00    +0.003 A 
ATOM     23  C   UNL     1      -0.322  -4.231   7.469  0.00  0.00    +0.039 A 
ATOM     24  C   UNL     1       0.842  -4.029   6.746  0.00  0.00    +0.130 A 
ATOM     25  F   UNL     1       1.049  -4.704   5.594  0.00  0.00    -0.205 F 
ENDBRANCH  14  19
BRANCH   4  26
ATOM     26  C   UNL     1       3.553  -2.947   3.271  0.00  0.00    -0.019 A 
ATOM     27  C   UNL     1       4.683  -2.192   3.021  0.00  0.00    +0.009 A 
ATOM     28  C   UNL     1       5.759  -2.755   2.361  0.00  0.00    +0.039 A 
ATOM     29  C   UNL     1       5.704  -4.076   1.950  0.00  0.00    +0.123 A 
ATOM     30  C   UNL     1       4.571  -4.832   2.202  0.00  0.00    +0.039 A 
ATOM     31  C   UNL     1       3.499  -4.268   2.867  0.00  0.00    +0.009 A 
ATOM     32  F   UNL     1       6.755  -4.628   1.304  0.00  0.00    -0.205 F 
ENDBRANCH   4  26
BRANCH   1  34
ATOM     33  C   UNL     1       0.148   2.474   0.473  0.00  0.00    +0.093 C 
ATOM     34  S   UNL     1       0.079   0.669   0.314  0.00  0.00    -0.088 S 
ENDBRANCH   1  34
TORSDOF 3
