REMARK  Name = ZINC36647517
REMARK  5 active torsions:
REMARK  status: ('A' for Active; 'I' for Inactive)
REMARK    1  A    between atoms: C_1  and  C_2
REMARK    2  A    between atoms: C_2  and  C_4
REMARK    3  A    between atoms: C_2  and  N_14
REMARK    4  A    between atoms: C_15  and  C_17
REMARK    5  A    between atoms: C_17  and  N_18
REMARK                            x       y       z     vdW  Elec       q    Type
REMARK                         _______ _______ _______ _____ _____    ______ ____
ROOT
ATOM      1  N   UNL     1      -1.372  -0.511   0.012  0.00  0.00    -0.308 N 
ATOM      2  C   UNL     1      -2.029  -0.655   1.181  0.00  0.00    +0.228 C 
ATOM      3  O   UNL     1      -1.481  -0.365   2.224  0.00  0.00    -0.274 OA
ATOM      4  H   UNL     1      -1.810  -0.743  -0.822  0.00  0.00    +0.149 HD
ENDROOT
BRANCH   1   6
ATOM      5  C   UNL     1      -0.019   1.526   0.010  0.00  0.00    +0.033 C 
ATOM      6  C   UNL     1       0.002  -0.004   0.002  0.00  0.00    +0.100 C 
BRANCH   6   7
ATOM      7  C   UNL     1       0.707  -0.490  -1.238  0.00  0.00    -0.027 A 
ATOM      8  C   UNL     1       0.040  -0.523  -2.448  0.00  0.00    +0.006 A 
ATOM      9  C   UNL     1       0.691  -0.972  -3.578  0.00  0.00    +0.004 A 
ATOM     10  C   UNL     1       2.014  -1.390  -3.511  0.00  0.00    -0.044 A 
ATOM     11  C   UNL     1       2.680  -1.353  -2.307  0.00  0.00    -0.044 A 
ATOM     12  C   UNL     1       2.023  -0.899  -1.170  0.00  0.00    +0.009 A 
ATOM     13  C   UNL     1       4.119  -1.776  -2.163  0.00  0.00    +0.035 C 
ATOM     14  C   UNL     1       4.551  -2.625  -3.357  0.00  0.00    +0.005 C 
ATOM     15  C   UNL     1       4.183  -1.876  -4.642  0.00  0.00    +0.005 C 
ATOM     16  C   UNL     1       2.662  -1.876  -4.781  0.00  0.00    +0.035 C 
ENDBRANCH   6   7
ENDBRANCH   1   6
BRANCH   2  17
ATOM     17  C   UNL     1      -3.442  -1.177   1.191  0.00  0.00    +0.180 C 
BRANCH  17  18
ATOM     18  N   UNL     1      -3.930  -1.240   2.575  0.00  0.00    -0.291 NA
ATOM     19  C   UNL     1      -4.042   0.104   3.157  0.00  0.00    +0.104 C 
ATOM     20  C   UNL     1      -4.377  -0.014   4.647  0.00  0.00    +0.122 C 
ATOM     21  N   UNL     1      -5.575  -0.855   4.792  0.00  0.00    -0.307 N 
ATOM     22  C   UNL     1      -5.591  -2.163   4.120  0.00  0.00    +0.122 C 
ATOM     23  C   UNL     1      -5.208  -1.961   2.651  0.00  0.00    +0.104 C 
ATOM     24  C   UNL     1      -6.659  -0.426   5.542  0.00  0.00    +0.161 A 
ATOM     25  N   UNL     1      -6.805   0.707   6.194  0.00  0.00    -0.233 NA
ATOM     26  C   UNL     1      -7.912   0.968   6.868  0.00  0.00    +0.120 A 
ATOM     27  C   UNL     1      -8.879   0.020   6.854  0.00  0.00    +0.068 A 
ATOM     28  S   UNL     1      -8.111  -1.226   5.832  0.00  0.00    -0.061 S 
ENDBRANCH  17  18
ENDBRANCH   2  17
TORSDOF 4
