REMARK  Name = ZINC33324918
REMARK  6 active torsions:
REMARK  status: ('A' for Active; 'I' for Inactive)
REMARK    1  A    between atoms: C_1  and  C_2
REMARK    2  A    between atoms: C_10  and  C_12
REMARK    3  A    between atoms: C_15  and  O_19
REMARK    4  A    between atoms: C_16  and  O_18
REMARK    5  A    between atoms: O_19  and  C_20
REMARK    6  A    between atoms: C_24  and  C_27
REMARK                            x       y       z     vdW  Elec       q    Type
REMARK                         _______ _______ _______ _____ _____    ______ ____
ROOT
ATOM      1  C   UNL     1      -1.922  13.226   1.014  0.00  0.00    +0.069 C 
ATOM      2  C   UNL     1      -1.694  11.996   1.854  0.00  0.00    +0.087 A 
ATOM      3  C   UNL     1      -1.300  10.738   1.406  0.00  0.00    +0.049 A 
ATOM      4  C   UNL     1      -1.236   9.974   2.543  0.00  0.00    +0.226 A 
ATOM      5  O   UNL     1      -1.574  10.773   3.549  0.00  0.00    -0.339 OA
ATOM      6  N   UNL     1      -1.828  11.894   3.153  0.00  0.00    -0.081 NA
ATOM      7  N   UNL     1      -0.880   8.642   2.488  0.00  0.00    -0.286 N 
ATOM      8  C   UNL     1      -0.874   8.013   1.265  0.00  0.00    +0.019 C 
ATOM      9  C   UNL     1      -0.919   8.693   0.099  0.00  0.00    +0.024 C 
ATOM     10  C   UNL     1      -0.985  10.206   0.045  0.00  0.00    +0.091 C 
ATOM     11  C   UNL     1      -0.908   8.015  -1.134  0.00  0.00    +0.162 C 
ATOM     12  O   UNL     1      -0.971   8.656  -2.164  0.00  0.00    -0.292 OA
ATOM     13  C   UNL     1      -0.820   6.516  -1.206  0.00  0.00    +0.088 C 
ATOM     14  C   UNL     1      -0.079   6.003   0.034  0.00  0.00    +0.032 C 
ATOM     15  C   UNL     1      -0.820   6.503   1.276  0.00  0.00    +0.059 C 
ATOM     16  H   UNL     1      -0.609   8.107   3.409  0.00  0.00    +0.155 HD
ENDROOT
BRANCH  14  17
ATOM     17  C   UNL     1      -0.059   4.497   0.026  0.00  0.00    -0.043 A 
ATOM     18  C   UNL     1       1.148   3.822   0.012  0.00  0.00    +0.005 A 
ATOM     19  C   UNL     1       1.167   2.440   0.004  0.00  0.00    +0.020 A 
ATOM     20  C   UNL     1      -0.021   1.732   0.012  0.00  0.00    +0.041 A 
ATOM     21  C   UNL     1      -1.229   2.407   0.021  0.00  0.00    +0.020 A 
ATOM     22  C   UNL     1      -1.247   3.789   0.034  0.00  0.00    +0.005 A 
ATOM     23 CL   UNL     1       0.002  -0.004   0.002  0.00  0.00    -0.084 Cl
ENDBRANCH  14  17
BRANCH  10  24
ATOM     24  C   UNL     1       0.344  10.750  -0.412  0.00  0.00    -0.032 A 
ATOM     25  C   UNL     1       1.486  10.490   0.322  0.00  0.00    +0.008 A 
ATOM     26  C   UNL     1       2.707  10.988  -0.094  0.00  0.00    +0.050 A 
ATOM     27  C   UNL     1       2.788  11.748  -1.249  0.00  0.00    +0.161 A 
ATOM     28  C   UNL     1       1.639  12.009  -1.989  0.00  0.00    +0.159 A 
ATOM     29  C   UNL     1       0.419  11.503  -1.569  0.00  0.00    +0.053 A 
BRANCH  28  30
ATOM     30  O   UNL     1       1.714  12.754  -3.124  0.00  0.00    -0.503 OA
ATOM     31  H   UNL     1       0.804  12.960  -3.708  0.00  0.00    +0.292 HD
ENDBRANCH  28  30
BRANCH  27  32
ATOM     32  O   UNL     1       3.989  12.237  -1.660  0.00  0.00    -0.491 OA
ATOM     33  C   UNL     1       5.126  11.929  -0.851  0.00  0.00    +0.277 C 
ENDBRANCH  27  32
ENDBRANCH  10  24
TORSDOF 4
