REMARK  Name = ZINC39940362
REMARK  8 active torsions:
REMARK  status: ('A' for Active; 'I' for Inactive)
REMARK    1  A    between atoms: C_2  and  C_3
REMARK    2  A    between atoms: C_3  and  N_4
REMARK    3  A    between atoms: C_5  and  O_35
REMARK    4  A    between atoms: C_7  and  C_14
REMARK    5  A    between atoms: C_14  and  C_16
REMARK    6  A    between atoms: C_14  and  C_22
REMARK    7  A    between atoms: N_28  and  C_31
REMARK    8  A    between atoms: C_31  and  C_32
REMARK                            x       y       z     vdW  Elec       q    Type
REMARK                         _______ _______ _______ _____ _____    ______ ____
ROOT
ATOM      1  C   UNL     1       0.304  -1.202  -3.649  0.00  0.00    +0.076 C 
ENDROOT
BRANCH   1   2
ATOM      2  C   UNL     1       0.202   0.257  -4.011  0.00  0.00    +0.090 A 
ATOM      3  H   UNL     1      -1.925   2.530  -4.904  0.00  0.00    +0.173 HD
ATOM      4  C   UNL     1      -1.002   0.805  -4.342  0.00  0.00    +0.262 A 
ATOM      5  N   UNL     1      -1.071   2.136  -4.668  0.00  0.00    -0.274 N 
ATOM      6  C   UNL     1       0.038   2.898  -4.663  0.00  0.00    +0.332 A 
ATOM      7  O   UNL     1      -0.042   4.075  -4.956  0.00  0.00    -0.246 OA
ATOM      8  N   UNL     1       1.235   2.376  -4.339  0.00  0.00    -0.257 N 
ATOM      9  C   UNL     1       1.347   1.074  -4.007  0.00  0.00    +0.264 A 
ATOM     10  O   UNL     1       2.433   0.608  -3.710  0.00  0.00    -0.267 OA
ATOM     11  O   UNL     1      -2.116   0.044  -4.349  0.00  0.00    -0.267 OA
BRANCH   8  12
ATOM     12  C   UNL     1       2.426   3.230  -4.343  0.00  0.00    +0.156 C 
BRANCH  12  13
ATOM     13  C   UNL     1       2.606   3.846  -2.979  0.00  0.00    -0.013 C 
ATOM     14  C   UNL     1       3.738   3.697  -2.337  0.00  0.00    +0.005 C 
ENDBRANCH  12  13
ENDBRANCH   8  12
ENDBRANCH   1   2
BRANCH   1  17
ATOM     15  N   UNL     1      -0.642  -1.024  -0.765  0.00  0.00    -0.255 N 
ATOM     16  C   UNL     1      -1.470  -0.763  -1.944  0.00  0.00    +0.219 C 
ATOM     17  C   UNL     1      -1.036  -1.683  -3.088  0.00  0.00    +0.134 C 
ATOM     18  C   UNL     1      -0.888  -3.089  -2.564  0.00  0.00    +0.228 C 
ATOM     19  O   UNL     1      -1.164  -4.033  -3.274  0.00  0.00    -0.275 OA
ATOM     20  N   UNL     1      -0.451  -3.297  -1.309  0.00  0.00    -0.240 N 
ATOM     21  C   UNL     1      -0.220  -2.266  -0.479  0.00  0.00    +0.311 C 
ATOM     22  O   UNL     1       0.382  -2.464   0.558  0.00  0.00    -0.252 OA
ATOM     23  H   UNL     1      -0.297  -4.203  -1.000  0.00  0.00    +0.159 HD
BRANCH  16  24
ATOM     24  O   UNL     1      -2.841  -1.013  -1.627  0.00  0.00    -0.373 OA
ATOM     25  H   UNL     1      -3.185  -0.464  -0.910  0.00  0.00    +0.212 HD
ENDBRANCH  16  24
BRANCH  15  26
ATOM     26  C   UNL     1      -0.263   0.087   0.111  0.00  0.00    +0.138 C 
BRANCH  26  28
ATOM     27  C   UNL     1       1.107   1.966  -0.634  0.00  0.00    +0.005 C 
ATOM     28  C   UNL     1       1.035   0.685  -0.369  0.00  0.00    -0.016 C 
ENDBRANCH  26  28
ENDBRANCH  15  26
ENDBRANCH   1  17
BRANCH   1  29
ATOM     29  C   UNL     1       0.649  -2.002  -4.879  0.00  0.00    -0.036 A 
ATOM     30  C   UNL     1      -0.167  -1.968  -6.000  0.00  0.00    +0.024 A 
ATOM     31  C   UNL     1       0.182  -2.715  -7.109  0.00  0.00    +0.111 A 
ATOM     32  N   UNL     1       1.275  -3.453  -7.109  0.00  0.00    -0.263 NA
ATOM     33  C   UNL     1       2.074  -3.509  -6.062  0.00  0.00    +0.111 A 
ATOM     34  C   UNL     1       1.793  -2.784  -4.919  0.00  0.00    +0.024 A 
ENDBRANCH   1  29
TORSDOF 8
