REMARK  Name = ZINC62497032
REMARK  6 active torsions:
REMARK  status: ('A' for Active; 'I' for Inactive)
REMARK    1  A    between atoms: C_1  and  C_2
REMARK    2  A    between atoms: C_2  and  C_3
REMARK    3  A    between atoms: C_8  and  C_9
REMARK    4  A    between atoms: C_9  and  C_10
REMARK    5  A    between atoms: N_14  and  C_23
REMARK    6  A    between atoms: C_18  and  O_22
REMARK                            x       y       z     vdW  Elec       q    Type
REMARK                         _______ _______ _______ _____ _____    ______ ____
ROOT
ATOM      1  C   UNL     1      -0.632  -1.469  -2.995  0.00  0.00    +0.263 C 
ATOM      2  C   UNL     1       0.122  -1.054  -4.233  0.00  0.00    +0.261 C 
ATOM      3  O   UNL     1       1.257  -0.634  -4.143  0.00  0.00    -0.271 OA
ATOM      4  N   UNL     1      -0.470  -1.152  -5.442  0.00  0.00    -0.268 N 
ATOM      5  C   UNL     1      -1.732  -1.758  -5.538  0.00  0.00    +0.078 A 
ATOM      6  C   UNL     1      -2.465  -1.673  -6.712  0.00  0.00    +0.031 A 
ATOM      7  C   UNL     1      -3.713  -2.263  -6.789  0.00  0.00    +0.047 A 
ATOM      8  C   UNL     1      -4.233  -2.939  -5.695  0.00  0.00    +0.120 A 
ATOM      9  C   UNL     1      -3.500  -3.030  -4.520  0.00  0.00    +0.093 A 
ATOM     10  C   UNL     1      -2.248  -2.446  -4.442  0.00  0.00    +0.146 A 
ATOM     11  O   UNL     1      -1.507  -2.555  -3.308  0.00  0.00    -0.477 OA
ATOM     12  C   UNL     1       0.197  -0.632  -6.638  0.00  0.00    +0.138 C 
ENDROOT
BRANCH   8  13
ATOM     13  O   UNL     1      -5.463  -3.513  -5.774  0.00  0.00    -0.507 OA
ATOM     14  H   UNL     1      -5.450  -4.429  -6.084  0.00  0.00    +0.292 HD
ENDBRANCH   8  13
BRANCH   1  15
ATOM     15  C   UNL     1      -1.452  -0.286  -2.478  0.00  0.00    +0.089 C 
BRANCH  15  21
ATOM     16  C   UNL     1      -1.412  -0.526   0.013  0.00  0.00    -0.044 A 
ATOM     17  C   UNL     1      -2.015  -0.864   1.210  0.00  0.00    +0.004 A 
ATOM     18  C   UNL     1      -3.311  -1.342   1.220  0.00  0.00    +0.000 A 
ATOM     19  C   UNL     1      -4.006  -1.482   0.032  0.00  0.00    +0.000 A 
ATOM     20  C   UNL     1      -3.403  -1.143  -1.164  0.00  0.00    +0.004 A 
ATOM     21  C   UNL     1      -2.108  -0.661  -1.174  0.00  0.00    -0.040 A 
BRANCH  16  23
ATOM     22  C   UNL     1      -0.019   1.526   0.010  0.00  0.00    +0.009 C 
ATOM     23  C   UNL     1       0.002  -0.004   0.002  0.00  0.00    +0.032 C 
ENDBRANCH  16  23
ENDBRANCH  15  21
ENDBRANCH   1  15
TORSDOF 4
