REMARK  Name = ZINC11860191
REMARK  8 active torsions:
REMARK  status: ('A' for Active; 'I' for Inactive)
REMARK    1  A    between atoms: C_1  and  C_2
REMARK    2  A    between atoms: C_5  and  C_8
REMARK    3  A    between atoms: C_8  and  O_9
REMARK    4  A    between atoms: O_9  and  C_10
REMARK    5  A    between atoms: C_11  and  C_18
REMARK    6  A    between atoms: C_15  and  O_16
REMARK    7  A    between atoms: O_16  and  C_17
REMARK    8  A    between atoms: C_28  and  O_30
REMARK                            x       y       z     vdW  Elec       q    Type
REMARK                         _______ _______ _______ _____ _____    ______ ____
ROOT
ATOM      1  C   UNL     1       4.636   2.678  -0.427  0.00  0.00    +0.166 A 
ATOM      2  C   UNL     1       3.445   3.188  -0.919  0.00  0.00    +0.006 A 
ATOM      3  C   UNL     1       3.138   3.054  -2.260  0.00  0.00    +0.008 A 
ATOM      4  C   UNL     1       4.015   2.408  -3.112  0.00  0.00    +0.004 A 
ATOM      5  C   UNL     1       5.202   1.893  -2.627  0.00  0.00    +0.049 A 
ATOM      6  C   UNL     1       5.516   2.023  -1.284  0.00  0.00    +0.162 A 
ENDROOT
BRANCH   2   7
ATOM      7  C   UNL     1       2.488   3.892   0.007  0.00  0.00    +0.067 C 
ATOM      8  C   UNL     1       2.290   5.335  -0.468  0.00  0.00    +0.134 C 
ATOM      9  C   UNL     1       1.049   5.874   0.217  0.00  0.00    +0.313 C 
ATOM     10  O   UNL     1       1.091   6.856   0.919  0.00  0.00    -0.250 OA
ATOM     11  O   UNL     1      -0.103   5.208   0.006  0.00  0.00    -0.425 OA
ATOM     12  C   UNL     1      -0.041   3.849   0.015  0.00  0.00    +0.139 A 
ATOM     13  C   UNL     1       1.165   3.169   0.005  0.00  0.00    +0.003 A 
ATOM     14  C   UNL     1       1.173   1.783   0.000  0.00  0.00    +0.011 A 
ATOM     15  C   UNL     1      -0.013   1.076   0.008  0.00  0.00    +0.046 A 
ATOM     16  C   UNL     1      -1.223   1.754   0.017  0.00  0.00    +0.120 A 
ATOM     17  C   UNL     1      -1.236   3.139   0.027  0.00  0.00    +0.092 A 
BRANCH  16  18
ATOM     18  O   UNL     1      -2.392   1.061   0.022  0.00  0.00    -0.507 OA
ATOM     19  H   UNL     1      -2.725   0.858   0.907  0.00  0.00    +0.292 HD
ENDBRANCH  16  18
ENDBRANCH   2   7
BRANCH   6  20
ATOM     20  O   UNL     1       6.683   1.516  -0.804  0.00  0.00    -0.491 OA
ATOM     21  C   UNL     1       7.540   0.861  -1.742  0.00  0.00    +0.277 C 
ENDBRANCH   6  20
BRANCH   1  22
ATOM     22  O   UNL     1       4.942   2.812   0.891  0.00  0.00    -0.483 OA
BRANCH  22  23
ATOM     23  C   UNL     1       4.512   1.769   1.767  0.00  0.00    +0.264 C 
BRANCH  23  28
ATOM     24  C   UNL     1       6.144   2.995   7.173  0.00  0.00    +0.044 C 
ATOM     25  C   UNL     1       5.718   2.675   5.764  0.00  0.00    -0.050 A 
ATOM     26  C   UNL     1       4.490   3.106   5.298  0.00  0.00    +0.004 A 
ATOM     27  C   UNL     1       4.099   2.812   4.004  0.00  0.00    +0.007 A 
ATOM     28  C   UNL     1       4.937   2.088   3.177  0.00  0.00    -0.010 A 
ATOM     29  C   UNL     1       6.163   1.653   3.645  0.00  0.00    +0.007 A 
ATOM     30  C   UNL     1       6.555   1.950   4.936  0.00  0.00    +0.004 A 
ENDBRANCH  23  28
ENDBRANCH  22  23
ENDBRANCH   1  22
TORSDOF 6
