REMARK  Name = ZINC14812543
REMARK  7 active torsions:
REMARK  status: ('A' for Active; 'I' for Inactive)
REMARK    1  A    between atoms: C_1  and  C_2
REMARK    2  A    between atoms: C_2  and  C_4
REMARK    3  A    between atoms: C_2  and  O_23
REMARK    4  A    between atoms: N_6  and  C_7
REMARK    5  A    between atoms: O_23  and  C_24
REMARK    6  A    between atoms: C_24  and  C_26
REMARK    7  A    between atoms: C_27  and  C_28
REMARK                            x       y       z     vdW  Elec       q    Type
REMARK                         _______ _______ _______ _____ _____    ______ ____
ROOT
ATOM      1  C   UNL     1       3.616  -2.036   0.062  0.00  0.00    +0.258 C 
ATOM      2  O   UNL     1       2.568  -2.646   0.069  0.00  0.00    -0.271 OA
ATOM      3  N   UNL     1       3.613  -0.692  -0.034  0.00  0.00    -0.282 N 
ATOM      4  H   UNL     1       4.451  -0.209  -0.107  0.00  0.00    +0.155 HD
ENDROOT
BRANCH   3   5
ATOM      5  C   UNL     1       2.408   0.003  -0.028  0.00  0.00    +0.045 A 
ATOM      6  C   UNL     1       1.277  -0.548  -0.630  0.00  0.00    +0.024 A 
ATOM      7  C   UNL     1       0.081   0.137  -0.626  0.00  0.00    +0.003 A 
ATOM      8  C   UNL     1      -0.017   1.382  -0.023  0.00  0.00    +0.012 A 
ATOM      9  C   UNL     1       1.096   1.950   0.583  0.00  0.00    +0.035 A 
ATOM     10  C   UNL     1       2.323   1.258   0.583  0.00  0.00    +0.054 A 
ATOM     11  C   UNL     1       3.505   1.862   1.226  0.00  0.00    +0.196 C 
ATOM     12  O   UNL     1       4.491   1.190   1.456  0.00  0.00    -0.287 OA
ATOM     13  C   UNL     1       3.476   3.297   1.588  0.00  0.00    +0.033 A 
ATOM     14  C   UNL     1       4.648   3.965   1.925  0.00  0.00    +0.012 A 
ATOM     15  C   UNL     1       4.602   5.307   2.261  0.00  0.00    +0.001 A 
ATOM     16  C   UNL     1       3.399   5.989   2.262  0.00  0.00    +0.001 A 
ATOM     17  C   UNL     1       2.223   5.339   1.929  0.00  0.00    +0.012 A 
ATOM     18  C   UNL     1       2.252   3.990   1.589  0.00  0.00    +0.033 A 
ATOM     19  C   UNL     1       1.006   3.279   1.228  0.00  0.00    +0.195 C 
ATOM     20  O   UNL     1      -0.077   3.778   1.459  0.00  0.00    -0.287 OA
ENDBRANCH   3   5
BRANCH   1  22
ATOM     21  C   UNL     1       5.622  -2.413   1.470  0.00  0.00    +0.062 C 
ATOM     22  C   UNL     1       4.922  -2.782   0.161  0.00  0.00    +0.259 C 
BRANCH  22  23
ATOM     23  O   UNL     1       4.671  -4.188   0.134  0.00  0.00    -0.449 OA
BRANCH  23  24
ATOM     24  C   UNL     1       5.632  -4.972  -0.397  0.00  0.00    +0.333 C 
ATOM     25  O   UNL     1       6.655  -4.474  -0.827  0.00  0.00    -0.246 OA
BRANCH  24  26
ATOM     26  C   UNL     1       5.449  -6.377  -0.456  0.00  0.00    +0.092 C 
ATOM     27  C   UNL     1       6.412  -7.163  -0.988  0.00  0.00    +0.017 C 
BRANCH  27  28
ATOM     28  C   UNL     1       6.223  -8.616  -1.049  0.00  0.00    +0.001 A 
ATOM     29  C   UNL     1       5.060  -9.202  -0.556  0.00  0.00    +0.010 A 
ATOM     30  C   UNL     1       4.880 -10.576  -0.619  0.00  0.00    +0.001 A 
ATOM     31  C   UNL     1       5.827 -11.399  -1.148  0.00  0.00    +0.010 A 
ATOM     32  C   UNL     1       7.027 -10.877  -1.658  0.00  0.00    +0.001 A 
ATOM     33  C   UNL     1       7.256  -9.480  -1.622  0.00  0.00    +0.078 A 
ATOM     34  N   UNL     1       8.391  -8.977  -2.103  0.00  0.00    -0.254 NA
ATOM     35  C   UNL     1       9.317  -9.753  -2.617  0.00  0.00    +0.111 A 
ATOM     36  C   UNL     1       9.159 -11.134  -2.684  0.00  0.00    +0.020 A 
ATOM     37  C   UNL     1       8.017 -11.714  -2.208  0.00  0.00    +0.011 A 
ENDBRANCH  27  28
ENDBRANCH  24  26
ENDBRANCH  23  24
ENDBRANCH  22  23
ENDBRANCH   1  22
TORSDOF 6
