REMARK  Name = ZINC20422704
REMARK  5 active torsions:
REMARK  status: ('A' for Active; 'I' for Inactive)
REMARK    1  A    between atoms: C_1  and  C_2
REMARK    2  A    between atoms: C_10  and  O_13
REMARK    3  A    between atoms: O_13  and  C_14
REMARK    4  A    between atoms: C_14  and  C_16
REMARK    5  A    between atoms: C_14  and  C_17
REMARK                            x       y       z     vdW  Elec       q    Type
REMARK                         _______ _______ _______ _____ _____    ______ ____
ROOT
ATOM      1  C   UNL     1       3.565  -0.936  -5.663  0.00  0.00    +0.028 C 
ATOM      2  C   UNL     1       2.067  -0.668  -5.512  0.00  0.00    +0.068 C 
ATOM      3  C   UNL     1       1.279  -1.621  -6.420  0.00  0.00    +0.026 C 
ATOM      4  C   UNL     1      -0.190  -1.192  -6.393  0.00  0.00    +0.039 C 
ATOM      5  C   UNL     1      -0.627  -0.969  -4.968  0.00  0.00    -0.023 A 
ATOM      6  C   UNL     1      -1.988  -0.897  -4.705  0.00  0.00    +0.005 A 
ATOM      7  C   UNL     1      -2.446  -0.686  -3.421  0.00  0.00    +0.004 A 
ATOM      8  C   UNL     1      -1.544  -0.549  -2.381  0.00  0.00    +0.047 A 
ATOM      9  C   UNL     1      -0.187  -0.616  -2.633  0.00  0.00    +0.143 A 
ATOM     10  C   UNL     1       0.281  -0.832  -3.935  0.00  0.00    +0.073 A 
ATOM     11  N   UNL     1       1.663  -0.904  -4.124  0.00  0.00    -0.338 N 
ATOM     12  H   UNL     1       2.424  -1.111  -3.358  0.00  0.00    +0.146 HD
ENDROOT
BRANCH   9  13
ATOM     13  O   UNL     1       0.699  -0.478  -1.610  0.00  0.00    -0.478 OA
BRANCH  13  14
ATOM     14  C   UNL     1       0.159  -0.193  -0.318  0.00  0.00    +0.256 C 
ATOM     15  C   UNL     1      -0.106   1.309  -0.196  0.00  0.00    +0.062 C 
BRANCH  14  16
ATOM     16  C   UNL     1       1.142  -0.618   0.742  0.00  0.00    +0.256 C 
ATOM     17  O   UNL     1       2.257  -0.975   0.427  0.00  0.00    -0.272 OA
ATOM     18  N   UNL     1       0.781  -0.601   2.041  0.00  0.00    -0.298 N 
ATOM     19  C   UNL     1       1.664  -0.894   3.179  0.00  0.00    +0.108 C 
ATOM     20  C   UNL     1       0.814  -0.776   4.461  0.00  0.00    +0.020 C 
ATOM     21  C   UNL     1      -0.631  -0.986   3.938  0.00  0.00    +0.020 C 
ATOM     22  C   UNL     1      -0.565  -0.291   2.555  0.00  0.00    +0.108 C 
ENDBRANCH  14  16
ENDBRANCH  13  14
ENDBRANCH   9  13
TORSDOF 3
