REMARK  Name = ZINC47678928
REMARK  7 active torsions:
REMARK  status: ('A' for Active; 'I' for Inactive)
REMARK    1  A    between atoms: C_1  and  C_2
REMARK    2  A    between atoms: C_6  and  N_9
REMARK    3  A    between atoms: C_7  and  C_8
REMARK    4  A    between atoms: N_12  and  C_13
REMARK    5  A    between atoms: C_19  and  C_21
REMARK    6  A    between atoms: C_21  and  C_22
REMARK    7  A    between atoms: C_21  and  C_23
REMARK                            x       y       z     vdW  Elec       q    Type
REMARK                         _______ _______ _______ _____ _____    ______ ____
ROOT
ATOM      1  N   UNL     1      -2.153  -2.390  -1.103  0.00  0.00    -0.296 N 
ATOM      2  C   UNL     1      -2.159  -3.389  -0.199  0.00  0.00    +0.300 C 
ATOM      3  O   UNL     1      -1.152  -3.642   0.434  0.00  0.00    -0.253 OA
ATOM      4  N   UNL     1      -3.281  -4.108   0.004  0.00  0.00    -0.296 N 
ATOM      5  H   UNL     1      -2.956  -2.188  -1.608  0.00  0.00    +0.151 HD
ATOM      6  H   UNL     1      -4.084  -3.906  -0.501  0.00  0.00    +0.151 HD
ENDROOT
BRANCH   1  12
ATOM      7  C   UNL     1      -2.426   0.997  -3.734  0.00  0.00    +0.008 C 
ATOM      8  C   UNL     1      -2.055  -0.384  -3.191  0.00  0.00    -0.009 C 
ATOM      9  C   UNL     1      -1.162  -1.107  -4.201  0.00  0.00    +0.003 C 
ATOM     10  C   UNL     1      -0.791  -2.488  -3.658  0.00  0.00    +0.002 C 
ATOM     11  C   UNL     1      -0.041  -2.331  -2.334  0.00  0.00    +0.022 C 
ATOM     12  C   UNL     1      -0.934  -1.609  -1.324  0.00  0.00    +0.078 C 
ATOM     13  C   UNL     1      -1.304  -0.227  -1.867  0.00  0.00    +0.009 C 
ATOM     14  C   UNL     1      -2.197   0.496  -0.857  0.00  0.00    +0.009 C 
ENDBRANCH   1  12
BRANCH   4  15
ATOM     15  C   UNL     1      -3.288  -5.194   0.987  0.00  0.00    +0.077 C 
ATOM     16  C   UNL     1      -2.759  -6.474   0.336  0.00  0.00    +0.041 C 
ATOM     17  C   UNL     1      -2.734  -7.599   1.375  0.00  0.00    +0.109 C 
ATOM     18  N   UNL     1      -4.075  -7.730   1.962  0.00  0.00    -0.301 N 
ATOM     19  C   UNL     1      -4.715  -6.537   2.535  0.00  0.00    +0.109 C 
ATOM     20  C   UNL     1      -4.717  -5.425   1.482  0.00  0.00    +0.041 C 
ATOM     21  C   UNL     1      -4.706  -8.920   1.974  0.00  0.00    +0.218 C 
ATOM     22  O   UNL     1      -4.202  -9.880   1.430  0.00  0.00    -0.275 OA
BRANCH  21  23
ATOM     23  C   UNL     1      -6.039  -9.060   2.663  0.00  0.00    +0.069 C 
ATOM     24  C   UNL     1      -6.758 -10.303   2.135  0.00  0.00    +0.017 C 
ATOM     25  C   UNL     1      -5.822  -9.198   4.171  0.00  0.00    +0.017 C 
ENDBRANCH  21  23
ENDBRANCH   4  15
TORSDOF 3
