REMARK  Name = ZINC02376520
REMARK  13 active torsions:
REMARK  status: ('A' for Active; 'I' for Inactive)
REMARK    1  A    between atoms: C_1  and  N_2
REMARK    2  A    between atoms: N_2  and  C_3
REMARK    3  A    between atoms: N_2  and  C_4
REMARK    4  A    between atoms: C_7  and  P_10
REMARK    5  A    between atoms: P_10  and  C_12
REMARK    6  A    between atoms: P_10  and  O_25
REMARK    7  A    between atoms: C_12  and  C_14
REMARK    8  A    between atoms: C_12  and  O_24
REMARK    9  A    between atoms: C_17  and  O_22
REMARK   10  A    between atoms: C_19  and  O_20
REMARK   11  A    between atoms: O_20  and  C_21
REMARK   12  A    between atoms: O_22  and  C_23
REMARK   13  A    between atoms: O_25  and  C_26
REMARK                            x       y       z     vdW  Elec       q    Type
REMARK                         _______ _______ _______ _____ _____    ______ ____
ROOT
ATOM      1  P   UNL     1       0.110  -2.832   2.405  0.00  0.00    +0.266 P 
ATOM      2  O   UNL     1       0.681  -2.429   3.709  0.00  0.00    -0.283 OA
ENDROOT
BRANCH   1   6
ATOM      3  C   UNL     1      -4.427  -2.195   2.464  0.00  0.00    +0.029 A 
ATOM      4  C   UNL     1      -3.724  -2.084   1.271  0.00  0.00    +0.024 A 
ATOM      5  C   UNL     1      -2.356  -2.277   1.257  0.00  0.00    +0.015 A 
ATOM      6  C   UNL     1      -1.687  -2.580   2.428  0.00  0.00    +0.040 A 
ATOM      7  C   UNL     1      -2.384  -2.696   3.617  0.00  0.00    +0.015 A 
ATOM      8  C   UNL     1      -3.751  -2.499   3.639  0.00  0.00    +0.024 A 
BRANCH   3  10
ATOM      9  C   UNL     1      -6.521  -1.680   1.242  0.00  0.00    +0.129 C 
ATOM     10  N   UNL     1      -5.810  -2.001   2.482  0.00  0.00    -0.336 N 
ATOM     11  C   UNL     1      -6.549  -2.118   3.741  0.00  0.00    +0.129 C 
ENDBRANCH   3  10
ENDBRANCH   1   6
BRANCH   1  12
ATOM     12  C   UNL     1       0.472  -4.593   2.100  0.00  0.00    +0.238 C 
BRANCH  12  13
ATOM     13  C   UNL     1       1.964  -4.802   2.081  0.00  0.00    +0.032 A 
ATOM     14  C   UNL     1       2.812  -3.718   1.960  0.00  0.00    +0.014 A 
ATOM     15  C   UNL     1       4.181  -3.906   1.948  0.00  0.00    +0.046 A 
ATOM     16  C   UNL     1       4.707  -5.187   2.045  0.00  0.00    +0.124 A 
ATOM     17  C   UNL     1       3.858  -6.277   2.160  0.00  0.00    +0.091 A 
ATOM     18  C   UNL     1       2.485  -6.085   2.178  0.00  0.00    +0.130 A 
BRANCH  18  19
ATOM     19  O   UNL     1       1.651  -7.151   2.290  0.00  0.00    -0.495 OA
ATOM     20  C   UNL     1       2.256  -8.442   2.386  0.00  0.00    +0.277 C 
ENDBRANCH  18  19
BRANCH  16  21
ATOM     21  O   UNL     1       6.053  -5.372   2.026  0.00  0.00    -0.495 OA
ATOM     22  C   UNL     1       6.867  -4.204   1.905  0.00  0.00    +0.277 C 
ENDBRANCH  16  21
ENDBRANCH  12  13
BRANCH  12  23
ATOM     23  O   UNL     1      -0.081  -4.982   0.841  0.00  0.00    -0.377 OA
ATOM     24  H   UNL     1       0.268  -4.485   0.088  0.00  0.00    +0.211 HD
ENDBRANCH  12  23
ENDBRANCH   1  12
BRANCH   1  25
ATOM     25  O   UNL     1       0.761  -1.940   1.234  0.00  0.00    -0.319 OA
BRANCH  25  26
ATOM     26  C   UNL     1       0.742  -0.511   1.242  0.00  0.00    +0.126 C 
ATOM     27  C   UNL     1       0.002  -0.004   0.002  0.00  0.00    +0.032 C 
ATOM     28  C   UNL     1      -0.019   1.526   0.010  0.00  0.00    +0.003 C 
ATOM     29  C   UNL     1       1.417   2.055  -0.000  0.00  0.00    +0.000 C 
ATOM     30  C   UNL     1       2.157   1.548   1.239  0.00  0.00    +0.003 C 
ATOM     31  C   UNL     1       2.178   0.019   1.231  0.00  0.00    +0.032 C 
ENDBRANCH  25  26
ENDBRANCH   1  25
TORSDOF 9
