REMARK  Name = ZINC63375604
REMARK  9 active torsions:
REMARK  status: ('A' for Active; 'I' for Inactive)
REMARK    1  A    between atoms: C_1  and  C_2
REMARK    2  A    between atoms: C_5  and  C_8
REMARK    3  A    between atoms: N_26  and  C_29
REMARK    4  A    between atoms: C_32  and  C_35
REMARK    5  A    between atoms: N_37  and  C_38
REMARK    6  A    between atoms: C_38  and  C_39
REMARK    7  A    between atoms: C_39  and  C_40
REMARK    8  A    between atoms: C_40  and  C_41
REMARK    9  A    between atoms: C_40  and  C_42
REMARK                            x       y       z     vdW  Elec       q    Type
REMARK                         _______ _______ _______ _____ _____    ______ ____
ROOT
ATOM      1  C   UNL     1       0.059  -4.244  -0.005  0.00  0.00    +0.135 C 
ATOM      2  C   UNL     1      -1.348  -4.797   0.263  0.00  0.00    +0.131 C 
ATOM      3  C   UNL     1      -1.191  -6.267   0.628  0.00  0.00    -0.034 C 
ATOM      4  C   UNL     1      -1.929  -6.950  -0.241  0.00  0.00    -0.001 A 
ATOM      5  C   UNL     1      -2.221  -8.388  -0.358  0.00  0.00    +0.010 A 
ATOM      6  C   UNL     1      -3.021  -8.754  -1.395  0.00  0.00    +0.001 A 
ATOM      7  C   UNL     1      -3.553  -7.845  -2.314  0.00  0.00    +0.002 A 
ATOM      8  C   UNL     1      -3.342  -6.505  -2.278  0.00  0.00    +0.026 A 
ATOM      9  C   UNL     1      -2.519  -5.998  -1.230  0.00  0.00    +0.043 A 
ATOM     10  N   UNL     1      -2.169  -4.767  -0.951  0.00  0.00    -0.375 N 
ATOM     11  C   UNL     1      -0.289  -6.750   1.740  0.00  0.00    +0.065 C 
ATOM     12  C   UNL     1       0.490  -5.520   2.236  0.00  0.00    +0.169 C 
ATOM     13  N   UNL     1       0.940  -4.755   1.053  0.00  0.00    -0.264 N 
ATOM     14  C   UNL     1       2.272  -4.653   1.139  0.00  0.00    +0.317 C 
ATOM     15  O   UNL     1       2.952  -3.989   0.381  0.00  0.00    -0.252 OA
ATOM     16  N   UNL     1       2.770  -5.369   2.156  0.00  0.00    -0.193 N 
ATOM     17  C   UNL     1       1.777  -5.960   2.900  0.00  0.00    +0.248 C 
ATOM     18  O   UNL     1       1.893  -6.681   3.867  0.00  0.00    -0.273 OA
ATOM     19  H   UNL     1      -2.406  -3.973  -1.455  0.00  0.00    +0.160 HD
ENDROOT
BRANCH   1  24
ATOM     20  C   UNL     1      -0.042   1.532   0.138  0.00  0.00    +0.044 C 
ATOM     21  C   UNL     1      -0.016   0.025   0.101  0.00  0.00    -0.050 A 
ATOM     22  C   UNL     1      -0.007  -0.636  -1.113  0.00  0.00    +0.004 A 
ATOM     23  C   UNL     1       0.017  -2.018  -1.147  0.00  0.00    +0.006 A 
ATOM     24  C   UNL     1       0.033  -2.738   0.032  0.00  0.00    -0.025 A 
ATOM     25  C   UNL     1       0.026  -2.077   1.246  0.00  0.00    +0.006 A 
ATOM     26  C   UNL     1       0.006  -0.695   1.280  0.00  0.00    +0.004 A 
ENDBRANCH   1  24
BRANCH  16  27
ATOM     27  C   UNL     1       4.134  -5.491   2.438  0.00  0.00    +0.045 A 
ATOM     28  C   UNL     1       4.549  -6.156   3.586  0.00  0.00    +0.025 A 
ATOM     29  C   UNL     1       5.891  -6.278   3.867  0.00  0.00    +0.015 A 
ATOM     30  C   UNL     1       6.838  -5.732   2.996  0.00  0.00    +0.037 A 
ATOM     31  C   UNL     1       6.417  -5.064   1.842  0.00  0.00    +0.015 A 
ATOM     32  C   UNL     1       5.073  -4.952   1.565  0.00  0.00    +0.025 A 
BRANCH  30  33
ATOM     33  C   UNL     1       8.278  -5.860   3.293  0.00  0.00    +0.244 C 
ATOM     34  O   UNL     1       8.642  -6.441   4.297  0.00  0.00    -0.270 OA
ATOM     35  N   UNL     1       9.189  -5.333   2.452  0.00  0.00    -0.311 N 
ATOM     36  H   UNL     1       8.899  -4.870   1.651  0.00  0.00    +0.149 HD
BRANCH  35  37
ATOM     37  C   UNL     1      10.619  -5.460   2.747  0.00  0.00    +0.105 C 
BRANCH  37  38
ATOM     38  C   UNL     1      11.430  -4.781   1.642  0.00  0.00    +0.022 C 
BRANCH  38  39
ATOM     39  C   UNL     1      12.923  -4.913   1.950  0.00  0.00    -0.016 C 
ATOM     40  C   UNL     1      13.325  -6.388   1.899  0.00  0.00    +0.007 C 
ATOM     41  C   UNL     1      13.729  -4.128   0.914  0.00  0.00    +0.007 C 
ENDBRANCH  38  39
ENDBRANCH  37  38
ENDBRANCH  35  37
ENDBRANCH  30  33
ENDBRANCH  16  27
TORSDOF 6
