REMARK  Name = ZINC12555866
REMARK  9 active torsions:
REMARK  status: ('A' for Active; 'I' for Inactive)
REMARK    1  A    between atoms: C_4  and  C_7
REMARK    2  A    between atoms: C_7  and  O_8
REMARK    3  A    between atoms: O_8  and  C_9
REMARK    4  A    between atoms: C_12  and  C_16
REMARK    5  A    between atoms: C_17  and  C_18
REMARK    6  A    between atoms: C_17  and  C_20
REMARK    7  A    between atoms: N_22  and  C_23
REMARK    8  A    between atoms: C_26  and  N_30
REMARK    9  A    between atoms: C_28  and  O_29
REMARK                            x       y       z     vdW  Elec       q    Type
REMARK                         _______ _______ _______ _____ _____    ______ ____
ROOT
ATOM      1  C   UNL     1       0.163  -0.322   0.060  0.00  0.00    +0.032 C 
ATOM      2  C   UNL     1      -0.977  -0.822   0.650  0.00  0.00    +0.114 C 
ENDROOT
BRANCH   1   6
ATOM      3  C   UNL     1       3.814  -2.442   0.357  0.00  0.00    +0.135 A 
ATOM      4  C   UNL     1       3.814  -1.051   0.362  0.00  0.00    +0.047 A 
ATOM      5  C   UNL     1       2.639  -0.362   0.262  0.00  0.00    +0.011 A 
ATOM      6  C   UNL     1       1.425  -1.057   0.163  0.00  0.00    -0.022 A 
ATOM      7  C   UNL     1       1.425  -2.460   0.158  0.00  0.00    +0.027 A 
ATOM      8  C   UNL     1       2.616  -3.143   0.255  0.00  0.00    +0.060 A 
ATOM      9 BR   UNL     1       2.624  -5.034   0.247  0.00  0.00    -0.046 Br
BRANCH   3  10
ATOM     10  O   UNL     1       4.987  -3.118   0.453  0.00  0.00    -0.486 OA
BRANCH  10  11
ATOM     11  C   UNL     1       6.179  -2.338   0.555  0.00  0.00    +0.264 C 
BRANCH  11  15
ATOM     12  C   UNL     1       9.561  -4.933   0.829  0.00  0.00    +0.000 A 
ATOM     13  C   UNL     1       9.114  -4.508  -0.409  0.00  0.00    +0.000 A 
ATOM     14  C   UNL     1       8.019  -3.669  -0.497  0.00  0.00    +0.007 A 
ATOM     15  C   UNL     1       7.372  -3.253   0.652  0.00  0.00    -0.010 A 
ATOM     16  C   UNL     1       7.823  -3.673   1.889  0.00  0.00    +0.007 A 
ATOM     17  C   UNL     1       8.914  -4.517   1.977  0.00  0.00    +0.000 A 
ENDBRANCH  11  15
ENDBRANCH  10  11
ENDBRANCH   3  10
ENDBRANCH   1   6
BRANCH   2  18
ATOM     18  C   UNL     1      -2.221  -0.039   0.628  0.00  0.00    +0.259 C 
ATOM     19  O   UNL     1      -2.244   1.052   0.089  0.00  0.00    -0.269 OA
ATOM     20  N   UNL     1      -3.336  -0.529   1.205  0.00  0.00    -0.278 N 
ATOM     21  H   UNL     1      -3.298  -1.357   1.708  0.00  0.00    +0.155 HD
BRANCH  20  22
ATOM     22  C   UNL     1      -4.550   0.159   1.079  0.00  0.00    +0.076 A 
ATOM     23  C   UNL     1      -4.760   1.009   0.003  0.00  0.00    +0.029 A 
ATOM     24  C   UNL     1      -5.958   1.686  -0.120  0.00  0.00    +0.035 A 
ATOM     25  C   UNL     1      -6.950   1.518   0.829  0.00  0.00    +0.130 A 
ATOM     26  C   UNL     1      -6.749   0.673   1.904  0.00  0.00    +0.080 A 
ATOM     27  C   UNL     1      -5.553  -0.014   2.031  0.00  0.00    +0.140 A 
BRANCH  25  28
ATOM     28  N   UNL     1      -8.232   2.247   0.692  0.00  0.00    +0.057 N 
ATOM     29  O   UNL     1      -8.411   2.992  -0.255  0.00  0.00    -0.126 OA
ATOM     30  O   UNL     1      -9.107   2.100   1.526  0.00  0.00    -0.126 OA
ENDBRANCH  25  28
BRANCH  27  31
ATOM     31  O   UNL     1      -5.355  -0.850   3.085  0.00  0.00    -0.505 OA
ATOM     32  H   UNL     1      -4.967  -0.421   3.860  0.00  0.00    +0.292 HD
ENDBRANCH  27  31
ENDBRANCH  20  22
ENDBRANCH   2  18
BRANCH   2  33
ATOM     33  C   UNL     1      -0.948  -2.103   1.289  0.00  0.00    +0.104 C 
ATOM     34  N   UNL     1      -0.926  -3.120   1.796  0.00  0.00    -0.191 NA
ENDBRANCH   2  33
TORSDOF 9
