REMARK  Name = ZINC36146738
REMARK  11 active torsions:
REMARK  status: ('A' for Active; 'I' for Inactive)
REMARK    1  A    between atoms: C_4  and  O_7
REMARK    2  A    between atoms: O_7  and  C_8
REMARK    3  A    between atoms: C_8  and  C_9
REMARK    4  A    between atoms: C_9  and  C_11
REMARK    5  A    between atoms: C_9  and  O_36
REMARK    6  A    between atoms: C_11  and  N_12
REMARK    7  A    between atoms: N_12  and  C_13
REMARK    8  A    between atoms: N_12  and  C_21
REMARK    9  A    between atoms: C_13  and  C_14
REMARK   10  A    between atoms: C_21  and  C_22
REMARK   11  A    between atoms: C_25  and  C_28
REMARK                            x       y       z     vdW  Elec       q    Type
REMARK                         _______ _______ _______ _____ _____    ______ ____
ROOT
ATOM      1  N   UNL     1       6.234  -4.414  -0.013  0.00  0.00    +0.387 N 
ATOM      2  H   UNL     1       6.660  -4.039   0.821  0.00  0.00    -0.081 HD
ENDROOT
BRANCH   1   3
ATOM      3  C   UNL     1       4.876  -3.873  -0.155  0.00  0.00    -0.043 C 
BRANCH   3   4
ATOM      4  C   UNL     1       4.897  -2.366   0.107  0.00  0.00    +0.135 C 
BRANCH   4   5
ATOM      5  O   UNL     1       5.623  -1.712  -0.936  0.00  0.00    -0.390 OA
ATOM      6  H   UNL     1       5.181  -1.733  -1.796  0.00  0.00    +0.210 HD
ENDBRANCH   4   5
BRANCH   4   7
ATOM      7  C   UNL     1       3.462  -1.834   0.140  0.00  0.00    +0.258 C 
BRANCH   7   8
ATOM      8  O   UNL     1       3.475  -0.451   0.499  0.00  0.00    -0.489 OA
BRANCH   8  12
ATOM      9  C   UNL     1      -0.174   1.459   0.727  0.00  0.00    +0.000 A 
ATOM     10  C   UNL     1       0.989   2.158   0.993  0.00  0.00    +0.004 A 
ATOM     11  C   UNL     1       2.212   1.521   0.918  0.00  0.00    +0.045 A 
ATOM     12  C   UNL     1       2.273   0.178   0.575  0.00  0.00    +0.121 A 
ATOM     13  C   UNL     1       1.105  -0.521   0.308  0.00  0.00    +0.045 A 
ATOM     14  C   UNL     1      -0.116   0.121   0.385  0.00  0.00    +0.004 A 
ENDBRANCH   8  12
ENDBRANCH   7   8
ENDBRANCH   4   7
ENDBRANCH   3   4
ENDBRANCH   1   3
BRANCH   1  15
ATOM     15  C   UNL     1       7.036  -4.035  -1.184  0.00  0.00    -0.043 C 
BRANCH  15  16
ATOM     16  C   UNL     1       6.461  -4.683  -2.418  0.00  0.00    -0.064 A 
ATOM     17  C   UNL     1       6.907  -5.929  -2.816  0.00  0.00    +0.004 A 
ATOM     18  C   UNL     1       6.380  -6.524  -3.946  0.00  0.00    +0.038 A 
ATOM     19  C   UNL     1       5.404  -5.871  -4.680  0.00  0.00    +0.123 A 
ATOM     20  C   UNL     1       4.958  -4.623  -4.280  0.00  0.00    +0.038 A 
ATOM     21  C   UNL     1       5.483  -4.032  -3.147  0.00  0.00    +0.004 A 
ATOM     22  F   UNL     1       4.888  -6.451  -5.786  0.00  0.00    -0.205 F 
ENDBRANCH  15  16
ENDBRANCH   1  15
BRANCH   1  23
ATOM     23  C   UNL     1       6.171  -5.878   0.085  0.00  0.00    -0.030 C 
BRANCH  23  24
ATOM     24  C   UNL     1       7.571  -6.432   0.357  0.00  0.00    +0.194 C 
ATOM     25  C   UNL     1       7.553  -7.978   0.419  0.00  0.00    +0.104 C 
ATOM     26  C   UNL     1       8.545  -8.275   1.528  0.00  0.00    +0.091 C 
ATOM     27  N   UNL     1       8.755  -7.184   2.185  0.00  0.00    -0.089 NA
ATOM     28  O   UNL     1       8.013  -6.089   1.686  0.00  0.00    -0.392 OA
BRANCH  26  29
ATOM     29  C   UNL     1       9.163  -9.586   1.807  0.00  0.00    +0.001 A 
ATOM     30  C   UNL     1       8.851 -10.691   1.012  0.00  0.00    +0.011 A 
ATOM     31  C   UNL     1       9.432 -11.914   1.277  0.00  0.00    +0.022 A 
ATOM     32  C   UNL     1      10.322 -12.047   2.329  0.00  0.00    +0.059 A 
ATOM     33  C   UNL     1      10.636 -10.955   3.122  0.00  0.00    +0.060 A 
ATOM     34  C   UNL     1      10.065  -9.725   2.863  0.00  0.00    +0.031 A 
ATOM     35 CL   UNL     1      11.753 -11.132   4.439  0.00  0.00    -0.082 Cl
ATOM     36 CL   UNL     1      11.048 -13.590   2.657  0.00  0.00    -0.082 Cl
ENDBRANCH  26  29
ENDBRANCH  23  24
ENDBRANCH   1  23
TORSDOF 11
