REMARK  Name = ZINC49787570
REMARK  6 active torsions:
REMARK  status: ('A' for Active; 'I' for Inactive)
REMARK    1  A    between atoms: C_1  and  C_2
REMARK    2  A    between atoms: C_2  and  C_4
REMARK    3  A    between atoms: C_2  and  N_14
REMARK    4  A    between atoms: N_17  and  N_18
REMARK    5  A    between atoms: C_19  and  C_21
REMARK    6  A    between atoms: C_21  and  C_22
REMARK                            x       y       z     vdW  Elec       q    Type
REMARK                         _______ _______ _______ _____ _____    ______ ____
ROOT
ATOM      1  N   UNL     1       0.711  -0.489   1.189  0.00  0.00    -0.292 N 
ATOM      2  C   UNL     1       2.054  -0.600   1.174  0.00  0.00    +0.316 C 
ATOM      3  O   UNL     1       2.677  -0.297   0.175  0.00  0.00    -0.251 OA
ATOM      4  N   UNL     1       2.706  -1.046   2.266  0.00  0.00    -0.218 N 
ATOM      5  H   UNL     1       0.213  -0.731   1.986  0.00  0.00    +0.151 HD
ATOM      6  H   UNL     1       3.672  -1.126   2.255  0.00  0.00    +0.174 HD
ENDROOT
BRANCH   4   7
ATOM      7  N   UNL     1       1.987  -1.396   3.416  0.00  0.00    -0.233 N 
ATOM      8  C   UNL     1       2.639  -1.842   4.508  0.00  0.00    +0.234 C 
ATOM      9  O   UNL     1       3.848  -1.941   4.495  0.00  0.00    -0.274 OA
ATOM     10  H   UNL     1       1.020  -1.316   3.427  0.00  0.00    +0.173 HD
BRANCH   8  11
ATOM     11  C   UNL     1       1.866  -2.218   5.746  0.00  0.00    +0.134 C 
BRANCH  11  12
ATOM     12  C   UNL     1       2.822  -2.682   6.814  0.00  0.00    -0.014 A 
ATOM     13  C   UNL     1       3.175  -3.951   7.074  0.00  0.00    +0.087 A 
ATOM     14  N   UNL     1       4.063  -3.985   8.114  0.00  0.00    -0.360 N 
ATOM     15  H   UNL     1       4.459  -4.790   8.482  0.00  0.00    +0.165 HD
ATOM     16  C   UNL     1       4.311  -2.706   8.560  0.00  0.00    +0.047 A 
ATOM     17  C   UNL     1       3.550  -1.833   7.761  0.00  0.00    +0.003 A 
ATOM     18  C   UNL     1       3.607  -0.457   7.985  0.00  0.00    +0.010 A 
ATOM     19  C   UNL     1       4.406   0.037   8.977  0.00  0.00    +0.001 A 
ATOM     20  C   UNL     1       5.162  -0.820   9.765  0.00  0.00    +0.002 A 
ATOM     21  C   UNL     1       5.113  -2.182   9.568  0.00  0.00    +0.026 A 
ENDBRANCH  11  12
ENDBRANCH   8  11
ENDBRANCH   4   7
BRANCH   1  23
ATOM     22  C   UNL     1      -0.019   1.526   0.010  0.00  0.00    +0.033 C 
ATOM     23  C   UNL     1       0.002  -0.004   0.002  0.00  0.00    +0.102 C 
BRANCH  23  24
ATOM     24  C   UNL     1      -1.412  -0.526   0.013  0.00  0.00    -0.027 A 
ATOM     25  C   UNL     1      -2.119  -0.567   1.213  0.00  0.00    +0.006 A 
ATOM     26  C   UNL     1      -3.397  -1.032   1.257  0.00  0.00    +0.009 A 
ATOM     27  C   UNL     1      -4.016  -1.479   0.077  0.00  0.00    -0.018 A 
ATOM     28  C   UNL     1      -5.334  -1.966   0.084  0.00  0.00    +0.008 A 
ATOM     29  C   UNL     1      -5.901  -2.389  -1.079  0.00  0.00    +0.001 A 
ATOM     30  C   UNL     1      -5.194  -2.348  -2.279  0.00  0.00    +0.001 A 
ATOM     31  C   UNL     1      -3.916  -1.883  -2.324  0.00  0.00    +0.008 A 
ATOM     32  C   UNL     1      -3.297  -1.437  -1.143  0.00  0.00    -0.018 A 
ATOM     33  C   UNL     1      -1.980  -0.944  -1.151  0.00  0.00    +0.014 A 
ENDBRANCH  23  24
ENDBRANCH   1  23
TORSDOF 5
