REMARK  Name = ZINC38703520
REMARK  6 active torsions:
REMARK  status: ('A' for Active; 'I' for Inactive)
REMARK    1  A    between atoms: C_7  and  N_22
REMARK    2  A    between atoms: C_9  and  C_12
REMARK    3  A    between atoms: N_14  and  C_15
REMARK    4  A    between atoms: C_23  and  C_25
REMARK    5  A    between atoms: C_28  and  C_31
REMARK    6  A    between atoms: C_36  and  O_37
REMARK                            x       y       z     vdW  Elec       q    Type
REMARK                         _______ _______ _______ _____ _____    ______ ____
ROOT
ATOM      1  C   UNL     1      -0.020   1.377   0.039  0.00  0.00    +0.001 A 
ATOM      2  C   UNL     1       1.170   2.081   0.023  0.00  0.00    +0.004 A 
ATOM      3  C   UNL     1       2.376   1.411   0.002  0.00  0.00    +0.046 A 
ATOM      4  C   UNL     1       2.404   0.018  -0.004  0.00  0.00    +0.127 A 
ATOM      5  C   UNL     1       1.202  -0.677   0.005  0.00  0.00    +0.018 A 
ATOM      6  C   UNL     1      -0.001  -0.006   0.030  0.00  0.00    +0.009 A 
ATOM      7  C   UNL     1       1.543  -2.155  -0.029  0.00  0.00    +0.156 C 
ATOM      8  C   UNL     1       3.030  -2.130  -0.455  0.00  0.00    +0.283 C 
ATOM      9  O   UNL     1       3.466  -0.834  -0.012  0.00  0.00    -0.477 OA
ENDROOT
BRANCH   8  10
ATOM     10  C   UNL     1       3.802  -3.223   0.239  0.00  0.00    +0.260 C 
ATOM     11  O   UNL     1       4.678  -2.940   1.028  0.00  0.00    -0.271 OA
ATOM     12  N   UNL     1       3.519  -4.515  -0.018  0.00  0.00    -0.282 N 
ATOM     13  H   UNL     1       2.774  -4.743  -0.597  0.00  0.00    +0.155 HD
BRANCH  12  14
ATOM     14  C   UNL     1       4.298  -5.529   0.551  0.00  0.00    +0.034 A 
ATOM     15  C   UNL     1       4.556  -6.692  -0.164  0.00  0.00    +0.025 A 
ATOM     16  C   UNL     1       5.325  -7.691   0.400  0.00  0.00    +0.022 A 
ATOM     17  C   UNL     1       5.839  -7.534   1.675  0.00  0.00    +0.041 A 
ATOM     18  C   UNL     1       5.583  -6.376   2.389  0.00  0.00    +0.022 A 
ATOM     19  C   UNL     1       4.819  -5.372   1.828  0.00  0.00    +0.025 A 
ATOM     20 CL   UNL     1       6.805  -8.792   2.381  0.00  0.00    -0.084 Cl
ENDBRANCH  12  14
ENDBRANCH   8  10
BRANCH   7  21
ATOM     21  N   UNL     1       1.387  -2.759   1.296  0.00  0.00    -0.302 N 
ATOM     22  C   UNL     1       0.184  -3.224   1.687  0.00  0.00    +0.244 C 
ATOM     23  O   UNL     1      -0.770  -3.142   0.942  0.00  0.00    -0.273 OA
ATOM     24  H   UNL     1       2.149  -2.825   1.892  0.00  0.00    +0.150 HD
BRANCH  22  25
ATOM     25  C   UNL     1       0.023  -3.845   3.050  0.00  0.00    +0.238 C 
ATOM     26  C   UNL     1       0.462  -5.299   3.032  0.00  0.00    +0.041 C 
ATOM     27  C   UNL     1      -0.654  -5.978   3.361  0.00  0.00    +0.095 C 
ATOM     28  N   UNL     1      -1.687  -5.119   3.569  0.00  0.00    -0.153 NA
ATOM     29  N   UNL     1      -1.400  -3.925   3.421  0.00  0.00    -0.170 NA
BRANCH  27  30
ATOM     30  C   UNL     1      -0.744  -7.453   3.479  0.00  0.00    +0.043 A 
ATOM     31  C   UNL     1      -1.952  -8.056   3.820  0.00  0.00    +0.014 A 
ATOM     32  C   UNL     1      -2.031  -9.430   3.929  0.00  0.00    +0.001 A 
ATOM     33  C   UNL     1      -0.912 -10.211   3.699  0.00  0.00    +0.004 A 
ATOM     34  C   UNL     1       0.292  -9.624   3.360  0.00  0.00    +0.046 A 
ATOM     35  C   UNL     1       0.383  -8.246   3.243  0.00  0.00    +0.126 A 
BRANCH  35  36
ATOM     36  O   UNL     1       1.565  -7.668   2.904  0.00  0.00    -0.506 OA
ATOM     37  H   UNL     1       2.125  -7.445   3.660  0.00  0.00    +0.292 HD
ENDBRANCH  35  36
ENDBRANCH  27  30
ENDBRANCH  22  25
ENDBRANCH   7  21
TORSDOF 6
