REMARK  Name = ZINC20690217
REMARK  6 active torsions:
REMARK  status: ('A' for Active; 'I' for Inactive)
REMARK    1  A    between atoms: C_1  and  O_2
REMARK    2  A    between atoms: O_2  and  C_3
REMARK    3  A    between atoms: C_6  and  C_10
REMARK    4  A    between atoms: C_8  and  O_9
REMARK    5  A    between atoms: C_20  and  N_27
REMARK    6  A    between atoms: C_23  and  O_26
REMARK                            x       y       z     vdW  Elec       q    Type
REMARK                         _______ _______ _______ _____ _____    ______ ____
ROOT
ATOM      1  C   UNL     1       1.194  -2.021   0.029  0.00  0.00    +0.105 C 
ATOM      2  C   UNL     1       0.800  -2.532  -1.341  0.00  0.00    +0.029 C 
ATOM      3  C   UNL     1       1.579  -2.007  -2.553  0.00  0.00    +0.033 C 
ATOM      4  C   UNL     1       0.518  -2.082  -3.653  0.00  0.00    -0.030 C 
ATOM      5  C   UNL     1      -0.696  -1.994  -3.119  0.00  0.00    -0.023 C 
ATOM      6  C   UNL     1      -0.553  -1.820  -1.653  0.00  0.00    +0.051 C 
ATOM      7  C   UNL     1      -1.543  -2.338  -0.684  0.00  0.00    +0.014 A 
ATOM      8  C   UNL     1      -2.878  -2.469  -1.011  0.00  0.00    +0.132 A 
ATOM      9  C   UNL     1      -3.791  -2.913  -0.074  0.00  0.00    +0.037 A 
ATOM     10  C   UNL     1      -3.363  -3.230   1.202  0.00  0.00    +0.049 A 
ATOM     11  C   UNL     1      -2.028  -3.112   1.536  0.00  0.00    +0.138 A 
ATOM     12  C   UNL     1      -1.091  -2.671   0.593  0.00  0.00    +0.076 A 
ATOM     13  N   UNL     1       0.243  -2.595   0.996  0.00  0.00    -0.334 N 
ATOM     14  H   UNL     1       0.598  -2.938   1.978  0.00  0.00    +0.147 HD
ENDROOT
BRANCH   1  18
ATOM     15  C   UNL     1       0.954   2.248   0.118  0.00  0.00    +0.161 A 
ATOM     16  C   UNL     1      -0.125   1.482   0.527  0.00  0.00    +0.050 A 
ATOM     17  C   UNL     1      -0.045   0.102   0.497  0.00  0.00    +0.009 A 
ATOM     18  C   UNL     1       1.111  -0.516   0.060  0.00  0.00    -0.023 A 
ATOM     19  C   UNL     1       2.192   0.242  -0.350  0.00  0.00    +0.054 A 
ATOM     20  C   UNL     1       2.118   1.625  -0.323  0.00  0.00    +0.159 A 
BRANCH  15  22
ATOM     21  C   UNL     1      -0.348   4.176   0.611  0.00  0.00    +0.277 C 
ATOM     22  O   UNL     1       0.877   3.605   0.147  0.00  0.00    -0.491 OA
ENDBRANCH  15  22
BRANCH  20  23
ATOM     23  O   UNL     1       3.181   2.373  -0.725  0.00  0.00    -0.503 OA
ATOM     24  H   UNL     1       4.100   1.879  -1.073  0.00  0.00    +0.292 HD
ENDBRANCH  20  23
ENDBRANCH   1  18
BRANCH   8  25
ATOM     25  N   UNL     1      -3.335  -2.131  -2.377  0.00  0.00    +0.057 N 
ATOM     26  O   UNL     1      -3.053  -1.050  -2.864  0.00  0.00    -0.126 OA
ATOM     27  O   UNL     1      -3.993  -2.933  -3.016  0.00  0.00    -0.126 OA
ENDBRANCH   8  25
BRANCH  11  28
ATOM     28  O   UNL     1      -1.619  -3.428   2.794  0.00  0.00    -0.505 OA
ATOM     29  H   UNL     1      -0.557  -3.336   3.067  0.00  0.00    +0.292 HD
ENDBRANCH  11  28
TORSDOF 5
