REMARK  Name = ZINC34750116
REMARK  8 active torsions:
REMARK  status: ('A' for Active; 'I' for Inactive)
REMARK    1  A    between atoms: C_1  and  C_2
REMARK    2  A    between atoms: C_2  and  N_3
REMARK    3  A    between atoms: C_16  and  S_18
REMARK    4  A    between atoms: S_18  and  C_19
REMARK    5  A    between atoms: C_19  and  C_20
REMARK    6  A    between atoms: C_23  and  N_26
REMARK    7  A    between atoms: C_31  and  C_33
REMARK    8  A    between atoms: C_31  and  C_34
REMARK                            x       y       z     vdW  Elec       q    Type
REMARK                         _______ _______ _______ _____ _____    ______ ____
ROOT
ATOM      1  N   UNL     1      -2.387   0.365   0.046  0.00  0.00    +0.382 N 
ATOM      2  C   UNL     1      -3.834   0.176   0.207  0.00  0.00    -0.060 C 
ATOM      3  C   UNL     1      -4.146  -1.322   0.296  0.00  0.00    +0.088 C 
ATOM      4  N   UNL     1      -3.574  -1.988  -0.884  0.00  0.00    -0.318 N 
ATOM      5  C   UNL     1      -2.165  -1.724  -1.215  0.00  0.00    +0.088 C 
ATOM      6  C   UNL     1      -1.947  -0.207  -1.233  0.00  0.00    -0.060 C 
ATOM      7  C   UNL     1      -4.338  -2.840  -1.660  0.00  0.00    +0.134 A 
ATOM      8  C   UNL     1      -4.302  -4.245  -1.435  0.00  0.00    +0.051 A 
ATOM      9  C   UNL     1      -3.531  -4.996  -0.447  0.00  0.00    -0.020 A 
ATOM     10  C   UNL     1      -3.678  -6.338  -0.442  0.00  0.00    +0.021 A 
ATOM     11  S   UNL     1      -4.837  -6.680  -1.736  0.00  0.00    -0.071 S 
ATOM     12  C   UNL     1      -5.123  -5.016  -2.284  0.00  0.00    +0.115 A 
ATOM     13  N   UNL     1      -5.867  -4.459  -3.220  0.00  0.00    -0.215 NA
ATOM     14  C   UNL     1      -5.860  -3.143  -3.384  0.00  0.00    +0.191 A 
ATOM     15  N   UNL     1      -5.115  -2.357  -2.615  0.00  0.00    -0.206 NA
ATOM     16  C   UNL     1      -2.990  -7.302   0.474  0.00  0.00    +0.203 C 
ATOM     17  O   UNL     1      -1.919  -6.603   1.127  0.00  0.00    -0.368 OA
ATOM     18  C   UNL     1      -2.313  -5.344   1.680  0.00  0.00    +0.068 C 
ATOM     19  C   UNL     1      -2.588  -4.339   0.558  0.00  0.00    +0.071 C 
ATOM     20  C   UNL     1      -3.582  -5.532   2.515  0.00  0.00    +0.041 C 
ATOM     21  C   UNL     1      -1.194  -4.811   2.577  0.00  0.00    +0.041 C 
ATOM     22  H   UNL     1      -1.904  -0.095   0.803  0.00  0.00    -0.082 HD
ENDROOT
BRANCH   1  24
ATOM     23  C   UNL     1      -2.420   2.373   1.447  0.00  0.00    -0.017 C 
ATOM     24  C   UNL     1      -2.077   1.800   0.070  0.00  0.00    -0.082 C 
ENDBRANCH   1  24
BRANCH  14  25
ATOM     25  S   UNL     1      -6.862  -2.423  -4.642  0.00  0.00    -0.081 S 
BRANCH  25  26
ATOM     26  C   UNL     1      -7.688  -3.844  -5.412  0.00  0.00    +0.112 C 
BRANCH  26  27
ATOM     27  C   UNL     1      -8.588  -3.361  -6.519  0.00  0.00    -0.037 A 
ATOM     28  C   UNL     1      -9.903  -3.033  -6.247  0.00  0.00    +0.007 A 
ATOM     29  C   UNL     1     -10.729  -2.590  -7.263  0.00  0.00    +0.033 A 
ATOM     30  C   UNL     1     -10.241  -2.476  -8.551  0.00  0.00    +0.126 A 
ATOM     31  C   UNL     1      -8.926  -2.804  -8.823  0.00  0.00    +0.033 A 
ATOM     32  C   UNL     1      -8.098  -3.243  -7.806  0.00  0.00    +0.007 A 
BRANCH  30  33
ATOM     33  N   UNL     1     -11.126  -2.004  -9.640  0.00  0.00    +0.056 N 
ATOM     34  O   UNL     1     -12.276  -1.717  -9.402  0.00  0.00    -0.126 OA
ATOM     35  O   UNL     1     -10.698  -1.904 -10.766  0.00  0.00    -0.126 OA
ENDBRANCH  30  33
ENDBRANCH  26  27
ENDBRANCH  25  26
ENDBRANCH  14  25
TORSDOF 5
