REMARK  Name = ZINC15677829
REMARK  9 active torsions:
REMARK  status: ('A' for Active; 'I' for Inactive)
REMARK    1  A    between atoms: C_4  and  C_7
REMARK    2  A    between atoms: C_7  and  C_8
REMARK    3  A    between atoms: C_13  and  C_14
REMARK    4  A    between atoms: C_13  and  N_76
REMARK    5  A    between atoms: C_14  and  C_15
REMARK    6  A    between atoms: C_15  and  N_16
REMARK    7  A    between atoms: C_17  and  C_19
REMARK    8  A    between atoms: N_24  and  S_26
REMARK    9  A    between atoms: S_26  and  N_29
REMARK                            x       y       z     vdW  Elec       q    Type
REMARK                         _______ _______ _______ _____ _____    ______ ____
ROOT
ATOM      1  N   UNL     1       6.723  -0.419   2.878  0.00  0.00    -0.315 N 
ATOM      2  C   UNL     1       7.671  -0.837   3.740  0.00  0.00    +0.217 C 
ATOM      3  O   UNL     1       7.363  -1.507   4.702  0.00  0.00    -0.275 OA
ATOM      4  H   UNL     1       6.969   0.117   2.108  0.00  0.00    +0.149 HD
ENDROOT
BRANCH   2   5
ATOM      5  C   UNL     1       9.114  -0.471   3.507  0.00  0.00    +0.091 C 
ATOM      6  C   UNL     1       9.263   1.052   3.510  0.00  0.00    +0.015 C 
ATOM      7  C   UNL     1      10.723   1.424   3.241  0.00  0.00    +0.018 C 
ATOM      8  C   UNL     1      11.605   0.851   4.354  0.00  0.00    +0.110 C 
ATOM      9  N   UNL     1      11.360  -0.595   4.454  0.00  0.00    -0.166 NA
ATOM     10  C   UNL     1       9.979  -1.067   4.623  0.00  0.00    +0.123 C 
BRANCH   9  11
ATOM     11  S   UNL     1      12.616  -1.671   4.379  0.00  0.00    +0.100 S 
ATOM     12  O   UNL     1      13.783  -0.962   4.775  0.00  0.00    -0.141 OA
ATOM     13  O   UNL     1      12.181  -2.850   5.041  0.00  0.00    -0.141 OA
BRANCH  11  14
ATOM     14  N   UNL     1      12.824  -2.071   2.786  0.00  0.00    -0.166 NA
ATOM     15  C   UNL     1      12.109  -3.214   2.202  0.00  0.00    +0.110 C 
ATOM     16  C   UNL     1      11.356  -2.733   0.952  0.00  0.00    +0.017 C 
ATOM     17  C   UNL     1      12.343  -2.056  -0.002  0.00  0.00    +0.003 C 
ATOM     18  C   UNL     1      12.964  -0.837   0.685  0.00  0.00    +0.017 C 
ATOM     19  C   UNL     1      13.731  -1.293   1.930  0.00  0.00    +0.110 C 
ENDBRANCH  11  14
ENDBRANCH   9  11
ENDBRANCH   2   5
BRANCH   1  20
ATOM     20  C   UNL     1       5.320  -0.774   3.104  0.00  0.00    +0.102 C 
BRANCH  20  21
ATOM     21  C   UNL     1       4.457  -0.179   1.989  0.00  0.00    +0.000 C 
BRANCH  21  22
ATOM     22  C   UNL     1       2.991  -0.550   2.226  0.00  0.00    -0.077 C 
BRANCH  22  28
ATOM     23  C   UNL     1      -0.019   1.527   0.010  0.00  0.00    -0.010 C 
ATOM     24  C   UNL     1       1.421   2.049  -0.001  0.00  0.00    -0.015 C 
ATOM     25  C   UNL     1       2.171   1.488   1.210  0.00  0.00    -0.079 C 
ATOM     26  C   UNL     1       0.793  -0.505   1.212  0.00  0.00    -0.079 C 
ATOM     27  C   UNL     1       0.002  -0.004   0.002  0.00  0.00    -0.015 C 
ATOM     28  N   UNL     1       2.176   0.012   1.129  0.00  0.00    +0.380 N 
ATOM     29  H   UNL     1       2.584  -0.271   0.231  0.00  0.00    -0.082 HD
BRANCH  23  30
ATOM     30  C   UNL     1      -0.756   2.035  -1.230  0.00  0.00    +0.038 C 
BRANCH  30  34
ATOM     31  C   UNL     1      -1.118   6.287  -1.030  0.00  0.00    +0.000 A 
ATOM     32  C   UNL     1      -0.015   5.715  -1.636  0.00  0.00    +0.000 A 
ATOM     33  C   UNL     1       0.102   4.339  -1.701  0.00  0.00    +0.003 A 
ATOM     34  C   UNL     1      -0.884   3.535  -1.159  0.00  0.00    -0.047 A 
ATOM     35  C   UNL     1      -1.989   4.107  -0.558  0.00  0.00    +0.003 A 
ATOM     36  C   UNL     1      -2.104   5.483  -0.489  0.00  0.00    +0.000 A 
ENDBRANCH  30  34
ENDBRANCH  23  30
ENDBRANCH  22  28
ENDBRANCH  21  22
ENDBRANCH  20  21
ENDBRANCH   1  20
TORSDOF 9
