REMARK  Name = ZINC16013133
REMARK  3 active torsions:
REMARK  status: ('A' for Active; 'I' for Inactive)
REMARK    1  A    between atoms: C_4  and  C_7
REMARK    2  A    between atoms: C_16  and  C_18
REMARK    3  A    between atoms: C_18  and  C_20
REMARK                            x       y       z     vdW  Elec       q    Type
REMARK                         _______ _______ _______ _____ _____    ______ ____
ROOT
ATOM      1  C   UNL     1      -3.078   0.137   1.477  0.00  0.00    +0.050 C 
ATOM      2  C   UNL     1      -4.579  -0.206   1.395  0.00  0.00    +0.077 C 
ATOM      3  C   UNL     1      -5.035  -0.753   2.763  0.00  0.00    +0.090 C 
ATOM      4  S   UNL     1      -5.410  -2.513   2.360  0.00  0.00    -0.144 S 
ATOM      5  C   UNL     1      -4.527  -2.582   0.753  0.00  0.00    +0.155 C 
ATOM      6  N   UNL     1      -4.702  -1.173   0.291  0.00  0.00    -0.271 NA
ATOM      7  C   UNL     1      -3.651  -0.850  -0.685  0.00  0.00    +0.137 C 
ATOM      8  C   UNL     1      -2.575  -0.025   0.027  0.00  0.00    +0.103 C 
ATOM      9  C   UNL     1      -4.215  -0.102  -1.863  0.00  0.00    +0.005 A 
ATOM     10  C   UNL     1      -4.874   1.101  -1.990  0.00  0.00    +0.027 A 
ATOM     11  C   UNL     1      -5.283   1.538  -3.238  0.00  0.00    +0.041 A 
ATOM     12  C   UNL     1      -5.029   0.762  -4.356  0.00  0.00    +0.022 A 
ATOM     13  C   UNL     1      -4.368  -0.442  -4.232  0.00  0.00    +0.025 A 
ATOM     14  C   UNL     1      -3.952  -0.888  -2.980  0.00  0.00    +0.039 A 
ATOM     15  N   UNL     1      -3.277  -2.051  -2.603  0.00  0.00    -0.283 N 
ATOM     16  C   UNL     1      -3.061  -2.106  -1.276  0.00  0.00    +0.243 C 
ATOM     17  O   UNL     1      -2.499  -2.994  -0.671  0.00  0.00    -0.273 OA
ATOM     18 CL   UNL     1      -6.114   3.053  -3.401  0.00  0.00    -0.084 Cl
ATOM     19  H   UNL     1      -2.989  -2.791  -3.365  0.00  0.00    +0.155 HD
ENDROOT
BRANCH   1  23
ATOM     20  C   UNL     1      -2.533   4.159   2.809  0.00  0.00    +0.000 A 
ATOM     21  C   UNL     1      -1.915   3.119   3.479  0.00  0.00    +0.000 A 
ATOM     22  C   UNL     1      -2.092   1.818   3.048  0.00  0.00    +0.004 A 
ATOM     23  C   UNL     1      -2.886   1.556   1.947  0.00  0.00    -0.042 A 
ATOM     24  C   UNL     1      -3.499   2.596   1.274  0.00  0.00    +0.004 A 
ATOM     25  C   UNL     1      -3.327   3.897   1.708  0.00  0.00    +0.000 A 
ENDBRANCH   1  23
BRANCH   8  26
ATOM     26  C   UNL     1      -1.258  -0.758   0.010  0.00  0.00    +0.170 C 
ATOM     27  O   UNL     1      -0.961  -1.492   0.929  0.00  0.00    -0.292 OA
BRANCH  26  28
ATOM     28  C   UNL     1      -0.335  -0.583  -1.118  0.00  0.00    +0.021 A 
ATOM     29  C   UNL     1      -0.675   0.264  -2.179  0.00  0.00    +0.015 A 
ATOM     30  C   UNL     1       0.192   0.426  -3.236  0.00  0.00    +0.050 A 
ATOM     31  C   UNL     1       1.407  -0.248  -3.254  0.00  0.00    +0.166 A 
ATOM     32  C   UNL     1       1.754  -1.095  -2.199  0.00  0.00    +0.167 A 
ATOM     33  C   UNL     1       0.889  -1.263  -1.136  0.00  0.00    +0.061 A 
ATOM     34  O   UNL     1       2.983  -1.630  -2.456  0.00  0.00    -0.453 OA
ATOM     35  C   UNL     1       3.561  -0.790  -3.473  0.00  0.00    +0.466 C 
ATOM     36  O   UNL     1       2.419  -0.256  -4.167  0.00  0.00    -0.453 OA
ENDBRANCH  26  28
ENDBRANCH   8  26
TORSDOF 3
