REMARK  Name = ZINC52160082
REMARK  11 active torsions:
REMARK  status: ('A' for Active; 'I' for Inactive)
REMARK    1  A    between atoms: C_1  and  C_2
REMARK    2  A    between atoms: N_7  and  C_9
REMARK    3  A    between atoms: C_9  and  C_11
REMARK    4  A    between atoms: C_9  and  C_12
REMARK    5  A    between atoms: C_12  and  N_13
REMARK    6  A    between atoms: N_13  and  C_14
REMARK    7  A    between atoms: C_17  and  S_24
REMARK    8  A    between atoms: C_19  and  C_20
REMARK    9  A    between atoms: C_20  and  O_22
REMARK   10  A    between atoms: O_22  and  C_23
REMARK   11  A    between atoms: S_24  and  N_27
REMARK                            x       y       z     vdW  Elec       q    Type
REMARK                         _______ _______ _______ _____ _____    ______ ____
ROOT
ATOM      1  C   UNL     1       4.280   0.059   1.933  0.00  0.00    +0.041 A 
ATOM      2  C   UNL     1       5.447  -0.690   1.846  0.00  0.00    +0.025 A 
ATOM      3  C   UNL     1       6.654  -0.065   1.613  0.00  0.00    +0.030 A 
ATOM      4  C   UNL     1       6.715   1.312   1.463  0.00  0.00    +0.106 A 
ATOM      5  C   UNL     1       5.569   2.072   1.545  0.00  0.00    +0.045 A 
ATOM      6  C   UNL     1       4.337   1.454   1.776  0.00  0.00    +0.082 A 
ENDROOT
BRANCH   4   7
ATOM      7  S   UNL     1       8.266   2.093   1.166  0.00  0.00    +0.056 S 
ATOM      8  O   UNL     1       8.133   3.438   1.605  0.00  0.00    -0.153 OA
ATOM      9  O   UNL     1       9.264   1.220   1.675  0.00  0.00    -0.153 OA
BRANCH   7  10
ATOM     10  N   UNL     1       8.479   2.150  -0.475  0.00  0.00    -0.204 NA
ATOM     11  H   UNL     1       7.801   1.786  -1.065  0.00  0.00    +0.144 HD
ATOM     12  H   UNL     1       9.282   2.548  -0.846  0.00  0.00    +0.144 HD
ENDBRANCH   7  10
ENDBRANCH   4   7
BRANCH   1  13
ATOM     13  N   UNL     1       3.063  -0.567   2.168  0.00  0.00    -0.345 N 
ATOM     14  H   UNL     1       2.265  -0.036   2.316  0.00  0.00    +0.146 HD
BRANCH  13  15
ATOM     15  C   UNL     1       2.986  -2.030   2.193  0.00  0.00    +0.086 C 
BRANCH  15  16
ATOM     16  C   UNL     1       1.525  -2.461   2.340  0.00  0.00    -0.054 C 
ATOM     17  C   UNL     1       1.430  -3.984   2.241  0.00  0.00    -0.012 C 
BRANCH  16  23
ATOM     18  C   UNL     1      -3.012  -1.844   0.607  0.00  0.00    +0.005 C 
ATOM     19  C   UNL     1      -1.538  -1.488   0.402  0.00  0.00    -0.031 C 
ATOM     20  C   UNL     1      -1.089  -1.951  -0.987  0.00  0.00    -0.001 C 
ATOM     21  C   UNL     1       0.406  -1.660  -1.152  0.00  0.00    -0.018 C 
ATOM     22  C   UNL     1       1.181  -2.354  -0.030  0.00  0.00    -0.078 C 
ATOM     23  N   UNL     1       0.724  -1.850   1.270  0.00  0.00    +0.383 N 
ATOM     24  C   UNL     1      -0.691  -2.187   1.467  0.00  0.00    -0.075 C 
ATOM     25  H   UNL     1       0.837  -0.847   1.300  0.00  0.00    -0.081 HD
ENDBRANCH  16  23
ENDBRANCH  15  16
ENDBRANCH  13  15
ENDBRANCH   1  13
BRANCH   6  26
ATOM     26  C   UNL     1       3.107   2.260   1.860  0.00  0.00    +0.341 C 
ATOM     27  O   UNL     1       2.053   1.732   2.155  0.00  0.00    -0.245 OA
BRANCH  26  28
ATOM     28  O   UNL     1       3.151   3.583   1.609  0.00  0.00    -0.464 OA
ATOM     29  C   UNL     1       1.921   4.303   1.709  0.00  0.00    +0.280 C 
ENDBRANCH  26  28
ENDBRANCH   6  26
TORSDOF 8
