REMARK  Name = ZINC12652742
REMARK  6 active torsions:
REMARK  status: ('A' for Active; 'I' for Inactive)
REMARK    1  A    between atoms: C_1  and  C_2
REMARK    2  A    between atoms: C_2  and  C_3
REMARK    3  A    between atoms: N_9  and  C_10
REMARK    4  A    between atoms: N_13  and  C_16
REMARK    5  A    between atoms: C_16  and  C_17
REMARK    6  A    between atoms: C_20  and  C_23
REMARK                            x       y       z     vdW  Elec       q    Type
REMARK                         _______ _______ _______ _____ _____    ______ ____
ROOT
ATOM      1  C   UNL     1      -1.445  -0.445   0.015  0.00  0.00    +0.036 A 
ATOM      2  C   UNL     1      -2.097  -0.678  -1.168  0.00  0.00    +0.085 A 
ATOM      3  C   UNL     1      -3.441  -1.275  -1.141  0.00  0.00    +0.075 A 
ATOM      4  C   UNL     1      -3.995  -1.577   0.084  0.00  0.00    +0.098 A 
ATOM      5  C   UNL     1      -3.260  -1.306   1.245  0.00  0.00    +0.254 A 
ATOM      6  O   UNL     1      -3.744  -1.571   2.333  0.00  0.00    -0.268 OA
ATOM      7  N   UNL     1      -2.032  -0.765   1.186  0.00  0.00    -0.309 N 
ATOM      8  N   UNL     1      -3.844  -1.394  -2.447  0.00  0.00    -0.288 N 
ATOM      9  H   UNL     1      -4.696  -1.758  -2.737  0.00  0.00    +0.188 HD
ATOM     10  N   UNL     1      -2.845  -0.912  -3.299  0.00  0.00    -0.194 N 
ATOM     11  C   UNL     1      -1.785  -0.475  -2.590  0.00  0.00    +0.283 A 
ATOM     12  O   UNL     1      -0.761  -0.000  -3.043  0.00  0.00    -0.265 OA
ATOM     13  C   UNL     1      -2.933  -0.887  -4.680  0.00  0.00    +0.196 A 
ATOM     14  N   UNL     1      -2.050  -0.463  -5.553  0.00  0.00    -0.221 NA
ATOM     15  C   UNL     1      -2.271  -0.499  -6.885  0.00  0.00    +0.081 A 
ATOM     16  C   UNL     1      -1.410  -0.076  -7.925  0.00  0.00    +0.029 A 
ATOM     17  C   UNL     1      -1.792  -0.183  -9.237  0.00  0.00    +0.002 A 
ATOM     18  C   UNL     1      -3.027  -0.705  -9.592  0.00  0.00    +0.001 A 
ATOM     19  C   UNL     1      -3.894  -1.128  -8.601  0.00  0.00    +0.017 A 
ATOM     20  C   UNL     1      -3.520  -1.026  -7.285  0.00  0.00    +0.041 A 
ATOM     21  S   UNL     1      -4.274  -1.432  -5.728  0.00  0.00    -0.048 S 
ENDROOT
BRANCH   7  22
ATOM     22  C   UNL     1      -1.310  -0.509   2.435  0.00  0.00    +0.087 C 
ATOM     23  C   UNL     1      -1.100  -1.828   3.184  0.00  0.00    +0.006 C 
ATOM     24  C   UNL     1      -0.416  -1.544   4.524  0.00  0.00    -0.076 C 
ATOM     25  N   UNL     1      -1.260  -0.651   5.328  0.00  0.00    +0.382 N 
ATOM     26  C   UNL     1      -1.406   0.641   4.648  0.00  0.00    -0.076 C 
ATOM     27  C   UNL     1      -2.128   0.442   3.314  0.00  0.00    +0.006 C 
ATOM     28  H   UNL     1      -2.169  -1.070   5.451  0.00  0.00    -0.081 HD
BRANCH  25  29
ATOM     29  C   UNL     1      -0.637  -0.444   6.642  0.00  0.00    -0.043 C 
BRANCH  29  30
ATOM     30  C   UNL     1      -1.558   0.371   7.512  0.00  0.00    -0.064 A 
ATOM     31  C   UNL     1      -1.474   1.751   7.506  0.00  0.00    +0.002 A 
ATOM     32  C   UNL     1      -2.319   2.498   8.304  0.00  0.00    +0.003 A 
ATOM     33  C   UNL     1      -3.250   1.867   9.107  0.00  0.00    -0.050 A 
ATOM     34  C   UNL     1      -3.335   0.487   9.113  0.00  0.00    +0.003 A 
ATOM     35  C   UNL     1      -2.492  -0.261   8.312  0.00  0.00    +0.002 A 
ATOM     36  C   UNL     1      -4.171   2.682   9.978  0.00  0.00    +0.044 C 
ENDBRANCH  29  30
ENDBRANCH  25  29
ENDBRANCH   7  22
BRANCH   1  38
ATOM     37  C   UNL     1      -0.172   1.666   0.290  0.00  0.00    +0.010 C 
ATOM     38  C   UNL     1      -0.067   0.166   0.007  0.00  0.00    +0.051 C 
ENDBRANCH   1  38
TORSDOF 4
