REMARK  Name = ZINC35192053
REMARK  4 active torsions:
REMARK  status: ('A' for Active; 'I' for Inactive)
REMARK    1  A    between atoms: C_3  and  C_9
REMARK    2  A    between atoms: C_12  and  C_24
REMARK    3  A    between atoms: C_16  and  C_18
REMARK    4  A    between atoms: N_26  and  C_27
REMARK                            x       y       z     vdW  Elec       q    Type
REMARK                         _______ _______ _______ _____ _____    ______ ____
ROOT
ATOM      1  C   UNL     1       3.975   1.783  -0.277  0.00  0.00    +0.250 C 
ATOM      2  O   UNL     1       3.054   1.080  -0.644  0.00  0.00    -0.270 OA
ATOM      3  N   UNL     1       3.777   3.100  -0.070  0.00  0.00    -0.273 N 
ATOM      4  C   UNL     1       2.491   3.627   0.375  0.00  0.00    +0.173 C 
ATOM      5  C   UNL     1       2.688   4.895   1.258  0.00  0.00    +0.103 C 
ATOM      6  S   UNL     1       4.088   5.660   0.323  0.00  0.00    -0.136 S 
ATOM      7  C   UNL     1       4.849   4.092  -0.274  0.00  0.00    +0.138 C 
ENDROOT
BRANCH   1  10
ATOM      8  C   UNL     1       7.702   1.421  -0.008  0.00  0.00    +0.021 A 
ATOM      9  C   UNL     1       6.457   1.976  -0.214  0.00  0.00    +0.016 A 
ATOM     10  C   UNL     1       5.312   1.193  -0.058  0.00  0.00    +0.055 A 
ATOM     11  C   UNL     1       5.435  -0.151   0.306  0.00  0.00    +0.054 A 
ATOM     12  C   UNL     1       6.688  -0.695   0.509  0.00  0.00    +0.040 A 
ATOM     13  C   UNL     1       7.819   0.088   0.353  0.00  0.00    +0.042 A 
ATOM     14 CL   UNL     1       9.390  -0.603   0.610  0.00  0.00    -0.083 Cl
ATOM     15 CL   UNL     1       4.018  -1.133   0.502  0.00  0.00    -0.083 Cl
ENDBRANCH   1  10
BRANCH   7  16
ATOM     16  C   UNL     1       5.212   4.200  -1.756  0.00  0.00    +0.020 C 
ATOM     17  C   UNL     1       5.221   2.803  -2.381  0.00  0.00    +0.006 C 
ATOM     18  C   UNL     1       5.584   2.911  -3.864  0.00  0.00    +0.000 C 
ATOM     19  C   UNL     1       6.970   3.542  -4.005  0.00  0.00    +0.000 C 
ATOM     20  C   UNL     1       6.961   4.939  -3.380  0.00  0.00    +0.000 C 
ATOM     21  C   UNL     1       6.598   4.831  -1.898  0.00  0.00    +0.006 C 
ENDBRANCH   7  16
BRANCH   4  22
ATOM     22  C   UNL     1       1.773   2.573   1.178  0.00  0.00    +0.235 C 
ATOM     23  O   UNL     1       2.408   1.762   1.818  0.00  0.00    -0.274 OA
ATOM     24  N   UNL     1       0.426   2.532   1.185  0.00  0.00    -0.302 N 
ATOM     25  H   UNL     1      -0.081   3.132   0.616  0.00  0.00    +0.150 HD
BRANCH  24  26
ATOM     26  C   UNL     1      -0.273   1.581   2.053  0.00  0.00    +0.159 C 
ATOM     27  C   UNL     1      -1.665   2.121   2.392  0.00  0.00    +0.032 C 
ATOM     28  C   UNL     1      -2.168   1.531   3.696  0.00  0.00    +0.004 C 
ATOM     29  C   UNL     1      -2.439   0.039   3.629  0.00  0.00    +0.019 C 
ATOM     30  C   UNL     1      -1.139  -0.744   3.438  0.00  0.00    +0.104 C 
ATOM     31  N   UNL     1      -0.844  -0.823   1.999  0.00  0.00    -0.314 N 
ATOM     32  C   UNL     1      -0.429   0.257   1.335  0.00  0.00    +0.233 C 
ATOM     33  O   UNL     1      -0.181   0.178   0.151  0.00  0.00    -0.274 OA
ATOM     34  H   UNL     1      -0.948  -1.666   1.530  0.00  0.00    +0.149 HD
ENDBRANCH  24  26
ENDBRANCH   4  22
TORSDOF 4
