REMARK  Name = ZINC09777345
REMARK  9 active torsions:
REMARK  status: ('A' for Active; 'I' for Inactive)
REMARK    1  A    between atoms: C_1  and  C_2
REMARK    2  A    between atoms: C_8  and  N_10
REMARK    3  A    between atoms: C_11  and  C_13
REMARK    4  A    between atoms: C_21  and  C_34
REMARK    5  A    between atoms: N_27  and  C_28
REMARK    6  A    between atoms: N_36  and  C_37
REMARK    7  A    between atoms: C_40  and  C_43
REMARK    8  A    between atoms: C_43  and  C_44
REMARK    9  A    between atoms: C_43  and  C_45
REMARK                            x       y       z     vdW  Elec       q    Type
REMARK                         _______ _______ _______ _____ _____    ______ ____
ROOT
ATOM      1  C   UNL     1      -1.276   5.182   2.027  0.00  0.00    +0.199 C 
ATOM      2  C   UNL     1      -1.578   3.723   1.883  0.00  0.00    +0.127 C 
ATOM      3  C   UNL     1      -0.714   2.851   2.775  0.00  0.00    +0.009 C 
ATOM      4  C   UNL     1      -1.100   1.605   2.544  0.00  0.00    +0.004 C 
ATOM      5  C   UNL     1      -2.172   1.718   1.452  0.00  0.00    +0.155 C 
ATOM      6  O   UNL     1      -2.798   3.024   1.792  0.00  0.00    -0.358 OA
ATOM      7  C   UNL     1      -1.312   2.084   0.180  0.00  0.00    +0.123 C 
ATOM      8  C   UNL     1      -1.087   3.560   0.388  0.00  0.00    +0.128 C 
ATOM      9  C   UNL     1       0.209   4.257   0.474  0.00  0.00    +0.224 C 
ATOM     10  O   UNL     1       1.222   3.975  -0.131  0.00  0.00    -0.275 OA
ATOM     11  N   UNL     1       0.059   5.288   1.358  0.00  0.00    -0.283 N 
ENDROOT
BRANCH  11  12
ATOM     12  C   UNL     1       1.055   6.330   1.622  0.00  0.00    +0.077 C 
ATOM     13  C   UNL     1       1.338   7.103   0.332  0.00  0.00    +0.022 C 
ATOM     14  C   UNL     1       2.377   8.191   0.608  0.00  0.00    +0.002 C 
ATOM     15  C   UNL     1       3.671   7.546   1.110  0.00  0.00    +0.000 C 
ATOM     16  C   UNL     1       3.387   6.773   2.400  0.00  0.00    +0.002 C 
ATOM     17  C   UNL     1       2.348   5.685   2.124  0.00  0.00    +0.022 C 
ENDBRANCH  11  12
BRANCH   1  19
ATOM     18  N   UNL     1      -2.307   5.788   4.192  0.00  0.00    -0.311 N 
ATOM     19  C   UNL     1      -1.184   5.572   3.479  0.00  0.00    +0.237 C 
ATOM     20  O   UNL     1      -0.098   5.692   4.007  0.00  0.00    -0.274 OA
ATOM     21  H   UNL     1      -3.175   5.691   3.770  0.00  0.00    +0.149 HD
BRANCH  18  28
ATOM     22  C   UNL     1      -3.688   4.242   6.215  0.00  0.00    +0.009 C 
ATOM     23  C   UNL     1      -3.503   5.757   6.325  0.00  0.00    +0.006 C 
ATOM     24  C   UNL     1      -3.409   6.153   7.800  0.00  0.00    +0.005 C 
ATOM     25  C   UNL     1      -3.224   7.668   7.910  0.00  0.00    +0.000 C 
ATOM     26  C   UNL     1      -1.938   8.078   7.189  0.00  0.00    +0.002 C 
ATOM     27  C   UNL     1      -2.032   7.682   5.715  0.00  0.00    +0.022 C 
ATOM     28  C   UNL     1      -2.217   6.167   5.604  0.00  0.00    +0.076 C 
ENDBRANCH  18  28
ENDBRANCH   1  19
BRANCH   7  29
ATOM     29  C   UNL     1      -0.006   1.333   0.175  0.00  0.00    +0.224 C 
ATOM     30  O   UNL     1       1.039   1.931   0.322  0.00  0.00    -0.275 OA
ATOM     31  N   UNL     1       0.002  -0.004   0.002  0.00  0.00    -0.285 N 
ATOM     32  H   UNL     1      -0.835  -0.493  -0.039  0.00  0.00    +0.155 HD
BRANCH  31  33
ATOM     33  C   UNL     1       1.218  -0.687  -0.119  0.00  0.00    +0.033 A 
ATOM     34  C   UNL     1       2.300  -0.075  -0.737  0.00  0.00    +0.023 A 
ATOM     35  C   UNL     1       3.500  -0.750  -0.850  0.00  0.00    +0.006 A 
ATOM     36  C   UNL     1       3.621  -2.037  -0.358  0.00  0.00    -0.045 A 
ATOM     37  C   UNL     1       2.543  -2.650   0.253  0.00  0.00    +0.006 A 
ATOM     38  C   UNL     1       1.342  -1.979   0.374  0.00  0.00    +0.023 A 
BRANCH  36  39
ATOM     39  C   UNL     1       4.930  -2.771  -0.488  0.00  0.00    +0.013 C 
ATOM     40  C   UNL     1       5.296  -2.905  -1.968  0.00  0.00    +0.012 C 
ATOM     41  C   UNL     1       6.027  -1.992   0.240  0.00  0.00    +0.012 C 
ENDBRANCH  36  39
ENDBRANCH  31  33
ENDBRANCH   7  29
TORSDOF 6
