REMARK  Name = ZINC09158764
REMARK  15 active torsions:
REMARK  status: ('A' for Active; 'I' for Inactive)
REMARK    1  A    between atoms: C_1  and  C_2
REMARK    2  A    between atoms: C_2  and  O_3
REMARK    3  A    between atoms: O_3  and  C_4
REMARK    4  A    between atoms: C_4  and  C_6
REMARK    5  A    between atoms: C_7  and  C_34
REMARK    6  A    between atoms: C_8  and  C_13
REMARK    7  A    between atoms: C_11  and  C_12
REMARK    8  A    between atoms: C_13  and  O_15
REMARK    9  A    between atoms: O_15  and  C_16
REMARK   10  A    between atoms: C_16  and  C_17
REMARK   11  A    between atoms: C_20  and  C_22
REMARK   12  A    between atoms: C_22  and  C_23
REMARK   13  A    between atoms: N_25  and  C_26
REMARK   14  A    between atoms: C_28  and  C_33
REMARK   15  A    between atoms: C_31  and  C_32
REMARK                            x       y       z     vdW  Elec       q    Type
REMARK                         _______ _______ _______ _____ _____    ______ ____
ROOT
ATOM      1  C   UNL     1      -4.253  -1.972   0.004  0.00  0.00    +0.086 A 
ATOM      2  C   UNL     1      -3.123  -2.725   0.006  0.00  0.00    +0.073 A 
ATOM      3  S   UNL     1      -3.825  -4.369   0.008  0.00  0.00    -0.080 S 
ATOM      4  C   UNL     1      -5.497  -3.900   0.006  0.00  0.00    +0.087 A 
ATOM      5  N   UNL     1      -5.416  -2.589   0.010  0.00  0.00    -0.245 NA
ENDROOT
BRANCH   1   6
ATOM      6  C   UNL     1      -4.177  -0.467   0.003  0.00  0.00    +0.288 C 
BRANCH   6   7
ATOM      7  O   UNL     1      -2.786  -0.052   0.003  0.00  0.00    -0.454 OA
BRANCH   7   8
ATOM      8  C   UNL     1      -2.542   1.274   0.001  0.00  0.00    +0.356 C 
ATOM      9  O   UNL     1      -3.468   2.062  -0.000  0.00  0.00    -0.243 OA
BRANCH   8  12
ATOM     10  C   UNL     1       0.634   3.094  -0.002  0.00  0.00    +0.083 A 
ATOM     11  C   UNL     1      -0.779   3.076   0.005  0.00  0.00    -0.005 A 
ATOM     12  C   UNL     1      -1.161   1.766   0.002  0.00  0.00    +0.128 A 
ATOM     13  N   UNL     1      -0.026   0.984   0.003  0.00  0.00    -0.352 N 
ATOM     14  H   UNL     1      -0.011   0.014   0.004  0.00  0.00    +0.166 HD
ATOM     15  C   UNL     1       1.057   1.777  -0.003  0.00  0.00    +0.028 A 
ATOM     16  C   UNL     1       2.490   1.312  -0.009  0.00  0.00    +0.064 C 
ATOM     17  C   UNL     1      -1.691   4.275   0.007  0.00  0.00    +0.047 C 
BRANCH  10  18
ATOM     18  C   UNL     1       1.494   4.290  -0.007  0.00  0.00    +0.341 C 
ATOM     19  O   UNL     1       1.844   4.782  -1.061  0.00  0.00    -0.245 OA
BRANCH  18  20
ATOM     20  O   UNL     1       1.892   4.837   1.158  0.00  0.00    -0.461 OA
BRANCH  20  22
ATOM     21  C   UNL     1       3.086   6.490   2.490  0.00  0.00    +0.048 C 
ATOM     22  C   UNL     1       2.739   6.014   1.078  0.00  0.00    +0.229 C 
ENDBRANCH  20  22
ENDBRANCH  18  20
ENDBRANCH  10  18
ENDBRANCH   8  12
ENDBRANCH   7   8
ENDBRANCH   6   7
ENDBRANCH   1   6
BRANCH   4  23
ATOM     23  C   UNL     1      -6.725  -4.772   0.006  0.00  0.00    +0.159 C 
BRANCH  23  24
ATOM     24  C   UNL     1      -7.133  -5.065  -1.415  0.00  0.00    +0.224 C 
ATOM     25  O   UNL     1      -6.491  -4.609  -2.337  0.00  0.00    -0.275 OA
ATOM     26  N   UNL     1      -8.213  -5.833  -1.661  0.00  0.00    -0.285 N 
ATOM     27  H   UNL     1      -8.680  -6.263  -0.927  0.00  0.00    +0.155 HD
BRANCH  26  28
ATOM     28  C   UNL     1      -8.661  -6.010  -2.974  0.00  0.00    +0.037 A 
ATOM     29  C   UNL     1      -8.375  -5.056  -3.942  0.00  0.00    +0.027 A 
ATOM     30  C   UNL     1      -8.818  -5.233  -5.238  0.00  0.00    -0.049 A 
ATOM     31  C   UNL     1      -9.547  -6.360  -5.572  0.00  0.00    +0.004 A 
ATOM     32  C   UNL     1      -9.834  -7.312  -4.612  0.00  0.00    +0.005 A 
ATOM     33  C   UNL     1      -9.388  -7.143  -3.315  0.00  0.00    -0.029 A 
ATOM     34  C   UNL     1      -9.696  -8.184  -2.270  0.00  0.00    +0.045 C 
ATOM     35  C   UNL     1      -8.508  -4.198  -6.288  0.00  0.00    +0.044 C 
ENDBRANCH  26  28
ENDBRANCH  23  24
ENDBRANCH   4  23
TORSDOF 10
