REMARK  Name = ZINC02420446
REMARK  14 active torsions:
REMARK  status: ('A' for Active; 'I' for Inactive)
REMARK    1  A    between atoms: C_1  and  C_2
REMARK    2  A    between atoms: C_2  and  N_3
REMARK    3  A    between atoms: N_3  and  C_4
REMARK    4  A    between atoms: N_3  and  C_6
REMARK    5  A    between atoms: C_4  and  C_5
REMARK    6  A    between atoms: C_6  and  C_7
REMARK    7  A    between atoms: C_8  and  O_34
REMARK    8  A    between atoms: C_14  and  C_30
REMARK    9  A    between atoms: C_15  and  O_18
REMARK   10  A    between atoms: O_18  and  C_19
REMARK   11  A    between atoms: C_22  and  C_25
REMARK   12  A    between atoms: C_25  and  O_27
REMARK   13  A    between atoms: O_27  and  C_28
REMARK   14  A    between atoms: C_28  and  C_29
REMARK                            x       y       z     vdW  Elec       q    Type
REMARK                         _______ _______ _______ _____ _____    ______ ____
ROOT
ATOM      1  C   UNL     1       1.521  -2.030  -0.573  0.00  0.00    +0.020 A 
ATOM      2  C   UNL     1       2.679  -2.749  -0.820  0.00  0.00    +0.122 A 
ATOM      3  C   UNL     1       3.856  -2.095  -1.178  0.00  0.00    +0.046 A 
ATOM      4  C   UNL     1       3.883  -0.734  -1.292  0.00  0.00    +0.019 A 
ATOM      5  C   UNL     1       2.725   0.004  -1.047  0.00  0.00    +0.068 A 
ATOM      6  C   UNL     1       1.532  -0.647  -0.684  0.00  0.00    +0.144 A 
ATOM      7  O   UNL     1       0.419   0.076  -0.451  0.00  0.00    -0.447 OA
ATOM      8  C   UNL     1       0.397   1.412  -0.550  0.00  0.00    +0.254 A 
ATOM      9  C   UNL     1       1.482   2.136  -0.890  0.00  0.00    +0.222 A 
ATOM     10  C   UNL     1       2.713   1.473  -1.159  0.00  0.00    +0.235 A 
ATOM     11  O   UNL     1       3.715   2.095  -1.469  0.00  0.00    -0.283 OA
ENDROOT
BRANCH   8  12
ATOM     12  C   UNL     1      -0.897   2.135  -0.276  0.00  0.00    +0.454 C 
ATOM     13  F   UNL     1      -1.623   2.259  -1.465  0.00  0.00    -0.163 F 
ATOM     14  F   UNL     1      -1.648   1.410   0.656  0.00  0.00    -0.163 F 
ATOM     15  F   UNL     1      -0.621   3.407   0.236  0.00  0.00    -0.163 F 
ENDBRANCH   8  12
BRANCH   2  16
ATOM     16  O   UNL     1       2.667  -4.102  -0.711  0.00  0.00    -0.506 OA
ATOM     17  H   UNL     1       3.584  -4.677  -0.905  0.00  0.00    +0.292 HD
ENDBRANCH   2  16
BRANCH   1  18
ATOM     18  C   UNL     1       0.253  -2.748  -0.187  0.00  0.00    -0.036 C 
BRANCH  18  19
ATOM     19  N   UNL     1      -0.507  -3.086  -1.397  0.00  0.00    +0.382 N 
ATOM     20  H   UNL     1       0.170  -3.613  -2.086  0.00  0.00    -0.081 HD
BRANCH  19  22
ATOM     21  C   UNL     1      -1.086  -5.401  -0.847  0.00  0.00    -0.017 C 
ATOM     22  C   UNL     1      -1.623  -3.988  -1.083  0.00  0.00    -0.082 C 
ENDBRANCH  19  22
BRANCH  19  23
ATOM     23  C   UNL     1      -0.985  -1.873  -2.074  0.00  0.00    -0.082 C 
ATOM     24  C   UNL     1      -1.433  -2.224  -3.494  0.00  0.00    -0.017 C 
ENDBRANCH  19  23
ENDBRANCH  18  19
ENDBRANCH   1  18
BRANCH   9  25
ATOM     25  O   UNL     1       1.401   3.492  -0.976  0.00  0.00    -0.448 OA
BRANCH  25  26
ATOM     26  C   UNL     1       1.665   4.217   0.140  0.00  0.00    +0.129 A 
ATOM     27  C   UNL     1       2.000   3.570   1.325  0.00  0.00    +0.047 A 
ATOM     28  C   UNL     1       2.273   4.303   2.458  0.00  0.00    +0.018 A 
ATOM     29  C   UNL     1       2.204   5.699   2.419  0.00  0.00    +0.059 A 
ATOM     30  C   UNL     1       1.862   6.345   1.227  0.00  0.00    +0.018 A 
ATOM     31  C   UNL     1       1.594   5.605   0.097  0.00  0.00    +0.047 A 
BRANCH  29  32
ATOM     32  C   UNL     1       2.491   6.487   3.631  0.00  0.00    +0.339 C 
ATOM     33  O   UNL     1       2.431   7.700   3.596  0.00  0.00    -0.245 OA
BRANCH  32  34
ATOM     34  O   UNL     1       2.821   5.862   4.779  0.00  0.00    -0.461 OA
BRANCH  34  35
ATOM     35  C   UNL     1       3.090   6.702   5.932  0.00  0.00    +0.229 C 
ATOM     36  C   UNL     1       3.445   5.821   7.132  0.00  0.00    +0.048 C 
ENDBRANCH  34  35
ENDBRANCH  32  34
ENDBRANCH  29  32
ENDBRANCH  25  26
ENDBRANCH   9  25
TORSDOF 11
