REMARK  Name = ZINC23281264
REMARK  12 active torsions:
REMARK  status: ('A' for Active; 'I' for Inactive)
REMARK    1  A    between atoms: C_1  and  C_2
REMARK    2  A    between atoms: C_3  and  C_25
REMARK    3  A    between atoms: C_5  and  N_11
REMARK    4  A    between atoms: C_6  and  C_7
REMARK    5  A    between atoms: C_7  and  O_9
REMARK    6  A    between atoms: O_9  and  C_10
REMARK    7  A    between atoms: C_12  and  C_14
REMARK    8  A    between atoms: C_14  and  C_16
REMARK    9  A    between atoms: C_14  and  S_17
REMARK   10  A    between atoms: S_17  and  C_18
REMARK   11  A    between atoms: C_21  and  C_24
REMARK   12  A    between atoms: N_22  and  N_23
REMARK                            x       y       z     vdW  Elec       q    Type
REMARK                         _______ _______ _______ _____ _____    ______ ____
ROOT
ATOM      1  N   UNL     1      -4.083   4.496   6.920  0.00  0.00    -0.278 N 
ATOM      2  C   UNL     1      -4.328   3.676   5.879  0.00  0.00    +0.231 C 
ATOM      3  O   UNL     1      -5.470   3.387   5.591  0.00  0.00    -0.274 OA
ATOM      4  H   UNL     1      -3.047   4.758   7.182  0.00  0.00    +0.155 HD
ENDROOT
BRANCH   1   9
ATOM      5  C   UNL     1      -6.419   7.158  10.538  0.00  0.00    +0.045 C 
ATOM      6  C   UNL     1      -6.350   6.239   9.345  0.00  0.00    -0.025 A 
ATOM      7  C   UNL     1      -7.463   5.738   8.781  0.00  0.00    -0.008 A 
ATOM      8  S   UNL     1      -6.834   4.748   7.441  0.00  0.00    -0.078 S 
ATOM      9  C   UNL     1      -5.136   5.008   7.662  0.00  0.00    +0.086 A 
ATOM     10  C   UNL     1      -5.085   5.860   8.760  0.00  0.00    +0.091 A 
ATOM     11  C   UNL     1      -8.898   5.965   9.182  0.00  0.00    +0.052 C 
BRANCH  10  12
ATOM     12  C   UNL     1      -3.813   6.348   9.296  0.00  0.00    +0.342 C 
ATOM     13  O   UNL     1      -3.333   7.384   8.875  0.00  0.00    -0.245 OA
BRANCH  12  14
ATOM     14  O   UNL     1      -3.174   5.650  10.257  0.00  0.00    -0.464 OA
ATOM     15  C   UNL     1      -1.917   6.193  10.741  0.00  0.00    +0.280 C 
ENDBRANCH  12  14
ENDBRANCH  10  12
ENDBRANCH   1   9
BRANCH   2  16
ATOM     16  C   UNL     1      -3.183   3.119   5.073  0.00  0.00    +0.137 C 
ATOM     17  C   UNL     1      -2.648   1.857   5.752  0.00  0.00    +0.029 C 
BRANCH  16  18
ATOM     18  S   UNL     1      -3.761   2.710   3.407  0.00  0.00    -0.072 S 
BRANCH  18  19
ATOM     19  C   UNL     1      -2.236   2.241   2.660  0.00  0.00    +0.209 A 
ATOM     20  N   UNL     1      -1.056   2.226   3.237  0.00  0.00    -0.121 NA
ATOM     21  N   UNL     1      -0.166   1.831   2.399  0.00  0.00    -0.132 NA
ATOM     22  C   UNL     1      -0.718   1.572   1.248  0.00  0.00    +0.148 A 
ATOM     23  N   UNL     1      -2.056   1.828   1.371  0.00  0.00    -0.228 N 
ATOM     24  C   UNL     1      -0.013   1.086   0.008  0.00  0.00    +0.090 C 
BRANCH  23  25
ATOM     25  N   UNL     1      -3.013   1.697   0.406  0.00  0.00    -0.295 N 
ATOM     26  H   UNL     1      -2.735   1.353  -0.601  0.00  0.00    +0.163 HD
ATOM     27  H   UNL     1      -4.062   1.935   0.636  0.00  0.00    +0.163 HD
ENDBRANCH  23  25
ENDBRANCH  18  19
ENDBRANCH  16  18
ENDBRANCH   2  16
TORSDOF 7
