REMARK  Name = ZINC39933600
REMARK  9 active torsions:
REMARK  status: ('A' for Active; 'I' for Inactive)
REMARK    1  A    between atoms: C_1  and  C_2
REMARK    2  A    between atoms: C_2  and  C_4
REMARK    3  A    between atoms: C_2  and  S_17
REMARK    4  A    between atoms: N_6  and  C_7
REMARK    5  A    between atoms: C_10  and  S_13
REMARK    6  A    between atoms: S_13  and  N_16
REMARK    7  A    between atoms: S_17  and  C_18
REMARK    8  A    between atoms: C_22  and  C_30
REMARK    9  A    between atoms: N_23  and  C_24
REMARK                            x       y       z     vdW  Elec       q    Type
REMARK                         _______ _______ _______ _____ _____    ______ ____
ROOT
ATOM      1  C   UNL     1       2.345   0.061   1.111  0.00  0.00    +0.242 C 
ATOM      2  N   UNL     1       2.535   1.512   0.949  0.00  0.00    -0.237 N 
ATOM      3  N   UNL     1       3.350   1.683  -0.176  0.00  0.00    -0.169 NA
ATOM      4  C   UNL     1       3.673   0.534  -0.708  0.00  0.00    +0.151 C 
ATOM      5  N   UNL     1       3.111  -0.534   0.003  0.00  0.00    -0.254 N 
ATOM      6  H   UNL     1       2.167   2.211   1.511  0.00  0.00    +0.171 HD
ENDROOT
BRANCH   4   7
ATOM      7  C   UNL     1       4.481   0.388  -1.846  0.00  0.00    +0.022 C 
ATOM      8  C   UNL     1       5.090   1.403  -2.584  0.00  0.00    +0.006 A 
ATOM      9  C   UNL     1       5.099   2.808  -2.446  0.00  0.00    +0.010 A 
ATOM     10  C   UNL     1       5.795   3.567  -3.331  0.00  0.00    +0.001 A 
ATOM     11  C   UNL     1       6.509   2.992  -4.385  0.00  0.00    +0.002 A 
ATOM     12  C   UNL     1       6.545   1.651  -4.577  0.00  0.00    +0.026 A 
ATOM     13  C   UNL     1       5.842   0.792  -3.692  0.00  0.00    +0.043 A 
ATOM     14  N   UNL     1       5.720  -0.520  -3.664  0.00  0.00    -0.380 N 
ATOM     15  C   UNL     1       4.879  -0.904  -2.526  0.00  0.00    +0.152 C 
ATOM     16  H   UNL     1       6.127  -1.136  -4.294  0.00  0.00    +0.160 HD
ENDBRANCH   4   7
BRANCH   5  17
ATOM     17  C   UNL     1       3.248  -1.895  -0.282  0.00  0.00    +0.038 A 
ATOM     18  C   UNL     1       4.079  -2.689   0.498  0.00  0.00    +0.023 A 
ATOM     19  C   UNL     1       4.211  -4.034   0.214  0.00  0.00    +0.002 A 
ATOM     20  C   UNL     1       3.519  -4.590  -0.846  0.00  0.00    +0.000 A 
ATOM     21  C   UNL     1       2.691  -3.802  -1.625  0.00  0.00    +0.002 A 
ATOM     22  C   UNL     1       2.550  -2.458  -1.343  0.00  0.00    +0.023 A 
ENDBRANCH   5  17
BRANCH   1  23
ATOM     23  S   UNL     1       0.589  -0.369   0.970  0.00  0.00    -0.105 S 
BRANCH  23  25
ATOM     24  C   UNL     1       0.218   1.799  -0.656  0.00  0.00    +0.029 C 
ATOM     25  C   UNL     1       0.108   0.273  -0.657  0.00  0.00    +0.133 C 
BRANCH  25  26
ATOM     26  C   UNL     1      -1.313  -0.128  -0.956  0.00  0.00    +0.230 C 
ATOM     27  O   UNL     1      -2.081  -0.363  -0.047  0.00  0.00    -0.274 OA
ATOM     28  N   UNL     1      -1.731  -0.226  -2.233  0.00  0.00    -0.285 N 
ATOM     29  H   UNL     1      -1.142   0.034  -2.958  0.00  0.00    +0.155 HD
BRANCH  28  30
ATOM     30  C   UNL     1      -3.017  -0.703  -2.514  0.00  0.00    +0.034 A 
ATOM     31  C   UNL     1      -3.244  -1.459  -3.657  0.00  0.00    +0.025 A 
ATOM     32  C   UNL     1      -4.514  -1.928  -3.931  0.00  0.00    +0.030 A 
ATOM     33  C   UNL     1      -5.558  -1.646  -3.070  0.00  0.00    +0.105 A 
ATOM     34  C   UNL     1      -5.335  -0.893  -1.931  0.00  0.00    +0.030 A 
ATOM     35  C   UNL     1      -4.066  -0.426  -1.648  0.00  0.00    +0.025 A 
BRANCH  33  36
ATOM     36  S   UNL     1      -7.176  -2.247  -3.423  0.00  0.00    +0.056 S 
ATOM     37  O   UNL     1      -8.085  -1.388  -2.748  0.00  0.00    -0.153 OA
ATOM     38  O   UNL     1      -7.231  -2.462  -4.827  0.00  0.00    -0.153 OA
BRANCH  36  39
ATOM     39  N   UNL     1      -7.313  -3.735  -2.710  0.00  0.00    -0.204 NA
ATOM     40  H   UNL     1      -6.566  -4.105  -2.212  0.00  0.00    +0.144 HD
ATOM     41  H   UNL     1      -8.139  -4.237  -2.789  0.00  0.00    +0.144 HD
ENDBRANCH  36  39
ENDBRANCH  33  36
ENDBRANCH  28  30
ENDBRANCH  25  26
ENDBRANCH  23  25
ENDBRANCH   1  23
TORSDOF 8
