REMARK  Name = ZINC06087472
REMARK  6 active torsions:
REMARK  status: ('A' for Active; 'I' for Inactive)
REMARK    1  A    between atoms: C_1  and  C_2
REMARK    2  A    between atoms: C_2  and  N_3
REMARK    3  A    between atoms: C_7  and  C_9
REMARK    4  A    between atoms: C_9  and  N_10
REMARK    5  A    between atoms: C_17  and  C_20
REMARK    6  A    between atoms: C_23  and  C_26
REMARK                            x       y       z     vdW  Elec       q    Type
REMARK                         _______ _______ _______ _____ _____    ______ ____
ROOT
ATOM      1  N   UNL     1      -1.143   4.683   2.803  0.00  0.00    -0.290 N 
ATOM      2  C   UNL     1      -2.381   5.213   2.638  0.00  0.00    +0.203 A 
ATOM      3  N   UNL     1      -3.186   4.772   1.708  0.00  0.00    -0.230 NA
ATOM      4  C   UNL     1      -2.818   3.788   0.893  0.00  0.00    +0.116 A 
ATOM      5  C   UNL     1      -1.556   3.178   0.988  0.00  0.00    +0.080 A 
ATOM      6  C   UNL     1      -0.699   3.684   2.016  0.00  0.00    +0.263 A 
ATOM      7  O   UNL     1       0.416   3.219   2.177  0.00  0.00    -0.267 OA
ATOM      8  C   UNL     1      -1.309   2.116   0.020  0.00  0.00    +0.004 A 
ATOM      9  C   UNL     1      -2.280   1.810  -0.874  0.00  0.00    +0.056 A 
ATOM     10  S   UNL     1      -3.597   2.935  -0.454  0.00  0.00    -0.076 S 
ENDROOT
BRANCH   8  11
ATOM     11  C   UNL     1      -0.017   1.390   0.010  0.00  0.00    -0.017 A 
ATOM     12  C   UNL     1       1.184   2.098   0.002  0.00  0.00    +0.009 A 
ATOM     13  C   UNL     1       2.384   1.416  -0.014  0.00  0.00    +0.004 A 
ATOM     14  C   UNL     1       2.396   0.033  -0.021  0.00  0.00    -0.050 A 
ATOM     15  C   UNL     1       1.208  -0.675  -0.013  0.00  0.00    +0.004 A 
ATOM     16  C   UNL     1       0.002  -0.004   0.002  0.00  0.00    +0.009 A 
ATOM     17  C   UNL     1       3.710  -0.706  -0.037  0.00  0.00    +0.044 C 
ENDBRANCH   8  11
BRANCH   1  18
ATOM     18  C   UNL     1      -0.271   5.207   3.857  0.00  0.00    +0.222 C 
BRANCH  18  23
ATOM     19  N   UNL     1       3.056   8.632   4.409  0.00  0.00    -0.299 N 
ATOM     20  C   UNL     1       2.176   7.993   3.613  0.00  0.00    +0.306 C 
ATOM     21  O   UNL     1       2.051   8.330   2.452  0.00  0.00    -0.252 OA
ATOM     22  N   UNL     1       1.436   6.979   4.104  0.00  0.00    -0.239 N 
ATOM     23  C   UNL     1       0.556   6.340   3.308  0.00  0.00    +0.240 C 
ATOM     24  O   UNL     1       0.431   6.676   2.150  0.00  0.00    -0.273 OA
ATOM     25  H   UNL     1       3.156   8.363   5.335  0.00  0.00    +0.150 HD
ATOM     26  H   UNL     1       1.536   6.710   5.030  0.00  0.00    +0.159 HD
BRANCH  19  28
ATOM     27  C   UNL     1       4.771  10.282   4.976  0.00  0.00    +0.024 C 
ATOM     28  C   UNL     1       3.861   9.734   3.874  0.00  0.00    +0.102 C 
ENDBRANCH  19  28
ENDBRANCH  18  23
ENDBRANCH   1  18
TORSDOF 4
