REMARK  Name = ZINC31787398
REMARK  3 active torsions:
REMARK  status: ('A' for Active; 'I' for Inactive)
REMARK    1  A    between atoms: C_6  and  N_19
REMARK    2  A    between atoms: C_8  and  S_10
REMARK    3  A    between atoms: S_10  and  C_11
REMARK                            x       y       z     vdW  Elec       q    Type
REMARK                         _______ _______ _______ _____ _____    ______ ____
ROOT
ATOM      1  C   UNL     1      -0.018   1.449   0.010  0.00  0.00    +0.021 A 
ATOM      2  C   UNL     1       1.143   2.120   0.003  0.00  0.00    +0.048 A 
ATOM      3  S   UNL     1       2.371   0.827  -0.016  0.00  0.00    -0.077 S 
ATOM      4  C   UNL     1       1.291  -0.580  -0.013  0.00  0.00    +0.114 A 
ATOM      5  C   UNL     1       0.002  -0.004   0.002  0.00  0.00    +0.047 A 
ATOM      6  C   UNL     1      -1.081  -0.927   0.007  0.00  0.00    +0.129 A 
ATOM      7  N   UNL     1      -0.826  -2.224  -0.003  0.00  0.00    -0.207 NA
ATOM      8  C   UNL     1       0.414  -2.700  -0.017  0.00  0.00    +0.192 A 
ATOM      9  N   UNL     1       1.462  -1.887  -0.022  0.00  0.00    -0.215 NA
ENDROOT
BRANCH   6  10
ATOM     10  N   UNL     1      -2.386  -0.471   0.022  0.00  0.00    -0.343 N 
ATOM     11  H   UNL     1      -2.568   0.481   0.030  0.00  0.00    +0.144 HD
ATOM     12  H   UNL     1      -3.121  -1.105   0.026  0.00  0.00    +0.144 HD
ENDBRANCH   6  10
BRANCH   8  13
ATOM     13  S   UNL     1       0.671  -4.443  -0.029  0.00  0.00    -0.075 S 
BRANCH  13  14
ATOM     14  C   UNL     1       2.477  -4.620  -0.048  0.00  0.00    +0.120 C 
ATOM     15  C   UNL     1       2.848  -6.101  -0.176  0.00  0.00    +0.022 C 
ATOM     16  C   UNL     1       4.364  -6.258  -0.049  0.00  0.00    +0.002 C 
ATOM     17  C   UNL     1       4.816  -5.819   1.345  0.00  0.00    +0.008 C 
ATOM     18  C   UNL     1       4.519  -4.327   1.531  0.00  0.00    +0.075 C 
ATOM     19  C   UNL     1       3.053  -4.086   1.246  0.00  0.00    +0.147 C 
ATOM     20  O   UNL     1       2.359  -3.486   2.031  0.00  0.00    -0.296 OA
ENDBRANCH  13  14
ENDBRANCH   8  13
TORSDOF 3
