REMARK  Name = ZINC06755244
REMARK  8 active torsions:
REMARK  status: ('A' for Active; 'I' for Inactive)
REMARK    1  A    between atoms: C_1  and  C_2
REMARK    2  A    between atoms: C_2  and  C_3
REMARK    3  A    between atoms: C_3  and  C_4
REMARK    4  A    between atoms: C_18  and  N_58
REMARK    5  A    between atoms: C_20  and  C_25
REMARK    6  A    between atoms: C_20  and  C_26
REMARK    7  A    between atoms: C_21  and  C_23
REMARK    8  A    between atoms: C_21  and  C_24
REMARK                            x       y       z     vdW  Elec       q    Type
REMARK                         _______ _______ _______ _____ _____    ______ ____
ROOT
ATOM      1  C   UNL     1       1.196   3.536   0.009  0.00  0.00    -0.030 A 
ATOM      2  C   UNL     1       2.402   4.162   0.000  0.00  0.00    +0.096 A 
ATOM      3  C   UNL     1       3.584   3.395  -0.015  0.00  0.00    +0.337 A 
ATOM      4  O   UNL     1       4.655   3.975  -0.022  0.00  0.00    -0.245 OA
ATOM      5  O   UNL     1       3.580   2.058  -0.021  0.00  0.00    -0.422 OA
ATOM      6  C   UNL     1       2.414   1.382  -0.013  0.00  0.00    +0.144 A 
ATOM      7  C   UNL     1       1.188   2.071   0.002  0.00  0.00    +0.021 A 
ATOM      8  C   UNL     1      -0.016   1.359   0.009  0.00  0.00    +0.015 A 
ATOM      9  C   UNL     1       0.002  -0.004   0.002  0.00  0.00    +0.046 A 
ATOM     10  C   UNL     1       1.214  -0.697  -0.013  0.00  0.00    +0.123 A 
ATOM     11  C   UNL     1       2.413  -0.008  -0.022  0.00  0.00    +0.021 A 
ATOM     12  C   UNL     1       3.728  -0.744  -0.042  0.00  0.00    -0.030 C 
ATOM     13  C   UNL     1       2.399  -2.725  -0.396  0.00  0.00    +0.158 C 
ATOM     14  O   UNL     1       1.194  -2.056  -0.018  0.00  0.00    -0.509 OA
ATOM     15  N   UNL     1       3.509  -2.140   0.384  0.00  0.00    +0.407 N 
ATOM     16  H   UNL     1       3.262  -2.151   1.380  0.00  0.00    -0.076 HD
ENDROOT
BRANCH  15  17
ATOM     17  C   UNL     1       4.746  -2.933   0.184  0.00  0.00    -0.066 C 
ATOM     18  C   UNL     1       5.906  -2.229   0.888  0.00  0.00    -0.028 C 
ATOM     19  C   UNL     1       7.203  -3.009   0.693  0.00  0.00    -0.075 C 
ATOM     20  C   UNL     1       6.344  -3.848  -1.512  0.00  0.00    -0.075 C 
ATOM     21  C   UNL     1       5.073  -3.025  -1.308  0.00  0.00    -0.028 C 
ATOM     22  C   UNL     1       6.046  -5.330  -1.265  0.00  0.00    -0.010 C 
ATOM     23  C   UNL     1       6.760  -3.702  -2.992  0.00  0.00    -0.010 C 
ATOM     24  C   UNL     1       7.204  -4.239   1.609  0.00  0.00    -0.010 C 
ATOM     25  C   UNL     1       8.365  -2.099   1.151  0.00  0.00    -0.010 C 
ATOM     26  N   UNL     1       7.511  -3.378  -0.715  0.00  0.00    +0.386 N 
ATOM     27  H   UNL     1       8.210  -4.130  -0.701  0.00  0.00    -0.084 HD
ATOM     28  H   UNL     1       7.904  -2.553  -1.182  0.00  0.00    -0.084 HD
ENDBRANCH  15  17
BRANCH   1  29
ATOM     29  C   UNL     1      -0.090   4.322   0.025  0.00  0.00    +0.036 C 
BRANCH  29  31
ATOM     30  C   UNL     1      -1.882   5.272   1.483  0.00  0.00    +0.004 C 
ATOM     31  C   UNL     1      -0.577   4.474   1.467  0.00  0.00    +0.001 C 
ENDBRANCH  29  31
ENDBRANCH   1  29
TORSDOF 3
