REMARK  Name = ZINC27894292
REMARK  6 active torsions:
REMARK  status: ('A' for Active; 'I' for Inactive)
REMARK    1  A    between atoms: C_1  and  C_2
REMARK    2  A    between atoms: C_2  and  C_4
REMARK    3  A    between atoms: C_2  and  N_10
REMARK    4  A    between atoms: C_11  and  C_13
REMARK    5  A    between atoms: C_17  and  S_19
REMARK    6  A    between atoms: S_19  and  C_20
REMARK                            x       y       z     vdW  Elec       q    Type
REMARK                         _______ _______ _______ _____ _____    ______ ____
ROOT
ATOM      1  N   UNL     1       0.742  -2.831   0.188  0.00  0.00    -0.305 N 
ATOM      2  C   UNL     1       1.092  -4.112   0.415  0.00  0.00    +0.264 C 
ATOM      3  O   UNL     1       2.048  -4.364   1.121  0.00  0.00    -0.268 OA
ATOM      4  H   UNL     1      -0.124  -2.602  -0.452  0.00  0.00    +0.149 HD
ENDROOT
BRANCH   2   5
ATOM      5  C   UNL     1       0.309  -5.215  -0.196  0.00  0.00    +0.148 A 
ATOM      6  C   UNL     1       0.665  -6.546   0.029  0.00  0.00    +0.090 A 
ATOM      7  C   UNL     1      -0.101  -7.544  -0.561  0.00  0.00    +0.136 A 
ATOM      8  N   UNL     1      -1.129  -7.205  -1.318  0.00  0.00    -0.229 NA
ATOM      9  C   UNL     1      -1.440  -5.931  -1.517  0.00  0.00    +0.189 A 
ATOM     10  N   UNL     1      -0.740  -4.950  -0.971  0.00  0.00    -0.216 NA
ATOM     11 CL   UNL     1       2.029  -6.945   1.026  0.00  0.00    -0.080 Cl
BRANCH   9  12
ATOM     12  S   UNL     1      -2.821  -5.534  -2.537  0.00  0.00    -0.089 S 
ATOM     13  C   UNL     1      -3.368  -7.199  -2.987  0.00  0.00    +0.093 C 
ENDBRANCH   9  12
ENDBRANCH   2   5
BRANCH   1  15
ATOM     14  C   UNL     1       1.001  -1.476   2.208  0.00  0.00    +0.030 C 
ATOM     15  C   UNL     1       1.514  -1.742   0.791  0.00  0.00    +0.099 C 
BRANCH  15  16
ATOM     16  C   UNL     1       1.358  -0.476  -0.054  0.00  0.00    +0.138 C 
ATOM     17  C   UNL     1       2.211   0.674   0.537  0.00  0.00    +0.035 C 
ATOM     18  C   UNL     1       1.448   1.915  -0.002  0.00  0.00    +0.031 C 
ATOM     19  C   UNL     1      -0.017   1.428   0.010  0.00  0.00    +0.160 C 
ATOM     20  O   UNL     1       0.002  -0.004   0.002  0.00  0.00    -0.375 OA
ENDBRANCH  15  16
ENDBRANCH   1  15
TORSDOF 4
