REMARK  Name = ZINC09291037
REMARK  8 active torsions:
REMARK  status: ('A' for Active; 'I' for Inactive)
REMARK    1  A    between atoms: C_4  and  C_7
REMARK    2  A    between atoms: C_7  and  O_8
REMARK    3  A    between atoms: O_8  and  C_9
REMARK    4  A    between atoms: C_12  and  C_15
REMARK    5  A    between atoms: C_22  and  N_36
REMARK    6  A    between atoms: C_23  and  C_34
REMARK    7  A    between atoms: C_24  and  C_26
REMARK    8  A    between atoms: C_31  and  O_32
REMARK                            x       y       z     vdW  Elec       q    Type
REMARK                         _______ _______ _______ _____ _____    ______ ____
ROOT
ATOM      1  C   UNL     1       9.011  -3.665   1.977  0.00  0.00    +0.074 A 
ATOM      2  C   UNL     1       9.270  -4.626   2.897  0.00  0.00    +0.054 A 
ATOM      3  C   UNL     1      10.603  -5.047   2.725  0.00  0.00    +0.245 A 
ATOM      4  N   UNL     1      11.125  -4.368   1.744  0.00  0.00    -0.135 NA
ATOM      5  N   UNL     1      10.150  -3.491   1.243  0.00  0.00    -0.273 N 
ATOM      6  H   UNL     1      10.265  -2.870   0.507  0.00  0.00    +0.189 HD
ATOM      7  O   UNL     1      11.159  -6.013   3.506  0.00  0.00    -0.421 OA
ATOM      8  C   UNL     1      10.328  -6.750   4.270  0.00  0.00    +0.201 C 
ATOM      9  C   UNL     1       9.038  -6.439   4.515  0.00  0.00    +0.098 C 
ATOM     10  C   UNL     1       8.370  -5.209   3.956  0.00  0.00    +0.105 C 
ENDROOT
BRANCH  10  11
ATOM     11  C   UNL     1       8.158  -4.200   5.055  0.00  0.00    +0.008 A 
ATOM     12  C   UNL     1       9.245  -3.635   5.693  0.00  0.00    +0.028 A 
ATOM     13  C   UNL     1       9.051  -2.709   6.702  0.00  0.00    +0.041 A 
ATOM     14  C   UNL     1       7.768  -2.348   7.076  0.00  0.00    +0.023 A 
ATOM     15  C   UNL     1       6.679  -2.911   6.441  0.00  0.00    +0.047 A 
ATOM     16  C   UNL     1       6.871  -3.836   5.424  0.00  0.00    +0.121 A 
ATOM     17 CL   UNL     1      10.419  -2.000   7.503  0.00  0.00    -0.084 Cl
BRANCH  16  18
ATOM     18  O   UNL     1       5.801  -4.387   4.794  0.00  0.00    -0.506 OA
ATOM     19  H   UNL     1       5.476  -5.199   5.207  0.00  0.00    +0.292 HD
ENDBRANCH  16  18
ENDBRANCH  10  11
BRANCH   1  23
ATOM     20  C   UNL     1       5.336  -1.593   1.459  0.00  0.00    +0.121 A 
ATOM     21  C   UNL     1       6.531  -0.886   1.496  0.00  0.00    +0.046 A 
ATOM     22  C   UNL     1       7.725  -1.555   1.664  0.00  0.00    +0.013 A 
ATOM     23  C   UNL     1       7.732  -2.944   1.797  0.00  0.00    +0.000 A 
ATOM     24  C   UNL     1       6.529  -3.651   1.760  0.00  0.00    +0.013 A 
ATOM     25  C   UNL     1       5.339  -2.975   1.597  0.00  0.00    +0.046 A 
BRANCH  20  26
ATOM     26  O   UNL     1       4.162  -0.931   1.293  0.00  0.00    -0.487 OA
BRANCH  26  27
ATOM     27  C   UNL     1       4.231   0.490   1.158  0.00  0.00    +0.264 C 
BRANCH  27  31
ATOM     28  C   UNL     1       0.294   2.071   0.666  0.00  0.00    +0.000 A 
ATOM     29  C   UNL     1       0.830   1.932   1.933  0.00  0.00    +0.000 A 
ATOM     30  C   UNL     1       2.104   1.420   2.092  0.00  0.00    +0.007 A 
ATOM     31  C   UNL     1       2.842   1.047   0.984  0.00  0.00    -0.010 A 
ATOM     32  C   UNL     1       2.305   1.184  -0.282  0.00  0.00    +0.007 A 
ATOM     33  C   UNL     1       1.032   1.697  -0.441  0.00  0.00    +0.000 A 
ENDBRANCH  27  31
ENDBRANCH  26  27
ENDBRANCH  20  26
ENDBRANCH   1  23
BRANCH   8  34
ATOM     34  N   UNL     1      10.829  -7.895   4.838  0.00  0.00    -0.328 N 
ATOM     35  H   UNL     1      11.752  -8.149   4.683  0.00  0.00    +0.145 HD
ATOM     36  H   UNL     1      10.260  -8.450   5.393  0.00  0.00    +0.145 HD
ENDBRANCH   8  34
BRANCH   9  37
ATOM     37  C   UNL     1       8.269  -7.318   5.344  0.00  0.00    +0.101 C 
ATOM     38  N   UNL     1       7.659  -8.015   6.001  0.00  0.00    -0.191 NA
ENDBRANCH   9  37
TORSDOF 8
