REMARK  Name = ZINC12498010
REMARK  6 active torsions:
REMARK  status: ('A' for Active; 'I' for Inactive)
REMARK    1  A    between atoms: C_1  and  O_2
REMARK    2  A    between atoms: O_2  and  C_3
REMARK    3  A    between atoms: C_3  and  C_5
REMARK    4  A    between atoms: C_5  and  C_34
REMARK    5  A    between atoms: C_10  and  C_12
REMARK    6  A    between atoms: N_21  and  C_24
REMARK                            x       y       z     vdW  Elec       q    Type
REMARK                         _______ _______ _______ _____ _____    ______ ____
ROOT
ATOM      1  C   UNL     1       1.398   1.975  -0.001  0.00  0.00    +0.070 C 
ATOM      2  C   UNL     1       2.303   0.779  -0.289  0.00  0.00    +0.090 C 
ATOM      3  C   UNL     1       1.484  -0.303   0.526  0.00  0.00    +0.078 C 
ATOM      4  C   UNL     1       0.120  -0.082   0.007  0.00  0.00    -0.023 C 
ATOM      5  C   UNL     1       2.458  -1.366   0.631  0.00  0.00    +0.229 C 
ATOM      6  O   UNL     1       2.256  -2.561   0.598  0.00  0.00    -0.275 OA
ATOM      7  N   UNL     1       3.662  -0.722   0.776  0.00  0.00    -0.210 N 
ATOM      8  C   UNL     1       3.586   0.610   0.478  0.00  0.00    +0.229 C 
ATOM      9  O   UNL     1       4.385   1.474   0.770  0.00  0.00    -0.275 OA
ATOM     10  N   UNL     1       0.023   1.411   0.040  0.00  0.00    +0.398 N 
ATOM     11  H   UNL     1      -0.511   1.741  -0.773  0.00  0.00    -0.083 HD
ATOM     12  H   UNL     1      -0.448   1.708   0.902  0.00  0.00    -0.083 HD
ENDROOT
BRANCH   7  13
ATOM     13  C   UNL     1       4.841  -1.361   1.186  0.00  0.00    +0.048 A 
ATOM     14  C   UNL     1       6.019  -0.637   1.303  0.00  0.00    +0.028 A 
ATOM     15  C   UNL     1       7.180  -1.265   1.711  0.00  0.00    +0.051 A 
ATOM     16  C   UNL     1       7.175  -2.623   1.995  0.00  0.00    +0.162 A 
ATOM     17  C   UNL     1       5.997  -3.352   1.876  0.00  0.00    +0.164 A 
ATOM     18  C   UNL     1       4.832  -2.720   1.470  0.00  0.00    +0.073 A 
ATOM     19  O   UNL     1       5.970  -4.683   2.158  0.00  0.00    -0.485 OA
ATOM     20  C   UNL     1       7.232  -5.358   2.200  0.00  0.00    +0.270 C 
ATOM     21  C   UNL     1       8.207  -4.503   3.022  0.00  0.00    +0.270 C 
ATOM     22  O   UNL     1       8.331  -3.227   2.385  0.00  0.00    -0.485 OA
ENDBRANCH   7  13
BRANCH   4  23
ATOM     23  C   UNL     1      -0.011  -0.600  -1.402  0.00  0.00    -0.025 A 
ATOM     24  C   UNL     1       0.282   0.225  -2.472  0.00  0.00    +0.005 A 
ATOM     25  C   UNL     1       0.162  -0.250  -3.765  0.00  0.00    +0.000 A 
ATOM     26  C   UNL     1      -0.250  -1.551  -3.989  0.00  0.00    +0.003 A 
ATOM     27  C   UNL     1      -0.543  -2.377  -2.921  0.00  0.00    +0.038 A 
ATOM     28  C   UNL     1      -0.419  -1.904  -1.626  0.00  0.00    +0.125 A 
ATOM     29  F   UNL     1      -0.700  -2.713  -0.581  0.00  0.00    -0.205 F 
ENDBRANCH   4  23
BRANCH   1  30
ATOM     30  C   UNL     1       1.753   2.591   1.328  0.00  0.00    -0.047 A 
ATOM     31  C   UNL     1       1.063   2.221   2.467  0.00  0.00    +0.003 A 
ATOM     32  C   UNL     1       1.392   2.783   3.687  0.00  0.00    +0.000 A 
ATOM     33  C   UNL     1       2.404   3.720   3.766  0.00  0.00    +0.000 A 
ATOM     34  C   UNL     1       3.091   4.094   2.626  0.00  0.00    +0.000 A 
ATOM     35  C   UNL     1       2.765   3.529   1.407  0.00  0.00    +0.003 A 
ENDBRANCH   1  30
BRANCH   1  36
ATOM     36  C   UNL     1       1.518   2.998  -1.101  0.00  0.00    +0.301 C 
ATOM     37  O   UNL     1       2.541   3.084  -1.737  0.00  0.00    -0.252 OA
BRANCH  36  39
ATOM     38  C   UNL     1       0.673   4.774  -2.446  0.00  0.00    +0.280 C 
ATOM     39  O   UNL     1       0.487   3.813  -1.374  0.00  0.00    -0.469 OA
ENDBRANCH  36  39
ENDBRANCH   1  36
TORSDOF 5
