REMARK  Name = ZINC05009907
REMARK  5 active torsions:
REMARK  status: ('A' for Active; 'I' for Inactive)
REMARK    1  A    between atoms: C_1  and  C_2
REMARK    2  A    between atoms: C_6  and  C_8
REMARK    3  A    between atoms: C_8  and  C_9
REMARK    4  A    between atoms: N_15  and  N_16
REMARK    5  A    between atoms: C_17  and  C_18
REMARK                            x       y       z     vdW  Elec       q    Type
REMARK                         _______ _______ _______ _____ _____    ______ ____
ROOT
ATOM      1  C   UNL     1      -8.010   4.211   0.057  0.00  0.00    +0.144 C 
ATOM      2  C   UNL     1      -6.669   4.927   0.055  0.00  0.00    +0.232 C 
ATOM      3  O   UNL     1      -6.585   6.137   0.061  0.00  0.00    -0.274 OA
ATOM      4  N   UNL     1      -5.601   4.149   0.047  0.00  0.00    -0.263 N 
ATOM      5  C   UNL     1      -5.691   2.772   0.041  0.00  0.00    +0.183 C 
ATOM      6  N   UNL     1      -4.710   1.894   0.032  0.00  0.00    -0.127 NA
ATOM      7  S   UNL     1      -7.450   2.462   0.039  0.00  0.00    -0.075 S 
ATOM      8  H   UNL     1      -4.722   4.560   0.045  0.00  0.00    +0.157 HD
ENDROOT
BRANCH   6   9
ATOM      9  N   UNL     1      -3.484   2.295   0.029  0.00  0.00    -0.152 NA
ATOM     10  C   UNL     1      -2.510   1.422   0.020  0.00  0.00    +0.181 C 
BRANCH  10  11
ATOM     11  C   UNL     1      -1.120   1.877   0.017  0.00  0.00    +0.147 A 
ATOM     12  C   UNL     1      -0.013   1.076   0.008  0.00  0.00    +0.051 A 
ATOM     13  C   UNL     1       1.104   1.931   0.002  0.00  0.00    +0.042 A 
ATOM     14  C   UNL     1       0.636   3.196   0.012  0.00  0.00    +0.196 A 
ATOM     15  O   UNL     1      -0.707   3.160   0.025  0.00  0.00    -0.462 OA
ENDBRANCH  10  11
ENDBRANCH   6   9
BRANCH   1  16
ATOM     16  C   UNL     1      -8.818   4.543  -1.199  0.00  0.00    +0.059 C 
BRANCH  16  22
ATOM     17  C   UNL     1     -11.873   0.665  -2.020  0.00  0.00    +0.044 C 
ATOM     18  C   UNL     1     -11.645   2.058  -1.492  0.00  0.00    -0.050 A 
ATOM     19  C   UNL     1     -12.689   2.759  -0.917  0.00  0.00    +0.003 A 
ATOM     20  C   UNL     1     -12.479   4.037  -0.433  0.00  0.00    +0.001 A 
ATOM     21  C   UNL     1     -11.227   4.614  -0.524  0.00  0.00    +0.004 A 
ATOM     22  C   UNL     1     -10.183   3.914  -1.099  0.00  0.00    -0.046 A 
ATOM     23  C   UNL     1     -10.394   2.638  -1.589  0.00  0.00    +0.007 A 
ENDBRANCH  16  22
ENDBRANCH   1  16
TORSDOF 4
