REMARK  Name = ZINC04395921
REMARK  7 active torsions:
REMARK  status: ('A' for Active; 'I' for Inactive)
REMARK    1  A    between atoms: C_1  and  O_2
REMARK    2  A    between atoms: O_2  and  C_3
REMARK    3  A    between atoms: C_3  and  C_5
REMARK    4  A    between atoms: C_8  and  C_9
REMARK    5  A    between atoms: C_16  and  N_33
REMARK    6  A    between atoms: C_17  and  C_31
REMARK    7  A    between atoms: C_21  and  C_24
REMARK                            x       y       z     vdW  Elec       q    Type
REMARK                         _______ _______ _______ _____ _____    ______ ____
ROOT
ATOM      1  C   UNL     1       3.987  -1.248   0.228  0.00  0.00    +0.118 C 
ATOM      2  C   UNL     1       4.252  -1.292  -1.128  0.00  0.00    +0.080 A 
ATOM      3  C   UNL     1       5.428  -1.876  -1.784  0.00  0.00    +0.024 A 
ATOM      4  C   UNL     1       6.544  -2.416  -1.176  0.00  0.00    +0.021 C 
ATOM      5  C   UNL     1       5.162  -1.764  -3.229  0.00  0.00    +0.069 A 
ATOM      6  C   UNL     1       3.966  -1.102  -3.372  0.00  0.00    +0.149 A 
ATOM      7  N   UNL     1       3.446  -0.755  -2.120  0.00  0.00    -0.267 N 
ATOM      8  C   UNL     1       2.366   0.027  -1.920  0.00  0.00    +0.251 C 
ATOM      9  O   UNL     1       1.600   0.227  -2.838  0.00  0.00    -0.271 OA
ATOM     10  C   UNL     1       2.092   0.657  -0.581  0.00  0.00    +0.172 C 
ATOM     11  S   UNL     1       2.450  -0.537   0.740  0.00  0.00    -0.098 S 
ENDROOT
BRANCH   4  12
ATOM     12  C   UNL     1       7.710  -2.786  -1.982  0.00  0.00    -0.006 A 
ATOM     13  C   UNL     1       8.135  -1.957  -3.030  0.00  0.00    +0.009 A 
ATOM     14  C   UNL     1       9.232  -2.312  -3.783  0.00  0.00    +0.001 A 
ATOM     15  C   UNL     1       9.917  -3.485  -3.507  0.00  0.00    +0.001 A 
ATOM     16  C   UNL     1       9.506  -4.310  -2.475  0.00  0.00    +0.020 A 
ATOM     17  C   UNL     1       8.413  -3.968  -1.706  0.00  0.00    +0.048 A 
ATOM     18 CL   UNL     1       7.904  -5.001  -0.407  0.00  0.00    -0.083 Cl
ENDBRANCH   4  12
BRANCH  10  19
ATOM     19  C   UNL     1       0.644   1.068  -0.507  0.00  0.00    -0.007 A 
ATOM     20  C   UNL     1      -0.285   0.224   0.073  0.00  0.00    +0.006 A 
ATOM     21  C   UNL     1      -1.614   0.598   0.136  0.00  0.00    +0.000 A 
ATOM     22  C   UNL     1      -2.014   1.821  -0.371  0.00  0.00    +0.001 A 
ATOM     23  C   UNL     1      -1.085   2.666  -0.951  0.00  0.00    +0.020 A 
ATOM     24  C   UNL     1       0.244   2.289  -1.019  0.00  0.00    +0.046 A 
ATOM     25 CL   UNL     1       1.411   3.349  -1.747  0.00  0.00    -0.083 Cl
ENDBRANCH  10  19
BRANCH   5  26
ATOM     26  N   UNL     1       5.968  -2.238  -4.253  0.00  0.00    -0.355 N 
ATOM     27  H   UNL     1       5.667  -2.095  -5.301  0.00  0.00    +0.142 HD
ATOM     28  H   UNL     1       6.910  -2.756  -4.017  0.00  0.00    +0.142 HD
ENDBRANCH   5  26
BRANCH   1  29
ATOM     29  C   UNL     1       4.911  -1.755   1.172  0.00  0.00    +0.347 C 
ATOM     30  O   UNL     1       4.798  -2.895   1.584  0.00  0.00    -0.244 OA
BRANCH  29  32
ATOM     31  C   UNL     1       6.815  -1.550   2.568  0.00  0.00    +0.280 C 
ATOM     32  O   UNL     1       5.919  -0.974   1.616  0.00  0.00    -0.464 OA
ENDBRANCH  29  32
ENDBRANCH   1  29
BRANCH   6  33
ATOM     33  C   UNL     1       3.339  -0.810  -4.626  0.00  0.00    +0.120 C 
ATOM     34  N   UNL     1       2.842  -0.578  -5.621  0.00  0.00    -0.189 NA
ENDBRANCH   6  33
TORSDOF 6
