REMARK  Name = ZINC40086091
REMARK  6 active torsions:
REMARK  status: ('A' for Active; 'I' for Inactive)
REMARK    1  A    between atoms: C_4  and  C_7
REMARK    2  A    between atoms: N_16  and  C_17
REMARK    3  A    between atoms: C_17  and  C_18
REMARK    4  A    between atoms: N_20  and  C_21
REMARK    5  A    between atoms: C_25  and  S_27
REMARK    6  A    between atoms: S_27  and  N_30
REMARK                            x       y       z     vdW  Elec       q    Type
REMARK                         _______ _______ _______ _____ _____    ______ ____
ROOT
ATOM      1  C   UNL     1       3.272  -2.625  -3.210  0.00  0.00    +0.201 C 
ATOM      2  O   UNL     1       3.223  -3.739  -2.734  0.00  0.00    -0.278 OA
ATOM      3  N   UNL     1       3.132  -2.454  -4.540  0.00  0.00    -0.287 N 
ATOM      4  H   UNL     1       3.103  -1.559  -4.913  0.00  0.00    +0.155 HD
ENDROOT
BRANCH   3   5
ATOM      5  C   UNL     1       3.029  -3.567  -5.381  0.00  0.00    +0.035 A 
ATOM      6  C   UNL     1       2.362  -4.706  -4.950  0.00  0.00    +0.023 A 
ATOM      7  C   UNL     1       2.262  -5.803  -5.783  0.00  0.00    +0.004 A 
ATOM      8  C   UNL     1       2.825  -5.768  -7.045  0.00  0.00    +0.029 A 
ATOM      9  C   UNL     1       3.490  -4.635  -7.478  0.00  0.00    +0.114 A 
ATOM     10  C   UNL     1       3.588  -3.532  -6.652  0.00  0.00    +0.052 A 
BRANCH   9  11
ATOM     11  S   UNL     1       4.207  -4.596  -9.087  0.00  0.00    +0.100 S 
ATOM     12  O   UNL     1       5.243  -3.624  -9.046  0.00  0.00    -0.146 OA
ATOM     13  O   UNL     1       4.444  -5.947  -9.459  0.00  0.00    -0.146 OA
BRANCH  11  14
ATOM     14  N   UNL     1       3.053  -4.015 -10.123  0.00  0.00    -0.118 NA
ATOM     15  C   UNL     1       3.321  -3.884 -11.381  0.00  0.00    +0.117 C 
ATOM     16  C   UNL     1       4.643  -4.229 -12.030  0.00  0.00    +0.074 C 
ATOM     17  C   UNL     1       4.319  -4.302 -13.540  0.00  0.00    +0.026 C 
ATOM     18  C   UNL     1       3.082  -3.385 -13.650  0.00  0.00    +0.103 C 
ATOM     19  N   UNL     1       2.450  -3.417 -12.326  0.00  0.00    -0.331 N 
ATOM     20  H   UNL     1       1.537  -3.142 -12.146  0.00  0.00    +0.147 HD
ENDBRANCH  11  14
ENDBRANCH   9  11
ENDBRANCH   3   5
BRANCH   1  21
ATOM     21  C   UNL     1       3.488  -1.431  -2.315  0.00  0.00    +0.020 C 
BRANCH  21  30
ATOM     22  C   UNL     1       3.699  -0.707  -0.036  0.00  0.00    +0.011 C 
ATOM     23  C   UNL     1       4.034  -1.189   1.354  0.00  0.00    +0.009 A 
ATOM     24  C   UNL     1       3.919  -0.527   2.514  0.00  0.00    +0.021 A 
ATOM     25  C   UNL     1       4.349  -1.397   3.539  0.00  0.00    +0.019 A 
ATOM     26  C   UNL     1       4.713  -2.560   2.957  0.00  0.00    +0.086 A 
ATOM     27  N   UNL     1       4.526  -2.441   1.619  0.00  0.00    -0.353 N 
ATOM     28  C   UNL     1       4.788  -3.436   0.572  0.00  0.00    +0.103 C 
ATOM     29  C   UNL     1       4.814  -2.709  -0.778  0.00  0.00    -0.055 C 
ATOM     30  N   UNL     1       3.609  -1.880  -0.922  0.00  0.00    +0.395 N 
ATOM     31  H   UNL     1       2.796  -2.424  -0.674  0.00  0.00    -0.080 HD
BRANCH  22  35
ATOM     32  C   UNL     1      -0.043   1.353   0.013  0.00  0.00    +0.000 A 
ATOM     33  C   UNL     1       1.140   2.069   0.005  0.00  0.00    +0.000 A 
ATOM     34  C   UNL     1       2.351   1.402  -0.010  0.00  0.00    +0.002 A 
ATOM     35  C   UNL     1       2.379   0.020  -0.018  0.00  0.00    -0.055 A 
ATOM     36  C   UNL     1       1.196  -0.695  -0.010  0.00  0.00    +0.002 A 
ATOM     37  C   UNL     1      -0.014  -0.029   0.004  0.00  0.00    +0.000 A 
ENDBRANCH  22  35
ENDBRANCH  21  30
ENDBRANCH   1  21
TORSDOF 6
