REMARK  Name = ZINC20238900
REMARK  8 active torsions:
REMARK  status: ('A' for Active; 'I' for Inactive)
REMARK    1  A    between atoms: C_1  and  C_2
REMARK    2  A    between atoms: C_2  and  C_3
REMARK    3  A    between atoms: C_3  and  C_5
REMARK    4  A    between atoms: C_3  and  C_11
REMARK    5  A    between atoms: C_17  and  C_18
REMARK    6  A    between atoms: C_21  and  C_23
REMARK    7  A    between atoms: C_25  and  N_30
REMARK    8  A    between atoms: C_28  and  C_29
REMARK                            x       y       z     vdW  Elec       q    Type
REMARK                         _______ _______ _______ _____ _____    ______ ____
ROOT
ATOM      1  C   UNL     1      -2.348  -1.961   0.175  0.00  0.00    +0.107 C 
ATOM      2  N   UNL     1      -2.047  -2.832  -0.745  0.00  0.00    -0.169 NA
ATOM      3  N   UNL     1      -2.112  -4.186  -0.495  0.00  0.00    -0.152 N 
ATOM      4  C   UNL     1      -1.724  -5.209  -1.387  0.00  0.00    +0.153 C 
ATOM      5  N   UNL     1      -0.884  -5.024  -2.372  0.00  0.00    -0.283 NA
ATOM      6  C   UNL     1      -2.365  -6.520  -1.096  0.00  0.00    +0.084 C 
ATOM      7  C   UNL     1      -2.689  -7.414  -2.106  0.00  0.00    +0.063 C 
ATOM      8  C   UNL     1      -2.639  -6.819   0.328  0.00  0.00    +0.273 C 
ATOM      9  O   UNL     1      -2.722  -7.972   0.722  0.00  0.00    -0.268 OA
ATOM     10  N   UNL     1      -2.793  -5.783   1.177  0.00  0.00    -0.152 NA
ATOM     11  C   UNL     1      -2.571  -4.567   0.748  0.00  0.00    +0.181 C 
ATOM     12  S   UNL     1      -2.779  -3.005   1.561  0.00  0.00    -0.037 S 
ATOM     13  H   UNL     1      -0.524  -5.785  -2.853  0.00  0.00    +0.188 HD
ENDROOT
BRANCH   7  14
ATOM     14  C   UNL     1      -2.717  -6.984  -3.442  0.00  0.00    +0.129 A 
ATOM     15  C   UNL     1      -2.887  -7.795  -4.555  0.00  0.00    +0.050 A 
ATOM     16  C   UNL     1      -2.851  -6.961  -5.671  0.00  0.00    +0.050 A 
ATOM     17  C   UNL     1      -2.663  -5.675  -5.209  0.00  0.00    +0.136 A 
ATOM     18  O   UNL     1      -2.590  -5.708  -3.867  0.00  0.00    -0.455 OA
BRANCH  17  19
ATOM     19  C   UNL     1      -2.563  -4.465  -6.047  0.00  0.00    +0.022 A 
ATOM     20  C   UNL     1      -1.696  -4.439  -7.143  0.00  0.00    +0.044 A 
ATOM     21  C   UNL     1      -1.608  -3.305  -7.922  0.00  0.00    +0.127 A 
ATOM     22  C   UNL     1      -2.376  -2.193  -7.620  0.00  0.00    +0.033 A 
ATOM     23  C   UNL     1      -3.236  -2.211  -6.537  0.00  0.00    +0.006 A 
ATOM     24  C   UNL     1      -3.339  -3.341  -5.752  0.00  0.00    -0.040 A 
ATOM     25  C   UNL     1      -4.281  -3.361  -4.576  0.00  0.00    +0.044 C 
BRANCH  21  26
ATOM     26  N   UNL     1      -0.690  -3.276  -9.083  0.00  0.00    +0.056 N 
ATOM     27  O   UNL     1      -0.019  -4.245  -9.347  0.00  0.00    -0.126 OA
ATOM     28  O   UNL     1      -0.612  -2.282  -9.767  0.00  0.00    -0.126 OA
ENDBRANCH  21  26
ENDBRANCH  17  19
ENDBRANCH   7  14
BRANCH   1  29
ATOM     29  C   UNL     1      -2.332  -0.456   0.094  0.00  0.00    +0.076 C 
BRANCH  29  30
ATOM     30  C   UNL     1      -2.512  -0.028  -1.340  0.00  0.00    -0.038 A 
ATOM     31  C   UNL     1      -1.602  -0.429  -2.300  0.00  0.00    +0.004 A 
ATOM     32  C   UNL     1      -1.767  -0.037  -3.615  0.00  0.00    +0.000 A 
ATOM     33  C   UNL     1      -2.842   0.756  -3.970  0.00  0.00    +0.000 A 
ATOM     34  C   UNL     1      -3.752   1.156  -3.010  0.00  0.00    +0.000 A 
ATOM     35  C   UNL     1      -3.590   0.760  -1.696  0.00  0.00    +0.004 A 
ENDBRANCH  29  30
BRANCH  29  37
ATOM     36  C   UNL     1      -1.023   1.598   0.653  0.00  0.00    +0.005 C 
ATOM     37  C   UNL     1      -0.994   0.069   0.619  0.00  0.00    +0.011 C 
ENDBRANCH  29  37
ENDBRANCH   1  29
TORSDOF 6
