REMARK  Name = ZINC39684236
REMARK  11 active torsions:
REMARK  status: ('A' for Active; 'I' for Inactive)
REMARK    1  A    between atoms: C_1  and  C_2
REMARK    2  A    between atoms: C_7  and  C_11
REMARK    3  A    between atoms: C_11  and  C_12
REMARK    4  A    between atoms: C_12  and  N_13
REMARK    5  A    between atoms: C_14  and  C_16
REMARK    6  A    between atoms: C_27  and  C_29
REMARK    7  A    between atoms: C_29  and  C_31
REMARK    8  A    between atoms: C_29  and  O_34
REMARK    9  A    between atoms: C_31  and  C_32
REMARK   10  A    between atoms: C_31  and  C_33
REMARK   11  A    between atoms: O_34  and  C_35
REMARK                            x       y       z     vdW  Elec       q    Type
REMARK                         _______ _______ _______ _____ _____    ______ ____
ROOT
ATOM      1  C   UNL     1      -8.685   1.630  -6.270  0.00  0.00    +0.100 C 
ATOM      2  C   UNL     1      -8.188   2.790  -7.162  0.00  0.00    +0.121 C 
ATOM      3  N   UNL     1      -7.826   2.146  -8.446  0.00  0.00    -0.297 N 
ATOM      4  C   UNL     1      -8.881   1.127  -8.658  0.00  0.00    +0.115 C 
ATOM      5  C   UNL     1      -9.143   0.542  -7.256  0.00  0.00    -0.004 C 
ATOM      6  C   UNL     1     -10.630   0.255  -7.072  0.00  0.00    -0.010 C 
ATOM      7  C   UNL     1     -11.049  -0.871  -8.023  0.00  0.00    -0.082 C 
ATOM      8  N   UNL     1     -10.258  -2.074  -7.738  0.00  0.00    +0.379 N 
ATOM      9  C   UNL     1      -8.838  -1.816  -8.006  0.00  0.00    -0.082 C 
ATOM     10  C   UNL     1      -8.326  -0.730  -7.055  0.00  0.00    -0.010 C 
ATOM     11  C   UNL     1      -6.774   2.424  -9.242  0.00  0.00    +0.257 C 
ATOM     12  O   UNL     1      -6.612   1.804 -10.272  0.00  0.00    -0.272 OA
ATOM     13  H   UNL     1     -10.374  -2.330  -6.769  0.00  0.00    -0.086 HD
ATOM     14  H   UNL     1     -10.577  -2.831  -8.323  0.00  0.00    -0.086 HD
ENDROOT
BRANCH   1  16
ATOM     15  N   UNL     1      -7.834   0.586  -4.195  0.00  0.00    -0.315 N 
ATOM     16  C   UNL     1      -7.564   1.116  -5.405  0.00  0.00    +0.218 C 
ATOM     17  O   UNL     1      -6.418   1.178  -5.796  0.00  0.00    -0.275 OA
ATOM     18  H   UNL     1      -8.751   0.536  -3.882  0.00  0.00    +0.149 HD
BRANCH  15  19
ATOM     19  C   UNL     1      -6.744   0.086  -3.354  0.00  0.00    +0.109 C 
BRANCH  19  20
ATOM     20  C   UNL     1      -7.319  -0.459  -2.045  0.00  0.00    +0.056 C 
BRANCH  20  27
ATOM     21  C   UNL     1      -2.561  -1.576   1.885  0.00  0.00    +0.046 C 
ATOM     22  C   UNL     1      -3.540  -0.623   1.249  0.00  0.00    -0.027 A 
ATOM     23  C   UNL     1      -3.521   0.714   1.585  0.00  0.00    +0.005 A 
ATOM     24  C   UNL     1      -4.418   1.602   1.007  0.00  0.00    +0.001 A 
ATOM     25  C   UNL     1      -5.335   1.165   0.093  0.00  0.00    +0.010 A 
ATOM     26  C   UNL     1      -5.372  -0.184  -0.263  0.00  0.00    +0.003 A 
ATOM     27  C   UNL     1      -6.197  -0.974  -1.180  0.00  0.00    -0.021 A 
ATOM     28  C   UNL     1      -5.766  -2.242  -1.103  0.00  0.00    +0.087 A 
ATOM     29  N   UNL     1      -4.731  -2.330  -0.211  0.00  0.00    -0.360 N 
ATOM     30  C   UNL     1      -4.462  -1.087   0.317  0.00  0.00    +0.050 A 
ATOM     31  H   UNL     1      -4.257  -3.146   0.013  0.00  0.00    +0.165 HD
ENDBRANCH  20  27
ENDBRANCH  19  20
ENDBRANCH  15  19
ENDBRANCH   1  16
BRANCH  11  32
ATOM     32  C   UNL     1      -5.800   3.506  -8.853  0.00  0.00    +0.261 C 
BRANCH  32  33
ATOM     33  C   UNL     1      -6.512   4.860  -8.858  0.00  0.00    +0.033 C 
ATOM     34  C   UNL     1      -5.523   5.959  -8.463  0.00  0.00    +0.011 C 
ATOM     35  C   UNL     1      -7.057   5.144 -10.260  0.00  0.00    +0.011 C 
ENDBRANCH  32  33
BRANCH  32  36
ATOM     36  O   UNL     1      -4.719   3.533  -9.787  0.00  0.00    -0.479 OA
BRANCH  36  37
ATOM     37  C   UNL     1      -3.495   3.872  -9.305  0.00  0.00    +0.122 A 
ATOM     38  C   UNL     1      -3.319   4.089  -7.946  0.00  0.00    +0.045 A 
ATOM     39  C   UNL     1      -2.073   4.433  -7.459  0.00  0.00    +0.004 A 
ATOM     40  C   UNL     1      -1.002   4.562  -8.324  0.00  0.00    +0.000 A 
ATOM     41  C   UNL     1      -1.175   4.347  -9.678  0.00  0.00    +0.004 A 
ATOM     42  C   UNL     1      -2.417   3.996 -10.170  0.00  0.00    +0.045 A 
ENDBRANCH  36  37
ENDBRANCH  32  36
ENDBRANCH  11  32
TORSDOF 8
