REMARK  Name = ZINC09092570
REMARK  6 active torsions:
REMARK  status: ('A' for Active; 'I' for Inactive)
REMARK    1  A    between atoms: C_1  and  C_2
REMARK    2  A    between atoms: C_2  and  C_28
REMARK    3  A    between atoms: N_5  and  C_9
REMARK    4  A    between atoms: C_9  and  C_10
REMARK    5  A    between atoms: C_10  and  C_12
REMARK    6  A    between atoms: C_21  and  C_22
REMARK                            x       y       z     vdW  Elec       q    Type
REMARK                         _______ _______ _______ _____ _____    ______ ____
ROOT
ATOM      1  C   UNL     1      -1.199  -0.844   0.008  0.00  0.00    +0.197 C 
ENDROOT
BRANCH   1   6
ATOM      2  C   UNL     1       3.022   0.765  -1.281  0.00  0.00    +0.047 C 
ATOM      3  C   UNL     1       2.164   0.734  -0.015  0.00  0.00    +0.135 C 
ATOM      4  C   UNL     1       1.261  -0.484  -0.013  0.00  0.00    +0.251 C 
ATOM      5  O   UNL     1       1.601  -1.648  -0.021  0.00  0.00    -0.272 OA
ATOM      6  N   UNL     1       0.002  -0.004   0.002  0.00  0.00    -0.216 N 
ATOM      7  C   UNL     1      -0.016   1.334   0.009  0.00  0.00    +0.310 C 
ATOM      8  O   UNL     1      -1.035   1.996   0.018  0.00  0.00    -0.252 OA
ATOM      9  N   UNL     1       1.220   1.865   0.000  0.00  0.00    -0.281 N 
ATOM     10  H   UNL     1       1.446   2.808   0.003  0.00  0.00    +0.152 HD
BRANCH   3  11
ATOM     11  C   UNL     1       3.035   0.750   1.215  0.00  0.00    -0.012 A 
ATOM     12  C   UNL     1       3.419  -0.441   1.804  0.00  0.00    +0.010 A 
ATOM     13  C   UNL     1       4.219  -0.431   2.932  0.00  0.00    +0.050 A 
ATOM     14  C   UNL     1       4.638   0.773   3.474  0.00  0.00    +0.166 A 
ATOM     15  C   UNL     1       4.252   1.972   2.880  0.00  0.00    +0.167 A 
ATOM     16  C   UNL     1       3.454   1.955   1.748  0.00  0.00    +0.055 A 
ATOM     17  O   UNL     1       4.788   3.005   3.594  0.00  0.00    -0.453 OA
ATOM     18  C   UNL     1       5.166   2.439   4.863  0.00  0.00    +0.466 C 
ATOM     19  O   UNL     1       5.416   1.054   4.559  0.00  0.00    -0.453 OA
ENDBRANCH   3  11
ENDBRANCH   1   6
BRANCH   1  20
ATOM     20  C   UNL     1      -1.623  -1.123  -1.410  0.00  0.00    +0.183 C 
ATOM     21  O   UNL     1      -0.985  -0.666  -2.337  0.00  0.00    -0.290 OA
BRANCH  20  22
ATOM     22  C   UNL     1      -2.764  -1.917  -1.663  0.00  0.00    +0.052 A 
ATOM     23  C   UNL     1      -3.646  -2.545  -0.661  0.00  0.00    +0.011 A 
ATOM     24  C   UNL     1      -3.656  -2.569   0.732  0.00  0.00    +0.011 A 
ATOM     25  C   UNL     1      -4.641  -3.267   1.396  0.00  0.00    +0.001 A 
ATOM     26  C   UNL     1      -5.620  -3.943   0.683  0.00  0.00    +0.002 A 
ATOM     27  C   UNL     1      -5.623  -3.928  -0.695  0.00  0.00    +0.026 A 
ATOM     28  C   UNL     1      -4.636  -3.229  -1.384  0.00  0.00    +0.048 A 
ATOM     29  N   UNL     1      -4.388  -3.041  -2.729  0.00  0.00    -0.354 N 
ATOM     30  H   UNL     1      -4.927  -3.409  -3.447  0.00  0.00    +0.166 HD
ATOM     31  C   UNL     1      -3.286  -2.261  -2.908  0.00  0.00    +0.058 A 
BRANCH  31  32
ATOM     32  C   UNL     1      -2.732  -1.848  -4.211  0.00  0.00    -0.001 A 
ATOM     33  C   UNL     1      -2.341  -0.523  -4.421  0.00  0.00    +0.010 A 
ATOM     34  C   UNL     1      -1.817  -0.147  -5.640  0.00  0.00    +0.001 A 
ATOM     35  C   UNL     1      -1.690  -1.075  -6.658  0.00  0.00    +0.000 A 
ATOM     36  C   UNL     1      -2.080  -2.388  -6.460  0.00  0.00    +0.001 A 
ATOM     37  C   UNL     1      -2.599  -2.780  -5.244  0.00  0.00    +0.010 A 
ENDBRANCH  31  32
ENDBRANCH  20  22
ENDBRANCH   1  20
TORSDOF 5
