REMARK  Name = ZINC05650195
REMARK  5 active torsions:
REMARK  status: ('A' for Active; 'I' for Inactive)
REMARK    1  A    between atoms: C_4  and  N_7
REMARK    2  A    between atoms: C_9  and  C_12
REMARK    3  A    between atoms: C_18  and  O_28
REMARK    4  A    between atoms: C_19  and  O_27
REMARK    5  A    between atoms: C_22  and  C_23
REMARK                            x       y       z     vdW  Elec       q    Type
REMARK                         _______ _______ _______ _____ _____    ______ ____
ROOT
ATOM      1  C   UNL     1       1.612  -1.891   0.117  0.00  0.00    +0.079 A 
ATOM      2  C   UNL     1       1.254  -2.802  -0.982  0.00  0.00    +0.201 A 
ATOM      3  O   UNL     1       0.378  -2.523  -1.783  0.00  0.00    -0.286 OA
ATOM      4  C   UNL     1       2.004  -4.068  -1.066  0.00  0.00    +0.068 A 
ATOM      5  C   UNL     1       1.741  -5.000  -2.071  0.00  0.00    +0.019 A 
ATOM      6  C   UNL     1       2.454  -6.165  -2.122  0.00  0.00    +0.050 A 
ATOM      7  C   UNL     1       3.441  -6.427  -1.176  0.00  0.00    +0.162 A 
ATOM      8  C   UNL     1       3.716  -5.511  -0.170  0.00  0.00    +0.202 A 
ATOM      9  C   UNL     1       2.998  -4.320  -0.105  0.00  0.00    +0.184 A 
ATOM     10  O   UNL     1       3.251  -3.418   0.864  0.00  0.00    -0.446 OA
ATOM     11  C   UNL     1       2.599  -2.257   0.974  0.00  0.00    +0.220 A 
ENDROOT
BRANCH   1  14
ATOM     12  N   UNL     1      -0.634   0.915   0.685  0.00  0.00    -0.239 N 
ATOM     13  C   UNL     1      -0.391  -0.421   0.653  0.00  0.00    +0.123 A 
ATOM     14  C   UNL     1       0.910  -0.592   0.283  0.00  0.00    +0.027 A 
ATOM     15  C   UNL     1       1.469   0.686   0.085  0.00  0.00    +0.143 A 
ATOM     16  N   UNL     1       0.545   1.579   0.326  0.00  0.00    -0.174 NA
BRANCH  12  20
ATOM     17  C   UNL     1      -4.261   2.721   1.662  0.00  0.00    +0.000 A 
ATOM     18  C   UNL     1      -3.169   3.502   1.331  0.00  0.00    +0.002 A 
ATOM     19  C   UNL     1      -1.966   2.906   1.007  0.00  0.00    +0.028 A 
ATOM     20  C   UNL     1      -1.853   1.522   1.014  0.00  0.00    +0.065 A 
ATOM     21  C   UNL     1      -2.954   0.741   1.341  0.00  0.00    +0.028 A 
ATOM     22  C   UNL     1      -4.153   1.343   1.670  0.00  0.00    +0.002 A 
ENDBRANCH  12  20
ENDBRANCH   1  14
BRANCH  11  23
ATOM     23  C   UNL     1       2.970  -1.321   2.095  0.00  0.00    +0.451 C 
ATOM     24  F   UNL     1       1.819  -0.973   2.811  0.00  0.00    -0.163 F 
ATOM     25  F   UNL     1       3.878  -1.954   2.950  0.00  0.00    -0.163 F 
ATOM     26  F   UNL     1       3.555  -0.166   1.564  0.00  0.00    -0.163 F 
ENDBRANCH  11  23
BRANCH   8  27
ATOM     27  O   UNL     1       4.684  -5.776   0.749  0.00  0.00    -0.501 OA
ATOM     28  H   UNL     1       4.901  -5.049   1.545  0.00  0.00    +0.292 HD
ENDBRANCH   8  27
BRANCH   7  29
ATOM     29  O   UNL     1       4.142  -7.589  -1.239  0.00  0.00    -0.503 OA
ATOM     30  H   UNL     1       4.924  -7.801  -0.494  0.00  0.00    +0.292 HD
ENDBRANCH   7  29
TORSDOF 5
