REMARK  Name = ZINC04132155
REMARK  10 active torsions:
REMARK  status: ('A' for Active; 'I' for Inactive)
REMARK    1  A    between atoms: C_1  and  C_2
REMARK    2  A    between atoms: C_6  and  C_29
REMARK    3  A    between atoms: C_7  and  O_8
REMARK    4  A    between atoms: O_8  and  C_9
REMARK    5  A    between atoms: C_9  and  C_10
REMARK    6  A    between atoms: N_12  and  N_13
REMARK    7  A    between atoms: C_14  and  C_15
REMARK    8  A    between atoms: C_19  and  O_21
REMARK    9  A    between atoms: O_21  and  C_22
REMARK   10  A    between atoms: C_22  and  C_23
REMARK                            x       y       z     vdW  Elec       q    Type
REMARK                         _______ _______ _______ _____ _____    ______ ____
ROOT
ATOM      1  N   UNL     1       1.097   1.615   0.265  0.00  0.00    -0.188 NA
ATOM      2  C   UNL     1      -0.029   1.044  -0.035  0.00  0.00    +0.138 C 
ENDROOT
BRANCH   2   3
ATOM      3  C   UNL     1      -1.141   1.847  -0.576  0.00  0.00    -0.002 A 
ATOM      4  C   UNL     1      -0.894   3.106  -1.128  0.00  0.00    +0.010 A 
ATOM      5  C   UNL     1      -1.937   3.852  -1.638  0.00  0.00    +0.004 A 
ATOM      6  C   UNL     1      -3.229   3.361  -1.595  0.00  0.00    +0.046 A 
ATOM      7  C   UNL     1      -3.486   2.113  -1.044  0.00  0.00    +0.122 A 
ATOM      8  C   UNL     1      -2.447   1.353  -0.534  0.00  0.00    +0.055 A 
BRANCH   7   9
ATOM      9  O   UNL     1      -4.758   1.637  -1.004  0.00  0.00    -0.487 OA
BRANCH   9  10
ATOM     10  C   UNL     1      -5.781   2.473  -1.548  0.00  0.00    +0.264 C 
BRANCH  10  11
ATOM     11  C   UNL     1      -7.115   1.785  -1.417  0.00  0.00    -0.010 A 
ATOM     12  C   UNL     1      -7.574   0.967  -2.433  0.00  0.00    +0.007 A 
ATOM     13  C   UNL     1      -8.795   0.331  -2.311  0.00  0.00    +0.000 A 
ATOM     14  C   UNL     1      -9.563   0.522  -1.177  0.00  0.00    +0.000 A 
ATOM     15  C   UNL     1      -9.107   1.345  -0.164  0.00  0.00    +0.000 A 
ATOM     16  C   UNL     1      -7.883   1.976  -0.284  0.00  0.00    +0.007 A 
ENDBRANCH  10  11
ENDBRANCH   9  10
ENDBRANCH   7   9
ENDBRANCH   2   3
BRANCH   1  19
ATOM     17  C   UNL     1       2.331   3.611   0.669  0.00  0.00    +0.270 C 
ATOM     18  O   UNL     1       3.358   2.965   0.641  0.00  0.00    -0.270 OA
ATOM     19  N   UNL     1       1.145   2.997   0.487  0.00  0.00    -0.204 N 
ATOM     20  H   UNL     1       0.323   3.513   0.509  0.00  0.00    +0.177 HD
BRANCH  17  21
ATOM     21  C   UNL     1       2.381   5.098   0.908  0.00  0.00    +0.326 C 
BRANCH  21  22
ATOM     22  O   UNL     1       3.741   5.508   1.070  0.00  0.00    -0.482 OA
BRANCH  22  29
ATOM     23  C   UNL     1       4.144   7.162  -1.184  0.00  0.00    +0.047 C 
ATOM     24  C   UNL     1       4.168   7.691   0.227  0.00  0.00    -0.007 A 
ATOM     25  C   UNL     1       4.389   9.035   0.458  0.00  0.00    +0.022 A 
ATOM     26  C   UNL     1       4.418   9.520   1.753  0.00  0.00    +0.019 A 
ATOM     27  C   UNL     1       4.219   8.662   2.820  0.00  0.00    +0.022 A 
ATOM     28  C   UNL     1       3.992   7.318   2.593  0.00  0.00    -0.007 A 
ATOM     29  C   UNL     1       3.963   6.830   1.295  0.00  0.00    +0.127 A 
ATOM     30  C   UNL     1       3.776   6.383   3.756  0.00  0.00    +0.047 C 
ATOM     31 BR   UNL     1       4.728  11.359   2.066  0.00  0.00    -0.050 Br
ENDBRANCH  22  29
ENDBRANCH  21  22
ENDBRANCH  17  21
ENDBRANCH   1  19
TORSDOF 8
