REMARK  Name = ZINC13302318
REMARK  7 active torsions:
REMARK  status: ('A' for Active; 'I' for Inactive)
REMARK    1  A    between atoms: C_1  and  C_2
REMARK    2  A    between atoms: C_2  and  C_30
REMARK    3  A    between atoms: N_3  and  N_4
REMARK    4  A    between atoms: C_5  and  C_7
REMARK    5  A    between atoms: C_7  and  C_9
REMARK    6  A    between atoms: C_7  and  N_21
REMARK    7  A    between atoms: C_22  and  C_24
REMARK                            x       y       z     vdW  Elec       q    Type
REMARK                         _______ _______ _______ _____ _____    ______ ____
ROOT
ATOM      1  C   UNL     1      -1.370   3.597   0.041  0.00  0.00    +0.212 C 
ENDROOT
BRANCH   1   2
ATOM      2  C   UNL     1      -1.311   2.091   0.032  0.00  0.00    +0.099 A 
ATOM      3  C   UNL     1      -0.017   1.409   0.010  0.00  0.00    +0.013 A 
ATOM      4  C   UNL     1       1.188   2.115   0.002  0.00  0.00    +0.010 A 
ATOM      5  C   UNL     1       2.372   1.433  -0.013  0.00  0.00    +0.001 A 
ATOM      6  C   UNL     1       2.395   0.044  -0.021  0.00  0.00    +0.001 A 
ATOM      7  C   UNL     1       1.222  -0.679  -0.013  0.00  0.00    +0.014 A 
ATOM      8  C   UNL     1       0.002  -0.004   0.002  0.00  0.00    +0.050 A 
ATOM      9  C   UNL     1      -1.282  -0.716   0.011  0.00  0.00    +0.272 A 
ATOM     10  O   UNL     1      -1.316  -1.934   0.005  0.00  0.00    -0.266 OA
ATOM     11  N   UNL     1      -2.423   0.003   0.026  0.00  0.00    -0.242 N 
ATOM     12  H   UNL     1      -3.274  -0.462   0.032  0.00  0.00    +0.192 HD
ATOM     13  N   UNL     1      -2.411   1.398   0.034  0.00  0.00    -0.173 NA
ENDBRANCH   1   2
BRANCH   1  15
ATOM     14  N   UNL     1      -0.144   3.808   2.179  0.00  0.00    -0.205 N 
ATOM     15  C   UNL     1      -1.245   4.096   1.458  0.00  0.00    +0.259 C 
ATOM     16  O   UNL     1      -2.136   4.756   1.949  0.00  0.00    -0.272 OA
ATOM     17  H   UNL     1       0.569   3.280   1.787  0.00  0.00    +0.177 HD
BRANCH  14  20
ATOM     18  C   UNL     1       2.139   3.174   3.581  0.00  0.00    +0.068 C 
ATOM     19  C   UNL     1       1.032   3.995   4.191  0.00  0.00    +0.063 C 
ATOM     20  N   UNL     1      -0.028   4.272   3.496  0.00  0.00    -0.185 NA
BRANCH  19  21
ATOM     21  C   UNL     1       1.154   4.483   5.577  0.00  0.00    -0.001 A 
ATOM     22  C   UNL     1       2.291   4.182   6.330  0.00  0.00    +0.010 A 
ATOM     23  C   UNL     1       2.401   4.644   7.625  0.00  0.00    +0.002 A 
ATOM     24  C   UNL     1       1.383   5.398   8.182  0.00  0.00    +0.015 A 
ATOM     25  C   UNL     1       0.250   5.697   7.444  0.00  0.00    +0.018 A 
ATOM     26  C   UNL     1       0.130   5.243   6.146  0.00  0.00    +0.025 A 
ATOM     27 BR   UNL     1      -1.135   6.727   8.216  0.00  0.00    -0.050 Br
ENDBRANCH  19  21
ENDBRANCH  14  20
ENDBRANCH   1  15
BRANCH   1  28
ATOM     28  N   UNL     1      -2.647   4.040  -0.522  0.00  0.00    -0.295 N 
ATOM     29  C   UNL     1      -2.786   4.171  -1.856  0.00  0.00    +0.245 C 
ATOM     30  O   UNL     1      -1.851   3.923  -2.592  0.00  0.00    -0.270 OA
ATOM     31  H   UNL     1      -3.393   4.238   0.065  0.00  0.00    +0.150 HD
BRANCH  29  32
ATOM     32  C   UNL     1      -4.076   4.618  -2.425  0.00  0.00    +0.037 A 
ATOM     33  C   UNL     1      -5.153   4.899  -1.583  0.00  0.00    +0.013 A 
ATOM     34  C   UNL     1      -6.352   5.321  -2.119  0.00  0.00    +0.001 A 
ATOM     35  C   UNL     1      -6.492   5.455  -3.489  0.00  0.00    +0.000 A 
ATOM     36  C   UNL     1      -5.429   5.173  -4.330  0.00  0.00    +0.001 A 
ATOM     37  C   UNL     1      -4.223   4.756  -3.806  0.00  0.00    +0.013 A 
ENDBRANCH  29  32
ENDBRANCH   1  28
TORSDOF 6
