REMARK  Name = ZINC35533045
REMARK  8 active torsions:
REMARK  status: ('A' for Active; 'I' for Inactive)
REMARK    1  A    between atoms: C_1  and  C_2
REMARK    2  A    between atoms: C_5  and  C_8
REMARK    3  A    between atoms: C_8  and  O_10
REMARK    4  A    between atoms: O_10  and  N_11
REMARK    5  A    between atoms: C_14  and  C_22
REMARK    6  A    between atoms: C_17  and  C_21
REMARK    7  A    between atoms: C_18  and  C_19
REMARK    8  A    between atoms: C_18  and  C_20
REMARK                            x       y       z     vdW  Elec       q    Type
REMARK                         _______ _______ _______ _____ _____    ______ ____
ROOT
ATOM      1  N   UNL     1       0.094  -6.337   0.986  0.00  0.00    -0.083 NA
ATOM      2  C   UNL     1       0.110  -7.095   2.017  0.00  0.00    +0.066 C 
ATOM      3  C   UNL     1       0.137  -8.616   2.043  0.00  0.00    +0.071 C 
ATOM      4  C   UNL     1       0.140  -8.990   3.558  0.00  0.00    +0.058 C 
ATOM      5  C   UNL     1       1.554  -8.564   4.058  0.00  0.00    +0.018 C 
ATOM      6  C   UNL     1       1.533  -7.019   4.007  0.00  0.00    +0.014 C 
ATOM      7  C   UNL     1       0.111  -6.662   3.490  0.00  0.00    +0.015 C 
ATOM      8  C   UNL     1      -0.735  -7.820   4.135  0.00  0.00    -0.010 C 
ATOM      9  C   UNL     1      -2.169  -7.857   3.601  0.00  0.00    +0.013 C 
ATOM     10  C   UNL     1      -0.699  -7.775   5.663  0.00  0.00    +0.013 C 
ATOM     11  C   UNL     1      -0.354  -5.231   3.765  0.00  0.00    +0.018 C 
ENDROOT
BRANCH   4  12
ATOM     12  C   UNL     1      -0.305 -10.389   3.896  0.00  0.00    +0.218 C 
ATOM     13  O   UNL     1      -1.277 -10.563   4.600  0.00  0.00    -0.275 OA
ATOM     14  N   UNL     1       0.377 -11.448   3.416  0.00  0.00    -0.329 N 
ATOM     15  H   UNL     1       1.155 -11.309   2.853  0.00  0.00    +0.145 HD
ATOM     16  H   UNL     1       0.091 -12.349   3.634  0.00  0.00    +0.145 HD
ENDBRANCH   4  12
BRANCH   1  17
ATOM     17  O   UNL     1       0.076  -4.930   1.141  0.00  0.00    -0.312 OA
BRANCH  17  18
ATOM     18  C   UNL     1       0.061  -4.250  -0.021  0.00  0.00    +0.366 C 
ATOM     19  O   UNL     1       0.063  -4.852  -1.077  0.00  0.00    -0.243 OA
BRANCH  18  24
ATOM     20  C   UNL     1      -0.018   1.503   0.010  0.00  0.00    +0.044 C 
ATOM     21  C   UNL     1       0.002  -0.004   0.002  0.00  0.00    -0.050 A 
ATOM     22  C   UNL     1       0.006  -0.686  -1.202  0.00  0.00    +0.004 A 
ATOM     23  C   UNL     1       0.025  -2.065  -1.217  0.00  0.00    +0.015 A 
ATOM     24  C   UNL     1       0.041  -2.773  -0.013  0.00  0.00    +0.061 A 
ATOM     25  C   UNL     1       0.037  -2.079   1.198  0.00  0.00    +0.015 A 
ATOM     26  C   UNL     1       0.023  -0.699   1.198  0.00  0.00    +0.004 A 
ENDBRANCH  18  24
ENDBRANCH  17  18
ENDBRANCH   1  17
TORSDOF 4
