REMARK  Name = ZINC13512600
REMARK  10 active torsions:
REMARK  status: ('A' for Active; 'I' for Inactive)
REMARK    1  A    between atoms: C_1  and  C_2
REMARK    2  A    between atoms: C_2  and  O_3
REMARK    3  A    between atoms: O_3  and  C_4
REMARK    4  A    between atoms: C_9  and  N_10
REMARK    5  A    between atoms: C_13  and  C_29
REMARK    6  A    between atoms: C_16  and  S_17
REMARK    7  A    between atoms: S_17  and  C_18
REMARK    8  A    between atoms: C_18  and  C_19
REMARK    9  A    between atoms: C_19  and  C_21
REMARK   10  A    between atoms: C_24  and  C_27
REMARK                            x       y       z     vdW  Elec       q    Type
REMARK                         _______ _______ _______ _____ _____    ______ ____
ROOT
ATOM      1  N   UNL     1      -1.186   1.887   0.022  0.00  0.00    -0.252 N 
ATOM      2  C   UNL     1      -0.014   1.217   0.019  0.00  0.00    +0.265 A 
ATOM      3  O   UNL     1       0.002  -0.004   0.017  0.00  0.00    -0.267 OA
ATOM      4  C   UNL     1       1.181   1.945   0.012  0.00  0.00    +0.074 A 
ATOM      5  C   UNL     1       1.119   3.329   0.009  0.00  0.00    +0.280 A 
ATOM      6  N   UNL     1      -0.069   3.940   0.024  0.00  0.00    -0.184 NA
ATOM      7  C   UNL     1      -1.192   3.251   0.030  0.00  0.00    +0.180 A 
ATOM      8  O   UNL     1       2.258   4.059   0.003  0.00  0.00    -0.265 OA
ENDROOT
BRANCH   4   9
ATOM      9  C   UNL     1       2.511   1.236   0.001  0.00  0.00    +0.001 C 
ATOM     10  C   UNL     1       2.681   0.480   1.292  0.00  0.00    -0.054 A 
ATOM     11  C   UNL     1       2.300   1.097   2.475  0.00  0.00    +0.002 A 
ATOM     12  C   UNL     1       2.442   0.442   3.681  0.00  0.00    +0.000 A 
ATOM     13  C   UNL     1       2.968  -0.837   3.713  0.00  0.00    +0.000 A 
ATOM     14  C   UNL     1       3.346  -1.453   2.537  0.00  0.00    +0.004 A 
ATOM     15  C   UNL     1       3.203  -0.796   1.324  0.00  0.00    -0.047 A 
ATOM     16  C   UNL     1       3.621  -1.511   0.065  0.00  0.00    +0.016 C 
ATOM     17  C   UNL     1       3.777  -0.508  -1.078  0.00  0.00    -0.077 C 
ATOM     18  N   UNL     1       2.561   0.319  -1.142  0.00  0.00    +0.387 N 
ATOM     19  H   UNL     1       1.679  -0.337  -1.124  0.00  0.00    -0.085 HD
ATOM     20  H   UNL     1       2.569   0.898  -2.077  0.00  0.00    -0.085 HD
ENDBRANCH   4   9
BRANCH   1  26
ATOM     21  C   UNL     1      -3.006   0.837  -1.182  0.00  0.00    +0.144 A 
ATOM     22  C   UNL     1      -4.200   0.135  -1.175  0.00  0.00    +0.048 A 
ATOM     23  C   UNL     1      -4.791  -0.212   0.025  0.00  0.00    +0.004 A 
ATOM     24  C   UNL     1      -4.190   0.133   1.222  0.00  0.00    +0.002 A 
ATOM     25  C   UNL     1      -2.996   0.829   1.224  0.00  0.00    +0.030 A 
ATOM     26  C   UNL     1      -2.397   1.181   0.023  0.00  0.00    +0.093 A 
BRANCH  21  27
ATOM     27  O   UNL     1      -2.426   1.184  -2.362  0.00  0.00    -0.490 OA
BRANCH  27  29
ATOM     28  C   UNL     1      -2.309   1.272  -4.774  0.00  0.00    +0.048 C 
ATOM     29  C   UNL     1      -3.107   0.798  -3.557  0.00  0.00    +0.226 C 
ENDBRANCH  27  29
ENDBRANCH  21  27
ENDBRANCH   1  26
BRANCH   7  30
ATOM     30  S   UNL     1      -2.731   4.108   0.049  0.00  0.00    -0.079 S 
BRANCH  30  31
ATOM     31  C   UNL     1      -2.139   5.818   0.054  0.00  0.00    +0.157 C 
BRANCH  31  32
ATOM     32  C   UNL     1      -3.317   6.758   0.070  0.00  0.00    +0.173 C 
ATOM     33  O   UNL     1      -4.446   6.314   0.078  0.00  0.00    -0.291 OA
BRANCH  32  34
ATOM     34  C   UNL     1      -3.098   8.213   0.076  0.00  0.00    +0.018 A 
ATOM     35  C   UNL     1      -1.798   8.728   0.073  0.00  0.00    +0.011 A 
ATOM     36  C   UNL     1      -1.600  10.092   0.074  0.00  0.00    +0.004 A 
ATOM     37  C   UNL     1      -2.685  10.952   0.089  0.00  0.00    -0.050 A 
ATOM     38  C   UNL     1      -3.975  10.450   0.098  0.00  0.00    +0.004 A 
ATOM     39  C   UNL     1      -4.189   9.088   0.092  0.00  0.00    +0.011 A 
ATOM     40  C   UNL     1      -2.461  12.442   0.095  0.00  0.00    +0.044 C 
ENDBRANCH  32  34
ENDBRANCH  31  32
ENDBRANCH  30  31
ENDBRANCH   7  30
TORSDOF 8
