REMARK  Name = ZINC40797554
REMARK  11 active torsions:
REMARK  status: ('A' for Active; 'I' for Inactive)
REMARK    1  A    between atoms: C_1  and  C_2
REMARK    2  A    between atoms: C_2  and  O_3
REMARK    3  A    between atoms: O_3  and  C_4
REMARK    4  A    between atoms: C_4  and  C_6
REMARK    5  A    between atoms: C_7  and  C_27
REMARK    6  A    between atoms: C_10  and  N_11
REMARK    7  A    between atoms: C_12  and  C_14
REMARK    8  A    between atoms: C_14  and  C_26
REMARK    9  A    between atoms: C_20  and  C_25
REMARK   10  A    between atoms: C_30  and  O_33
REMARK   11  A    between atoms: O_33  and  C_34
REMARK                            x       y       z     vdW  Elec       q    Type
REMARK                         _______ _______ _______ _____ _____    ______ ____
ROOT
ATOM      1  C   UNL     1       1.496  -2.370   2.466  0.00  0.00    +0.095 A 
ATOM      2  C   UNL     1       0.794  -2.684   3.698  0.00  0.00    +0.005 A 
ATOM      3  C   UNL     1       1.563  -3.194   4.694  0.00  0.00    +0.056 A 
ATOM      4  S   UNL     1       3.188  -3.244   3.971  0.00  0.00    -0.080 S 
ATOM      5  C   UNL     1       2.857  -2.631   2.445  0.00  0.00    +0.086 A 
ENDROOT
BRANCH   2   6
ATOM      6  C   UNL     1      -0.663  -2.461   3.857  0.00  0.00    -0.016 A 
ATOM      7  C   UNL     1      -1.224  -1.232   3.513  0.00  0.00    +0.012 A 
ATOM      8  C   UNL     1      -2.580  -1.029   3.663  0.00  0.00    +0.046 A 
ATOM      9  C   UNL     1      -3.386  -2.046   4.156  0.00  0.00    +0.120 A 
ATOM     10  C   UNL     1      -2.831  -3.271   4.500  0.00  0.00    +0.046 A 
ATOM     11  C   UNL     1      -1.476  -3.483   4.347  0.00  0.00    +0.012 A 
BRANCH   9  12
ATOM     12  O   UNL     1      -4.722  -1.842   4.303  0.00  0.00    -0.495 OA
ATOM     13  C   UNL     1      -5.492  -2.931   4.815  0.00  0.00    +0.277 C 
ENDBRANCH   9  12
ENDBRANCH   2   6
BRANCH   5  14
ATOM     14  N   UNL     1       3.745  -2.429   1.400  0.00  0.00    -0.276 N 
ATOM     15  C   UNL     1       5.047  -2.740   1.552  0.00  0.00    +0.270 C 
ATOM     16  O   UNL     1       5.442  -3.197   2.604  0.00  0.00    -0.271 OA
ATOM     17  H   UNL     1       3.429  -2.063   0.559  0.00  0.00    +0.155 HD
BRANCH  15  18
ATOM     18  C   UNL     1       6.012  -2.521   0.416  0.00  0.00    +0.258 C 
ATOM     19  C   UNL     1       7.188  -3.452   0.569  0.00  0.00    +0.270 C 
ATOM     20  O   UNL     1       8.185  -3.083   1.153  0.00  0.00    -0.271 OA
ATOM     21  N   UNL     1       7.126  -4.698   0.054  0.00  0.00    -0.279 N 
ATOM     22  C   UNL     1       6.019  -5.062  -0.724  0.00  0.00    +0.076 A 
ATOM     23  C   UNL     1       5.810  -6.386  -1.076  0.00  0.00    +0.030 A 
ATOM     24  C   UNL     1       4.706  -6.730  -1.834  0.00  0.00    -0.048 A 
ATOM     25  C   UNL     1       3.811  -5.758  -2.240  0.00  0.00    +0.007 A 
ATOM     26  C   UNL     1       4.016  -4.434  -1.896  0.00  0.00    +0.048 A 
ATOM     27  C   UNL     1       5.123  -4.081  -1.143  0.00  0.00    +0.144 A 
ATOM     28  O   UNL     1       5.352  -2.779  -0.825  0.00  0.00    -0.465 OA
ATOM     29  C   UNL     1       4.478  -8.170  -2.218  0.00  0.00    +0.044 C 
ATOM     30  C   UNL     1       6.505  -1.072   0.439  0.00  0.00    +0.076 C 
ATOM     31  H   UNL     1       7.840  -5.334   0.221  0.00  0.00    +0.155 HD
ENDBRANCH  15  18
ENDBRANCH   5  14
BRANCH   1  32
ATOM     32  C   UNL     1       0.801  -1.814   1.305  0.00  0.00    +0.342 C 
ATOM     33  O   UNL     1       0.321  -2.557   0.470  0.00  0.00    -0.245 OA
BRANCH  32  34
ATOM     34  O   UNL     1       0.693  -0.477   1.160  0.00  0.00    -0.461 OA
BRANCH  34  36
ATOM     35  C   UNL     1      -0.019   1.526   0.010  0.00  0.00    +0.048 C 
ATOM     36  C   UNL     1       0.002  -0.004   0.002  0.00  0.00    +0.229 C 
ENDBRANCH  34  36
ENDBRANCH  32  34
ENDBRANCH   1  32
TORSDOF 7
