REMARK  Name = ZINC62319492
REMARK  7 active torsions:
REMARK  status: ('A' for Active; 'I' for Inactive)
REMARK    1  A    between atoms: C_1  and  C_2
REMARK    2  A    between atoms: C_2  and  C_3
REMARK    3  A    between atoms: C_3  and  C_5
REMARK    4  A    between atoms: C_3  and  N_6
REMARK    5  A    between atoms: C_8  and  C_18
REMARK    6  A    between atoms: C_16  and  N_17
REMARK    7  A    between atoms: N_20  and  C_21
REMARK                            x       y       z     vdW  Elec       q    Type
REMARK                         _______ _______ _______ _____ _____    ______ ____
ROOT
ATOM      1  N   UNL     1       2.453  -0.024   1.290  0.00  0.00    -0.343 N 
ATOM      2  C   UNL     1       3.359  -0.447   0.397  0.00  0.00    +0.103 A 
ATOM      3  C   UNL     1       4.664  -0.004   0.409  0.00  0.00    +0.100 A 
ATOM      4  C   UNL     1       5.078   0.966   1.437  0.00  0.00    +0.203 A 
ATOM      5  O   UNL     1       6.220   1.388   1.489  0.00  0.00    -0.286 OA
ATOM      6  C   UNL     1       4.054   1.404   2.398  0.00  0.00    +0.067 A 
ATOM      7  C   UNL     1       2.752   0.885   2.282  0.00  0.00    +0.055 A 
ATOM      8  C   UNL     1       1.774   1.296   3.182  0.00  0.00    +0.026 A 
ATOM      9  C   UNL     1       2.081   2.207   4.172  0.00  0.00    +0.004 A 
ATOM     10  C   UNL     1       3.359   2.726   4.287  0.00  0.00    +0.023 A 
ATOM     11  C   UNL     1       4.357   2.325   3.411  0.00  0.00    +0.037 A 
ENDROOT
BRANCH   3  12
ATOM     12  C   UNL     1       5.629  -0.493  -0.588  0.00  0.00    +0.249 C 
ATOM     13  O   UNL     1       5.254  -1.210  -1.496  0.00  0.00    -0.270 OA
ATOM     14  N   UNL     1       6.928  -0.146  -0.496  0.00  0.00    -0.314 N 
ATOM     15  C   UNL     1       7.907  -0.721  -1.422  0.00  0.00    +0.128 C 
ATOM     16  H   UNL     1       7.214   0.485   0.182  0.00  0.00    +0.149 HD
ENDBRANCH   3  12
BRANCH  11  17
ATOM     17  N   UNL     1       5.641   2.844   3.526  0.00  0.00    -0.357 N 
ATOM     18  H   UNL     1       6.310   2.635   2.856  0.00  0.00    +0.142 HD
ATOM     19  H   UNL     1       5.867   3.416   4.276  0.00  0.00    +0.142 HD
ENDBRANCH  11  17
BRANCH   1  20
ATOM     20  C   UNL     1       1.087  -0.546   1.206  0.00  0.00    +0.084 C 
ATOM     21  C   UNL     1       1.123  -2.076   1.241  0.00  0.00    +0.031 C 
BRANCH  20  23
ATOM     22  C   UNL     1       0.295   1.442  -0.083  0.00  0.00    +0.006 C 
ATOM     23  C   UNL     1       0.444  -0.081  -0.102  0.00  0.00    +0.021 C 
ENDBRANCH  20  23
ENDBRANCH   1  20
TORSDOF 4
