REMARK  Name = ZINC36643353
REMARK  9 active torsions:
REMARK  status: ('A' for Active; 'I' for Inactive)
REMARK    1  A    between atoms: C_1  and  N_2
REMARK    2  A    between atoms: N_2  and  C_3
REMARK    3  A    between atoms: N_2  and  C_4
REMARK    4  A    between atoms: C_4  and  C_5
REMARK    5  A    between atoms: C_5  and  C_6
REMARK    6  A    between atoms: C_6  and  N_7
REMARK    7  A    between atoms: C_18  and  C_20
REMARK    8  A    between atoms: C_29  and  O_30
REMARK    9  A    between atoms: O_30  and  C_31
REMARK                            x       y       z     vdW  Elec       q    Type
REMARK                         _______ _______ _______ _____ _____    ______ ____
ROOT
ATOM      1  N   UNL     1      -4.119  -0.207  -2.551  0.00  0.00    -0.246 N 
ATOM      2  C   UNL     1      -3.991  -0.990  -3.686  0.00  0.00    +0.168 A 
ATOM      3  N   UNL     1      -3.256  -2.062  -3.868  0.00  0.00    -0.224 NA
ATOM      4  C   UNL     1      -3.228  -2.733  -5.040  0.00  0.00    +0.080 A 
ATOM      5  C   UNL     1      -2.485  -3.891  -5.365  0.00  0.00    +0.030 A 
ATOM      6  C   UNL     1      -2.571  -4.451  -6.613  0.00  0.00    +0.017 A 
ATOM      7  C   UNL     1      -3.385  -3.907  -7.597  0.00  0.00    +0.019 A 
ATOM      8  C   UNL     1      -4.125  -2.774  -7.313  0.00  0.00    +0.032 A 
ATOM      9  C   UNL     1      -4.045  -2.207  -6.066  0.00  0.00    +0.042 A 
ATOM     10  S   UNL     1      -4.790  -0.802  -5.273  0.00  0.00    -0.052 S 
ATOM     11 BR   UNL     1      -3.478  -4.706  -9.309  0.00  0.00    -0.050 Br
ATOM     12  C   UNL     1      -4.939   0.862  -2.559  0.00  0.00    +0.256 C 
ATOM     13  O   UNL     1      -5.630   1.091  -3.533  0.00  0.00    -0.269 OA
ENDROOT
BRANCH  12  14
ATOM     14  C   UNL     1      -4.999   1.755  -1.386  0.00  0.00    +0.079 A 
ATOM     15  C   UNL     1      -5.368   1.245  -0.151  0.00  0.00    +0.025 A 
ATOM     16  C   UNL     1      -5.423   2.098   0.960  0.00  0.00    -0.017 A 
ATOM     17  C   UNL     1      -5.793   1.614   2.228  0.00  0.00    +0.008 A 
ATOM     18  C   UNL     1      -5.837   2.467   3.288  0.00  0.00    +0.001 A 
ATOM     19  C   UNL     1      -5.521   3.816   3.137  0.00  0.00    +0.001 A 
ATOM     20  C   UNL     1      -5.159   4.320   1.925  0.00  0.00    +0.008 A 
ATOM     21  C   UNL     1      -5.101   3.471   0.806  0.00  0.00    -0.014 A 
ATOM     22  C   UNL     1      -4.730   3.963  -0.456  0.00  0.00    +0.055 A 
ATOM     23  C   UNL     1      -4.676   3.121  -1.527  0.00  0.00    +0.133 A 
BRANCH  23  24
ATOM     24  O   UNL     1      -4.311   3.602  -2.742  0.00  0.00    -0.494 OA
ATOM     25  C   UNL     1      -3.995   4.994  -2.821  0.00  0.00    +0.277 C 
ENDBRANCH  23  24
ENDBRANCH  12  14
BRANCH   1  26
ATOM     26  C   UNL     1      -3.364  -0.542  -1.341  0.00  0.00    +0.114 C 
BRANCH  26  27
ATOM     27  C   UNL     1      -1.972   0.090  -1.418  0.00  0.00    +0.001 C 
BRANCH  27  28
ATOM     28  C   UNL     1      -1.183  -0.260  -0.154  0.00  0.00    -0.078 C 
BRANCH  28  30
ATOM     29  C   UNL     1       0.027   1.811  -0.216  0.00  0.00    -0.097 C 
ATOM     30  N   UNL     1       0.152   0.347  -0.228  0.00  0.00    +0.376 N 
ATOM     31  C   UNL     1       0.951  -0.086   0.926  0.00  0.00    -0.097 C 
ATOM     32  H   UNL     1       0.608   0.056  -1.080  0.00  0.00    -0.083 HD
ENDBRANCH  28  30
ENDBRANCH  27  28
ENDBRANCH  26  27
ENDBRANCH   1  26
TORSDOF 6
