REMARK  Name = ZINC42653424
REMARK  4 active torsions:
REMARK  status: ('A' for Active; 'I' for Inactive)
REMARK    1  A    between atoms: C_10  and  C_16
REMARK    2  A    between atoms: C_18  and  N_26
REMARK    3  A    between atoms: C_21  and  O_22
REMARK    4  A    between atoms: O_22  and  C_23
REMARK                            x       y       z     vdW  Elec       q    Type
REMARK                         _______ _______ _______ _____ _____    ______ ____
ROOT
ATOM      1  C   UNL     1       0.209   1.840  -0.211  0.00  0.00    +0.002 A 
ATOM      2  C   UNL     1       1.460   2.440  -0.202  0.00  0.00    +0.002 A 
ATOM      3  C   UNL     1       2.604   1.670  -0.157  0.00  0.00    +0.028 A 
ATOM      4  C   UNL     1       2.507   0.286  -0.120  0.00  0.00    +0.072 A 
ATOM      5  C   UNL     1       1.240  -0.325  -0.132  0.00  0.00    +0.091 A 
ATOM      6  C   UNL     1       0.093   0.469  -0.177  0.00  0.00    +0.030 A 
ATOM      7  N   UNL     1       1.442  -1.671  -0.096  0.00  0.00    -0.214 NA
ATOM      8  C   UNL     1       2.718  -1.920  -0.064  0.00  0.00    +0.205 A 
ATOM      9  N   UNL     1       3.423  -0.741  -0.069  0.00  0.00    -0.288 N 
ATOM     10  C   UNL     1       4.887  -0.668  -0.018  0.00  0.00    +0.212 C 
ATOM     11  N   UNL     1       5.413  -2.015  -0.311  0.00  0.00    -0.294 N 
ATOM     12  C   UNL     1       4.732  -3.105   0.212  0.00  0.00    +0.159 C 
ATOM     13  N   UNL     1       3.359  -3.156  -0.032  0.00  0.00    -0.259 N 
ATOM     14  N   UNL     1       5.343  -4.032   0.893  0.00  0.00    -0.375 N 
ATOM     15  H   UNL     1       6.209  -2.135  -0.852  0.00  0.00    +0.151 HD
ATOM     16  H   UNL     1       6.298  -3.971   1.047  0.00  0.00    +0.158 HD
ATOM     17  H   UNL     1       2.885  -3.992  -0.168  0.00  0.00    +0.158 HD
ATOM     18  H   UNL     1       4.841  -4.783   1.247  0.00  0.00    +0.158 HD
ENDROOT
BRANCH  10  19
ATOM     19  C   UNL     1       5.329  -0.234   1.355  0.00  0.00    +0.037 A 
ATOM     20  C   UNL     1       4.447  -0.294   2.417  0.00  0.00    +0.043 A 
ATOM     21  C   UNL     1       4.852   0.105   3.677  0.00  0.00    +0.127 A 
ATOM     22  C   UNL     1       6.140   0.565   3.879  0.00  0.00    +0.036 A 
ATOM     23  C   UNL     1       7.026   0.626   2.821  0.00  0.00    +0.048 A 
ATOM     24  C   UNL     1       6.624   0.222   1.556  0.00  0.00    +0.134 A 
BRANCH  21  25
ATOM     25  N   UNL     1       3.905   0.040   4.813  0.00  0.00    +0.056 N 
ATOM     26  O   UNL     1       2.777  -0.361   4.638  0.00  0.00    -0.126 OA
ATOM     27  O   UNL     1       4.258   0.388   5.915  0.00  0.00    -0.126 OA
ENDBRANCH  21  25
BRANCH  24  28
ATOM     28  O   UNL     1       7.495   0.277   0.515  0.00  0.00    -0.434 OA
BRANCH  28  29
ATOM     29  C   UNL     1       8.812   0.756   0.795  0.00  0.00    +0.541 C 
ATOM     30  F   UNL     1       8.737   2.061   1.292  0.00  0.00    -0.166 F 
ATOM     31  F   UNL     1       9.416  -0.072   1.747  0.00  0.00    -0.166 F 
ENDBRANCH  28  29
ENDBRANCH  24  28
ENDBRANCH  10  19
TORSDOF 4
