REMARK  Name = ZINC28149097
REMARK  12 active torsions:
REMARK  status: ('A' for Active; 'I' for Inactive)
REMARK    1  A    between atoms: C_1  and  C_2
REMARK    2  A    between atoms: C_2  and  N_3
REMARK    3  A    between atoms: N_3  and  C_4
REMARK    4  A    between atoms: N_3  and  C_6
REMARK    5  A    between atoms: C_4  and  C_5
REMARK    6  A    between atoms: C_6  and  C_8
REMARK    7  A    between atoms: C_6  and  C_28
REMARK    8  A    between atoms: C_8  and  N_9
REMARK    9  A    between atoms: C_10  and  C_12
REMARK   10  A    between atoms: C_12  and  S_13
REMARK   11  A    between atoms: S_13  and  C_14
REMARK   12  A    between atoms: N_24  and  C_25
REMARK                            x       y       z     vdW  Elec       q    Type
REMARK                         _______ _______ _______ _____ _____    ______ ____
ROOT
ATOM      1  N   UNL     1      -5.393  -0.838  -0.076  0.00  0.00    -0.316 N 
ATOM      2  C   UNL     1      -4.241  -1.453   0.256  0.00  0.00    +0.223 C 
ATOM      3  O   UNL     1      -4.189  -2.664   0.295  0.00  0.00    -0.275 OA
ATOM      4  H   UNL     1      -5.441   0.260  -0.111  0.00  0.00    +0.149 HD
ENDROOT
BRANCH   1   5
ATOM      5  C   UNL     1      -6.583  -1.633  -0.391  0.00  0.00    +0.096 C 
BRANCH   5   6
ATOM      6  C   UNL     1      -7.745  -0.698  -0.732  0.00  0.00    +0.016 C 
BRANCH   6   7
ATOM      7  C   UNL     1      -8.999  -1.509  -0.936  0.00  0.00    +0.093 A 
ATOM      8  C   UNL     1      -9.522  -1.864  -2.123  0.00  0.00    +0.043 A 
ATOM      9  C   UNL     1     -10.688  -2.614  -1.849  0.00  0.00    +0.041 A 
ATOM     10  C   UNL     1     -10.813  -2.667  -0.511  0.00  0.00    +0.195 A 
ATOM     11  O   UNL     1      -9.787  -1.995   0.037  0.00  0.00    -0.469 OA
ENDBRANCH   6   7
BRANCH   6  12
ATOM     12  N   UNL     1      -7.950   0.252   0.370  0.00  0.00    +0.387 N 
ATOM     13  H   UNL     1      -7.005   0.790   0.532  0.00  0.00    -0.081 HD
BRANCH  12  15
ATOM     14  C   UNL     1      -8.398   2.267  -0.948  0.00  0.00    -0.017 C 
ATOM     15  C   UNL     1      -8.980   1.241   0.028  0.00  0.00    -0.081 C 
ENDBRANCH  12  15
BRANCH  12  16
ATOM     16  C   UNL     1      -8.288  -0.452   1.615  0.00  0.00    -0.081 C 
ATOM     17  C   UNL     1      -8.086   0.490   2.803  0.00  0.00    -0.017 C 
ENDBRANCH  12  16
ENDBRANCH   6  12
ENDBRANCH   5   6
ENDBRANCH   1   5
BRANCH   2  18
ATOM     18  C   UNL     1      -3.017  -0.635   0.580  0.00  0.00    +0.173 C 
BRANCH  18  19
ATOM     19  S   UNL     1      -1.642  -1.741   0.984  0.00  0.00    -0.078 S 
BRANCH  19  20
ATOM     20  C   UNL     1      -0.381  -0.555   1.311  0.00  0.00    +0.173 A 
ATOM     21  N   UNL     1      -0.677   0.717   1.204  0.00  0.00    -0.223 NA
ATOM     22  C   UNL     1       0.239   1.678   1.438  0.00  0.00    +0.079 A 
ATOM     23  C   UNL     1      -0.077   3.035   1.324  0.00  0.00    +0.028 A 
ATOM     24  C   UNL     1       0.882   3.976   1.572  0.00  0.00    +0.002 A 
ATOM     25  C   UNL     1       2.170   3.605   1.937  0.00  0.00    +0.001 A 
ATOM     26  C   UNL     1       2.510   2.285   2.057  0.00  0.00    +0.015 A 
ATOM     27  C   UNL     1       1.550   1.304   1.810  0.00  0.00    +0.065 A 
ATOM     28  C   UNL     1       1.858  -0.128   1.924  0.00  0.00    +0.263 A 
ATOM     29  O   UNL     1       2.969  -0.512   2.239  0.00  0.00    -0.267 OA
ATOM     30  N   UNL     1       0.859  -1.004   1.664  0.00  0.00    -0.284 N 
BRANCH  30  31
ATOM     31  C   UNL     1       1.111  -2.444   1.762  0.00  0.00    +0.093 C 
ATOM     32  C   UNL     1       2.370  -2.988   1.085  0.00  0.00    +0.027 C 
ATOM     33  C   UNL     1       0.993  -3.270   0.480  0.00  0.00    +0.027 C 
ENDBRANCH  30  31
ENDBRANCH  19  20
ENDBRANCH  18  19
ENDBRANCH   2  18
TORSDOF 10
