REMARK  Name = ZINC34686442
REMARK  10 active torsions:
REMARK  status: ('A' for Active; 'I' for Inactive)
REMARK    1  A    between atoms: C_1  and  C_2
REMARK    2  A    between atoms: C_2  and  C_3
REMARK    3  A    between atoms: C_3  and  C_5
REMARK    4  A    between atoms: C_3  and  O_15
REMARK    5  A    between atoms: N_7  and  C_8
REMARK    6  A    between atoms: C_8  and  C_9
REMARK    7  A    between atoms: C_9  and  N_10
REMARK    8  A    between atoms: O_15  and  C_16
REMARK    9  A    between atoms: C_22  and  C_34
REMARK   10  A    between atoms: C_27  and  C_29
REMARK                            x       y       z     vdW  Elec       q    Type
REMARK                         _______ _______ _______ _____ _____    ______ ____
ROOT
ATOM      1  C   UNL     1       0.155   2.092  -2.341  0.00  0.00    +0.122 A 
ATOM      2  C   UNL     1       1.033   3.114  -2.007  0.00  0.00    +0.046 A 
ATOM      3  C   UNL     1       1.172   4.197  -2.848  0.00  0.00    +0.007 A 
ATOM      4  C   UNL     1       0.444   4.276  -4.030  0.00  0.00    -0.040 A 
ATOM      5  C   UNL     1      -0.420   3.257  -4.365  0.00  0.00    -0.016 A 
ATOM      6  C   UNL     1      -0.565   2.166  -3.521  0.00  0.00    +0.051 A 
ATOM      7  C   UNL     1      -1.218   3.265  -5.645  0.00  0.00    +0.137 C 
ATOM      8  N   UNL     1      -1.138   4.590  -6.269  0.00  0.00    -0.290 N 
ATOM      9  C   UNL     1       0.186   5.233  -6.323  0.00  0.00    +0.113 C 
ATOM     10  C   UNL     1       0.639   5.498  -4.888  0.00  0.00    +0.054 C 
ATOM     11  C   UNL     1      -2.231   5.195  -6.773  0.00  0.00    +0.219 C 
ATOM     12  O   UNL     1      -3.297   4.617  -6.776  0.00  0.00    -0.275 OA
ENDROOT
BRANCH   7  13
ATOM     13  C   UNL     1      -2.658   2.942  -5.340  0.00  0.00    -0.022 A 
ATOM     14  C   UNL     1      -3.428   3.834  -4.616  0.00  0.00    +0.008 A 
ATOM     15  C   UNL     1      -4.748   3.539  -4.336  0.00  0.00    +0.038 A 
ATOM     16  C   UNL     1      -5.301   2.350  -4.782  0.00  0.00    +0.123 A 
ATOM     17  C   UNL     1      -4.530   1.458  -5.507  0.00  0.00    +0.038 A 
ATOM     18  C   UNL     1      -3.211   1.758  -5.790  0.00  0.00    +0.008 A 
ATOM     19  F   UNL     1      -6.592   2.061  -4.508  0.00  0.00    -0.205 F 
ENDBRANCH   7  13
BRANCH  11  20
ATOM     20  C   UNL     1      -2.129   6.590  -7.334  0.00  0.00    +0.075 C 
ATOM     21  C   UNL     1      -1.715   7.578  -6.224  0.00  0.00    +0.013 C 
ATOM     22  C   UNL     1      -2.516   8.865  -6.541  0.00  0.00    +0.001 C 
ATOM     23  C   UNL     1      -3.878   8.309  -7.026  0.00  0.00    +0.001 C 
ATOM     24  C   UNL     1      -3.505   7.055  -7.844  0.00  0.00    +0.013 C 
ENDBRANCH  11  20
BRANCH   1  25
ATOM     25  O   UNL     1       0.007   1.022  -1.516  0.00  0.00    -0.480 OA
BRANCH  25  26
ATOM     26  C   UNL     1       0.867   0.957  -0.377  0.00  0.00    +0.258 C 
BRANCH  26  27
ATOM     27  C   UNL     1       1.303  -0.469  -0.157  0.00  0.00    +0.254 C 
ATOM     28  O   UNL     1       0.844  -1.356  -0.845  0.00  0.00    -0.272 OA
ATOM     29  N   UNL     1       2.202  -0.758   0.805  0.00  0.00    -0.314 N 
ATOM     30  H   UNL     1       2.569  -0.049   1.355  0.00  0.00    +0.149 HD
BRANCH  29  31
ATOM     31  C   UNL     1       2.625  -2.144   1.019  0.00  0.00    +0.086 C 
BRANCH  31  32
ATOM     32  C   UNL     1       3.643  -2.196   2.160  0.00  0.00    -0.060 C 
BRANCH  32  33
ATOM     33  N   UNL     1       4.068  -3.586   2.374  0.00  0.00    +0.381 N 
ATOM     34  C   UNL     1       4.874  -4.059   1.220  0.00  0.00    -0.079 C 
ATOM     35  C   UNL     1       5.683  -5.240   1.813  0.00  0.00    -0.020 C 
ATOM     36  C   UNL     1       6.015  -4.749   3.241  0.00  0.00    -0.020 C 
ATOM     37  C   UNL     1       4.960  -3.671   3.551  0.00  0.00    -0.079 C 
ATOM     38  H   UNL     1       3.263  -4.180   2.504  0.00  0.00    -0.082 HD
ENDBRANCH  32  33
ENDBRANCH  31  32
ENDBRANCH  29  31
ENDBRANCH  26  27
BRANCH  26  40
ATOM     39  C   UNL     1      -0.217   2.940   0.687  0.00  0.00    +0.008 C 
ATOM     40  C   UNL     1       0.116   1.457   0.859  0.00  0.00    +0.051 C 
ENDBRANCH  26  40
ENDBRANCH  25  26
ENDBRANCH   1  25
TORSDOF 9
