REMARK  Name = ZINC11610474
REMARK  6 active torsions:
REMARK  status: ('A' for Active; 'I' for Inactive)
REMARK    1  A    between atoms: C_1  and  C_2
REMARK    2  A    between atoms: N_4  and  C_5
REMARK    3  A    between atoms: C_13  and  C_16
REMARK    4  A    between atoms: C_16  and  N_17
REMARK    5  A    between atoms: C_20  and  C_24
REMARK    6  A    between atoms: C_20  and  C_25
REMARK                            x       y       z     vdW  Elec       q    Type
REMARK                         _______ _______ _______ _____ _____    ______ ____
ROOT
ATOM      1  N   UNL     1      -4.665   3.529  -1.994  0.00  0.00    -0.218 N 
ATOM      2  C   UNL     1      -4.573   2.545  -1.077  0.00  0.00    +0.251 C 
ATOM      3  O   UNL     1      -5.177   1.494  -1.068  0.00  0.00    -0.272 OA
ATOM      4  C   UNL     1      -3.557   3.026  -0.060  0.00  0.00    +0.135 C 
ATOM      5  N   UNL     1      -3.156   4.348  -0.570  0.00  0.00    -0.281 N 
ATOM      6  C   UNL     1      -3.856   4.553  -1.700  0.00  0.00    +0.310 C 
ATOM      7  O   UNL     1      -3.763   5.557  -2.379  0.00  0.00    -0.252 OA
ATOM      8  C   UNL     1      -4.194   3.153   1.325  0.00  0.00    +0.047 C 
ATOM      9  H   UNL     1      -2.512   4.953  -0.169  0.00  0.00    +0.152 HD
ENDROOT
BRANCH   4  10
ATOM     10  C   UNL     1      -2.373   2.094  -0.013  0.00  0.00    -0.015 A 
ATOM     11  C   UNL     1      -2.564   0.729  -0.218  0.00  0.00    +0.007 A 
ATOM     12  C   UNL     1      -1.518  -0.140  -0.177  0.00  0.00    +0.009 A 
ATOM     13  C   UNL     1      -0.221   0.345   0.064  0.00  0.00    -0.018 A 
ATOM     14  C   UNL     1       0.885  -0.520   0.109  0.00  0.00    +0.008 A 
ATOM     15  C   UNL     1       2.127  -0.015   0.345  0.00  0.00    +0.001 A 
ATOM     16  C   UNL     1       2.320   1.351   0.544  0.00  0.00    +0.001 A 
ATOM     17  C   UNL     1       1.272   2.219   0.508  0.00  0.00    +0.008 A 
ATOM     18  C   UNL     1      -0.025   1.734   0.267  0.00  0.00    -0.018 A 
ATOM     19  C   UNL     1      -1.131   2.600   0.223  0.00  0.00    +0.014 A 
ENDBRANCH   4  10
BRANCH   1  20
ATOM     20  C   UNL     1      -5.541   3.482  -3.167  0.00  0.00    +0.174 C 
BRANCH  20  27
ATOM     21  C   UNL     1      -1.519   5.683  -8.055  0.00  0.00    +0.110 C 
ATOM     22  C   UNL     1      -2.354   5.007  -6.998  0.00  0.00    +0.223 C 
ATOM     23  O   UNL     1      -2.879   5.666  -6.126  0.00  0.00    -0.275 OA
ATOM     24  N   UNL     1      -2.517   3.669  -7.022  0.00  0.00    -0.219 N 
ATOM     25  C   UNL     1      -3.372   3.056  -6.111  0.00  0.00    +0.172 A 
ATOM     26  N   UNL     1      -4.027   3.592  -5.100  0.00  0.00    -0.228 NA
ATOM     27  C   UNL     1      -4.800   2.860  -4.322  0.00  0.00    +0.068 A 
ATOM     28  C   UNL     1      -4.918   1.536  -4.590  0.00  0.00    +0.073 A 
ATOM     29  S   UNL     1      -3.852   1.390  -6.017  0.00  0.00    -0.060 S 
BRANCH  24  30
ATOM     30  C   UNL     1      -1.827   2.896  -7.965  0.00  0.00    +0.043 A 
ATOM     31  C   UNL     1      -2.162   2.977  -9.310  0.00  0.00    +0.024 A 
ATOM     32  C   UNL     1      -1.476   2.218 -10.238  0.00  0.00    +0.002 A 
ATOM     33  C   UNL     1      -0.464   1.370  -9.826  0.00  0.00    +0.000 A 
ATOM     34  C   UNL     1      -0.132   1.282  -8.487  0.00  0.00    +0.002 A 
ATOM     35  C   UNL     1      -0.811   2.043  -7.555  0.00  0.00    +0.024 A 
ENDBRANCH  24  30
ENDBRANCH  20  27
ENDBRANCH   1  20
TORSDOF 4
