REMARK  Name = ZINC63374847
REMARK  11 active torsions:
REMARK  status: ('A' for Active; 'I' for Inactive)
REMARK    1  A    between atoms: C_1  and  C_2
REMARK    2  A    between atoms: C_2  and  C_4
REMARK    3  A    between atoms: C_2  and  C_34
REMARK    4  A    between atoms: C_4  and  N_5
REMARK    5  A    between atoms: C_6  and  C_8
REMARK    6  A    between atoms: C_8  and  C_10
REMARK    7  A    between atoms: C_8  and  N_14
REMARK    8  A    between atoms: C_10  and  C_11
REMARK    9  A    between atoms: C_11  and  C_12
REMARK   10  A    between atoms: C_11  and  C_13
REMARK   11  A    between atoms: C_17  and  C_33
REMARK                            x       y       z     vdW  Elec       q    Type
REMARK                         _______ _______ _______ _____ _____    ______ ____
ROOT
ATOM      1  N   UNL     1      -5.526  -0.746   3.013  0.00  0.00    -0.212 N 
ATOM      2  C   UNL     1      -6.603   0.066   3.034  0.00  0.00    +0.249 C 
ATOM      3  O   UNL     1      -6.611   1.273   2.927  0.00  0.00    -0.273 OA
ATOM      4  C   UNL     1      -7.799  -0.843   3.218  0.00  0.00    +0.136 C 
ATOM      5  C   UNL     1      -8.519  -0.507   4.529  0.00  0.00    +0.139 C 
ATOM      6  C   UNL     1      -9.319  -1.746   4.912  0.00  0.00    -0.034 C 
ATOM      7  C   UNL     1     -10.586  -1.356   5.014  0.00  0.00    -0.001 A 
ATOM      8  C   UNL     1     -11.803  -2.083   5.409  0.00  0.00    +0.010 A 
ATOM      9  C   UNL     1     -12.959  -1.368   5.395  0.00  0.00    +0.001 A 
ATOM     10  C   UNL     1     -13.025  -0.019   5.031  0.00  0.00    +0.002 A 
ATOM     11  C   UNL     1     -11.955   0.728   4.659  0.00  0.00    +0.026 A 
ATOM     12  C   UNL     1     -10.682   0.087   4.639  0.00  0.00    +0.043 A 
ATOM     13  N   UNL     1      -9.498   0.567   4.342  0.00  0.00    -0.375 N 
ATOM     14  C   UNL     1      -8.705  -3.117   5.054  0.00  0.00    +0.052 C 
ATOM     15  C   UNL     1      -7.913  -3.397   3.761  0.00  0.00    +0.115 C 
ATOM     16  N   UNL     1      -7.185  -2.178   3.396  0.00  0.00    -0.269 N 
ATOM     17  C   UNL     1      -5.871  -2.029   3.188  0.00  0.00    +0.313 C 
ATOM     18  O   UNL     1      -5.080  -2.952   3.164  0.00  0.00    -0.252 OA
ATOM     19  C   UNL     1      -8.741  -0.800   2.013  0.00  0.00    +0.044 C 
ATOM     20  H   UNL     1      -9.299   1.470   4.047  0.00  0.00    +0.160 HD
ENDROOT
BRANCH   1  21
ATOM     21  C   UNL     1      -4.150  -0.283   2.817  0.00  0.00    +0.171 C 
BRANCH  21  23
ATOM     22  N   UNL     1      -2.365  -0.525   1.122  0.00  0.00    -0.313 N 
ATOM     23  C   UNL     1      -3.620  -0.823   1.514  0.00  0.00    +0.234 C 
ATOM     24  O   UNL     1      -4.322  -1.525   0.817  0.00  0.00    -0.274 OA
ATOM     25  H   UNL     1      -1.804   0.037   1.679  0.00  0.00    +0.149 HD
BRANCH  22  26
ATOM     26  C   UNL     1      -1.849  -1.049  -0.145  0.00  0.00    +0.112 C 
BRANCH  26  28
ATOM     27  C   UNL     1      -0.404   0.956  -0.508  0.00  0.00    +0.014 C 
ATOM     28  C   UNL     1      -0.412  -0.566  -0.350  0.00  0.00    +0.033 C 
BRANCH  28  29
ATOM     29  C   UNL     1       0.160  -1.203  -1.589  0.00  0.00    -0.043 A 
ATOM     30  C   UNL     1      -0.438  -0.987  -2.817  0.00  0.00    +0.004 A 
ATOM     31  C   UNL     1       0.087  -1.571  -3.954  0.00  0.00    +0.000 A 
ATOM     32  C   UNL     1       1.211  -2.371  -3.864  0.00  0.00    +0.000 A 
ATOM     33  C   UNL     1       1.810  -2.587  -2.637  0.00  0.00    +0.000 A 
ATOM     34  C   UNL     1       1.287  -1.999  -1.500  0.00  0.00    +0.004 A 
ENDBRANCH  28  29
ENDBRANCH  26  28
ENDBRANCH  22  26
ENDBRANCH  21  23
BRANCH  21  35
ATOM     35  C   UNL     1      -3.276  -0.782   3.969  0.00  0.00    +0.035 C 
BRANCH  35  36
ATOM     36  C   UNL     1      -3.769  -0.175   5.284  0.00  0.00    -0.015 C 
ATOM     37  C   UNL     1      -2.991  -0.785   6.451  0.00  0.00    +0.007 C 
ATOM     38  C   UNL     1      -3.550   1.339   5.261  0.00  0.00    +0.007 C 
ENDBRANCH  35  36
ENDBRANCH  21  35
ENDBRANCH   1  21
TORSDOF 7
