REMARK  Name = ZINC04786919
REMARK  9 active torsions:
REMARK  status: ('A' for Active; 'I' for Inactive)
REMARK    1  A    between atoms: C_1  and  C_2
REMARK    2  A    between atoms: C_7  and  C_23
REMARK    3  A    between atoms: C_9  and  C_13
REMARK    4  A    between atoms: C_10  and  C_12
REMARK    5  A    between atoms: C_13  and  O_15
REMARK    6  A    between atoms: O_15  and  C_16
REMARK    7  A    between atoms: C_32  and  C_34
REMARK    8  A    between atoms: C_34  and  O_36
REMARK    9  A    between atoms: O_36  and  C_37
REMARK                            x       y       z     vdW  Elec       q    Type
REMARK                         _______ _______ _______ _____ _____    ______ ____
ROOT
ATOM      1  C   UNL     1      -0.258  -3.112  -1.377  0.00  0.00    +0.009 C 
ATOM      2  C   UNL     1      -0.982  -2.580  -0.139  0.00  0.00    +0.013 C 
ATOM      3  C   UNL     1      -2.424  -3.092  -0.126  0.00  0.00    +0.055 C 
ATOM      4  C   UNL     1      -3.151  -2.588  -1.347  0.00  0.00    +0.016 C 
ATOM      5  C   UNL     1      -2.833  -1.401  -1.906  0.00  0.00    +0.025 C 
ATOM      6  C   UNL     1      -3.573  -0.898  -3.119  0.00  0.00    +0.092 C 
ATOM      7  C   UNL     1      -4.309  -2.013  -3.802  0.00  0.00    +0.065 C 
ATOM      8  C   UNL     1      -4.562  -3.172  -3.170  0.00  0.00    +0.016 C 
ATOM      9  N   UNL     1      -4.145  -3.364  -1.882  0.00  0.00    -0.321 N 
ATOM     10  C   UNL     1      -5.310  -4.267  -3.885  0.00  0.00    +0.061 C 
ATOM     11  C   UNL     1      -1.803  -0.604  -1.377  0.00  0.00    +0.176 C 
ATOM     12  O   UNL     1      -1.548   0.464  -1.897  0.00  0.00    -0.291 OA
ATOM     13  C   UNL     1      -1.010  -1.048  -0.178  0.00  0.00    +0.171 C 
ATOM     14  H   UNL     1      -4.616  -4.150  -1.275  0.00  0.00    +0.152 HD
ENDROOT
BRANCH   6  15
ATOM     15  C   UNL     1      -4.560   0.159  -2.693  0.00  0.00    -0.035 A 
ATOM     16  C   UNL     1      -5.564  -0.155  -1.796  0.00  0.00    +0.006 A 
ATOM     17  C   UNL     1      -6.466   0.814  -1.401  0.00  0.00    +0.020 A 
ATOM     18  C   UNL     1      -6.371   2.096  -1.913  0.00  0.00    +0.041 A 
ATOM     19  C   UNL     1      -5.370   2.409  -2.815  0.00  0.00    +0.020 A 
ATOM     20  C   UNL     1      -4.465   1.439  -3.205  0.00  0.00    +0.006 A 
ATOM     21 CL   UNL     1      -7.508   3.313  -1.422  0.00  0.00    -0.084 Cl
ENDBRANCH   6  15
BRANCH   7  22
ATOM     22  C   UNL     1      -4.744  -1.842  -5.137  0.00  0.00    +0.338 C 
ATOM     23  O   UNL     1      -5.231  -2.778  -5.743  0.00  0.00    -0.245 OA
BRANCH  22  24
ATOM     24  O   UNL     1      -4.619  -0.640  -5.739  0.00  0.00    -0.458 OA
BRANCH  24  25
ATOM     25  C   UNL     1      -5.079  -0.539  -7.088  0.00  0.00    +0.177 C 
ATOM     26  C   UNL     1      -3.937  -0.953  -8.038  0.00  0.00    +0.044 C 
ATOM     27  C   UNL     1      -4.534  -1.338  -9.364  0.00  0.00    +0.004 C 
ATOM     28  C   UNL     1      -4.555  -0.166 -10.364  0.00  0.00    +0.000 C 
ATOM     29  C   UNL     1      -4.971   1.167  -9.712  0.00  0.00    +0.000 C 
ATOM     30  C   UNL     1      -6.114   1.004  -8.748  0.00  0.00    +0.004 C 
ATOM     31  C   UNL     1      -5.536   0.821  -7.329  0.00  0.00    +0.044 C 
ENDBRANCH  24  25
ENDBRANCH  22  24
ENDBRANCH   7  22
BRANCH  13  32
ATOM     32  C   UNL     1       0.397  -0.520  -0.279  0.00  0.00    +0.318 C 
ATOM     33  O   UNL     1       0.920  -0.398  -1.362  0.00  0.00    -0.250 OA
BRANCH  32  34
ATOM     34  O   UNL     1       1.070  -0.185   0.833  0.00  0.00    -0.467 OA
ATOM     35  C   UNL     1       2.422   0.317   0.659  0.00  0.00    +0.280 C 
ENDBRANCH  32  34
ENDBRANCH  13  32
TORSDOF 6
