REMARK  Name = ZINC04536993
REMARK  7 active torsions:
REMARK  status: ('A' for Active; 'I' for Inactive)
REMARK    1  A    between atoms: C_1  and  C_2
REMARK    2  A    between atoms: C_5  and  C_14
REMARK    3  A    between atoms: C_12  and  C_13
REMARK    4  A    between atoms: C_14  and  S_15
REMARK    5  A    between atoms: S_15  and  C_16
REMARK    6  A    between atoms: C_19  and  C_22
REMARK    7  A    between atoms: N_20  and  N_21
REMARK                            x       y       z     vdW  Elec       q    Type
REMARK                         _______ _______ _______ _____ _____    ______ ____
ROOT
ATOM      1  C   UNL     1       2.729   9.584  -0.036  0.00  0.00    +0.113 C 
ENDROOT
BRANCH   1   6
ATOM      2  C   UNL     1       5.062  10.357   4.601  0.00  0.00    +0.044 C 
ATOM      3  C   UNL     1       5.196  10.995   3.243  0.00  0.00    -0.047 A 
ATOM      4  C   UNL     1       4.417  10.552   2.198  0.00  0.00    +0.015 A 
ATOM      5  C   UNL     1       4.544  11.147   0.940  0.00  0.00    +0.022 A 
ATOM      6  C   UNL     1       3.730  10.700  -0.194  0.00  0.00    -0.020 A 
ATOM      7  C   UNL     1       3.897  11.322  -1.389  0.00  0.00    +0.097 A 
ATOM      8  C   UNL     1       4.841  12.365  -1.510  0.00  0.00    +0.338 A 
ATOM      9  O   UNL     1       4.982  12.915  -2.587  0.00  0.00    -0.245 OA
ATOM     10  O   UNL     1       5.587  12.765  -0.469  0.00  0.00    -0.422 OA
ATOM     11  C   UNL     1       5.470  12.188   0.746  0.00  0.00    +0.140 A 
ATOM     12  C   UNL     1       6.250  12.615   1.812  0.00  0.00    +0.050 A 
ATOM     13  C   UNL     1       6.105  12.026   3.051  0.00  0.00    -0.044 A 
ATOM     14  C   UNL     1       6.951  12.498   4.205  0.00  0.00    +0.044 C 
ENDBRANCH   1   6
BRANCH   1  15
ATOM     15  S   UNL     1       3.530   8.001  -0.397  0.00  0.00    -0.080 S 
BRANCH  15  16
ATOM     16  C   UNL     1       2.172   6.907  -0.142  0.00  0.00    +0.209 A 
ATOM     17  N   UNL     1       0.953   7.246   0.210  0.00  0.00    -0.121 NA
ATOM     18  N   UNL     1       0.212   6.201   0.307  0.00  0.00    -0.126 NA
ATOM     19  C   UNL     1       0.914   5.126   0.021  0.00  0.00    +0.188 A 
ATOM     20  N   UNL     1       2.193   5.545  -0.271  0.00  0.00    -0.223 N 
BRANCH  19  21
ATOM     21  C   UNL     1       0.426   3.737   0.018  0.00  0.00    +0.058 A 
ATOM     22  C   UNL     1      -0.866   3.275   0.028  0.00  0.00    +0.019 A 
ATOM     23  C   UNL     1      -1.081   1.915   0.017  0.00  0.00    +0.008 A 
ATOM     24  C   UNL     1      -0.013   1.076   0.008  0.00  0.00    +0.046 A 
ATOM     25  S   UNL     1       1.361   2.216   0.001  0.00  0.00    -0.093 S 
ENDBRANCH  19  21
BRANCH  20  26
ATOM     26  N   UNL     1       3.259   4.765  -0.618  0.00  0.00    -0.295 N 
ATOM     27  H   UNL     1       3.307   4.643  -1.619  0.00  0.00    +0.163 HD
ATOM     28  H   UNL     1       4.120   5.149  -0.259  0.00  0.00    +0.163 HD
ENDBRANCH  20  26
ENDBRANCH  15  16
ENDBRANCH   1  15
TORSDOF 5
