REMARK  Name = ZINC08454857
REMARK  10 active torsions:
REMARK  status: ('A' for Active; 'I' for Inactive)
REMARK    1  A    between atoms: C_1  and  C_2
REMARK    2  A    between atoms: C_7  and  N_8
REMARK    3  A    between atoms: C_9  and  C_11
REMARK    4  A    between atoms: C_12  and  C_38
REMARK    5  A    between atoms: C_19  and  C_20
REMARK    6  A    between atoms: N_22  and  C_26
REMARK    7  A    between atoms: C_24  and  C_25
REMARK    8  A    between atoms: C_28  and  C_30
REMARK    9  A    between atoms: C_33  and  O_36
REMARK   10  A    between atoms: O_36  and  C_37
REMARK                            x       y       z     vdW  Elec       q    Type
REMARK                         _______ _______ _______ _____ _____    ______ ____
ROOT
ATOM      1  C   UNL     1       0.900   4.252   1.396  0.00  0.00    +0.063 C 
ATOM      2  C   UNL     1      -0.307   3.830   0.915  0.00  0.00    +0.051 C 
ATOM      3  N   UNL     1      -0.453   2.595   0.449  0.00  0.00    -0.228 NA
ATOM      4  C   UNL     1       0.500   1.700   0.395  0.00  0.00    +0.178 A 
ATOM      5  N   UNL     1       1.788   1.918   0.827  0.00  0.00    -0.275 N 
ATOM      6  C   UNL     1       2.677   0.922   0.725  0.00  0.00    +0.268 A 
ATOM      7  O   UNL     1       3.828   1.069   1.094  0.00  0.00    -0.266 OA
ATOM      8  C   UNL     1       2.223  -0.352   0.155  0.00  0.00    +0.081 A 
ATOM      9  C   UNL     1       2.919  -1.500  -0.053  0.00  0.00    +0.031 C 
ATOM     10  S   UNL     1       0.510   0.016  -0.190  0.00  0.00    -0.046 S 
ATOM     11  C   UNL     1       2.055   3.278   1.375  0.00  0.00    +0.160 C 
ATOM     12  C   UNL     1      -1.483   4.772   0.919  0.00  0.00    +0.066 C 
ENDROOT
BRANCH   9  13
ATOM     13  C   UNL     1       4.370  -1.532   0.171  0.00  0.00    +0.017 A 
ATOM     14  C   UNL     1       5.264  -0.509  -0.091  0.00  0.00    +0.116 A 
ATOM     15  N   UNL     1       6.487  -0.947   0.256  0.00  0.00    -0.274 N 
ATOM     16  N   UNL     1       6.369  -2.254   0.741  0.00  0.00    -0.176 NA
ATOM     17  C   UNL     1       5.115  -2.611   0.701  0.00  0.00    +0.067 A 
ATOM     18  C   UNL     1       4.559  -3.941   1.140  0.00  0.00    +0.068 C 
ATOM     19  C   UNL     1       7.732  -0.184   0.145  0.00  0.00    +0.172 C 
ENDBRANCH   9  13
BRANCH  11  20
ATOM     20  C   UNL     1       2.551   3.118   2.789  0.00  0.00    -0.020 A 
ATOM     21  C   UNL     1       2.009   2.142   3.604  0.00  0.00    +0.009 A 
ATOM     22  C   UNL     1       2.466   1.990   4.899  0.00  0.00    +0.046 A 
ATOM     23  C   UNL     1       3.462   2.825   5.385  0.00  0.00    +0.120 A 
ATOM     24  C   UNL     1       3.999   3.808   4.566  0.00  0.00    +0.046 A 
ATOM     25  C   UNL     1       3.543   3.952   3.270  0.00  0.00    +0.009 A 
BRANCH  23  26
ATOM     26  O   UNL     1       3.908   2.682   6.660  0.00  0.00    -0.495 OA
ATOM     27  C   UNL     1       3.309   1.649   7.445  0.00  0.00    +0.277 C 
ENDBRANCH  23  26
ENDBRANCH  11  20
BRANCH   1  29
ATOM     28  N   UNL     1       0.576   5.878   3.111  0.00  0.00    -0.281 N 
ATOM     29  C   UNL     1       1.063   5.557   1.896  0.00  0.00    +0.248 C 
ATOM     30  O   UNL     1       1.644   6.396   1.231  0.00  0.00    -0.270 OA
ATOM     31  H   UNL     1       0.188   5.191   3.675  0.00  0.00    +0.155 HD
BRANCH  28  38
ATOM     32  C   UNL     1       0.362   6.360   5.907  0.00  0.00    +0.045 C 
ATOM     33  C   UNL     1       0.531   7.482   4.915  0.00  0.00    -0.029 A 
ATOM     34  C   UNL     1       0.586   8.791   5.354  0.00  0.00    +0.005 A 
ATOM     35  C   UNL     1       0.739   9.821   4.444  0.00  0.00    +0.000 A 
ATOM     36  C   UNL     1       0.840   9.544   3.093  0.00  0.00    +0.002 A 
ATOM     37  C   UNL     1       0.792   8.238   2.648  0.00  0.00    +0.023 A 
ATOM     38  C   UNL     1       0.631   7.202   3.559  0.00  0.00    +0.037 A 
ENDBRANCH  28  38
ENDBRANCH   1  29
TORSDOF 5
