REMARK  Name = ZINC09291636
REMARK  6 active torsions:
REMARK  status: ('A' for Active; 'I' for Inactive)
REMARK    1  A    between atoms: C_4  and  C_7
REMARK    2  A    between atoms: C_7  and  C_8
REMARK    3  A    between atoms: C_8  and  N_9
REMARK    4  A    between atoms: C_24  and  C_30
REMARK    5  A    between atoms: C_30  and  C_32
REMARK    6  A    between atoms: C_35  and  N_38
REMARK                            x       y       z     vdW  Elec       q    Type
REMARK                         _______ _______ _______ _____ _____    ______ ____
ROOT
ATOM      1  N   UNL     1       0.413   2.059   2.066  0.00  0.00    -0.241 N 
ATOM      2  C   UNL     1       1.617   2.019   1.474  0.00  0.00    +0.228 C 
ATOM      3  O   UNL     1       2.684   2.195   2.022  0.00  0.00    -0.275 OA
ATOM      4  C   UNL     1       1.414   1.716  -0.002  0.00  0.00    +0.113 C 
ATOM      5  C   UNL     1       1.218   3.043  -0.746  0.00  0.00    +0.100 C 
ATOM      6  C   UNL     1       2.364   3.321  -1.683  0.00  0.00    -0.021 A 
ATOM      7  C   UNL     1       3.651   2.955  -1.362  0.00  0.00    +0.006 A 
ATOM      8  C   UNL     1       4.686   3.219  -2.243  0.00  0.00    +0.000 A 
ATOM      9  C   UNL     1       4.431   3.848  -3.450  0.00  0.00    +0.001 A 
ATOM     10  C   UNL     1       3.146   4.222  -3.782  0.00  0.00    +0.008 A 
ATOM     11  C   UNL     1       2.097   3.965  -2.897  0.00  0.00    -0.019 A 
ATOM     12  C   UNL     1       0.719   4.376  -3.236  0.00  0.00    +0.022 C 
ATOM     13  C   UNL     1      -0.317   3.831  -2.567  0.00  0.00    +0.054 C 
ATOM     14  C   UNL     1      -0.698   1.677  -1.232  0.00  0.00    +0.141 C 
ATOM     15  C   UNL     1      -0.013   1.086   0.008  0.00  0.00    +0.116 C 
ATOM     16  C   UNL     1      -0.599   1.657   1.280  0.00  0.00    +0.228 C 
ATOM     17  O   UNL     1      -1.780   1.739   1.545  0.00  0.00    -0.275 OA
ATOM     18  N   UNL     1      -0.124   3.055  -1.277  0.00  0.00    -0.384 NA
ATOM     19  H   UNL     1      -0.669   3.587  -0.588  0.00  0.00    +0.127 HD
ENDROOT
BRANCH  14  20
ATOM     20  C   UNL     1      -2.136   1.996  -0.917  0.00  0.00    +0.183 C 
ATOM     21  O   UNL     1      -2.479   3.147  -0.749  0.00  0.00    -0.290 OA
BRANCH  20  22
ATOM     22  C   UNL     1      -3.125   0.911  -0.812  0.00  0.00    +0.019 A 
ATOM     23  C   UNL     1      -2.734  -0.417  -1.010  0.00  0.00    +0.013 A 
ATOM     24  C   UNL     1      -3.665  -1.429  -0.904  0.00  0.00    +0.033 A 
ATOM     25  C   UNL     1      -4.986  -1.132  -0.615  0.00  0.00    +0.126 A 
ATOM     26  C   UNL     1      -5.381   0.181  -0.424  0.00  0.00    +0.033 A 
ATOM     27  C   UNL     1      -4.461   1.203  -0.520  0.00  0.00    +0.013 A 
BRANCH  25  28
ATOM     28  N   UNL     1      -5.980  -2.223  -0.510  0.00  0.00    +0.056 N 
ATOM     29  O   UNL     1      -7.143  -1.965  -0.255  0.00  0.00    -0.126 OA
ATOM     30  O   UNL     1      -5.636  -3.379  -0.678  0.00  0.00    -0.126 OA
ENDBRANCH  25  28
ENDBRANCH  20  22
ENDBRANCH  14  20
BRANCH   1  31
ATOM     31  C   UNL     1       0.221   2.502   3.450  0.00  0.00    +0.121 C 
BRANCH  31  32
ATOM     32  C   UNL     1      -0.028   4.011   3.472  0.00  0.00    +0.054 C 
BRANCH  32  36
ATOM     33  C   UNL     1      -0.590   5.303   7.505  0.00  0.00    +0.000 A 
ATOM     34  C   UNL     1       0.678   5.285   6.955  0.00  0.00    +0.000 A 
ATOM     35  C   UNL     1       0.860   4.868   5.650  0.00  0.00    +0.004 A 
ATOM     36  C   UNL     1      -0.226   4.467   4.895  0.00  0.00    -0.046 A 
ATOM     37  C   UNL     1      -1.495   4.489   5.443  0.00  0.00    +0.004 A 
ATOM     38  C   UNL     1      -1.676   4.902   6.749  0.00  0.00    +0.000 A 
ENDBRANCH  32  36
ENDBRANCH  31  32
ENDBRANCH   1  31
TORSDOF 6
