REMARK  Name = ZINC42138545
REMARK  4 active torsions:
REMARK  status: ('A' for Active; 'I' for Inactive)
REMARK    1  A    between atoms: C_1  and  C_2
REMARK    2  A    between atoms: C_8  and  N_10
REMARK    3  A    between atoms: C_12  and  C_18
REMARK    4  A    between atoms: C_14  and  N_17
REMARK                            x       y       z     vdW  Elec       q    Type
REMARK                         _______ _______ _______ _____ _____    ______ ____
ROOT
ATOM      1  N   UNL     1       2.127  -0.040   1.229  0.00  0.00    -0.325 N 
ATOM      2  C   UNL     1       2.819   0.114   2.420  0.00  0.00    +0.131 A 
ATOM      3  C   UNL     1       4.163   0.523   2.397  0.00  0.00    +0.078 A 
ATOM      4  C   UNL     1       4.844   0.671   3.610  0.00  0.00    +0.040 A 
ATOM      5  C   UNL     1       4.157   0.406   4.788  0.00  0.00    +0.044 A 
ATOM      6  C   UNL     1       2.829   0.005   4.726  0.00  0.00    +0.135 A 
ATOM      7  N   UNL     1       2.208  -0.122   3.569  0.00  0.00    -0.238 NA
ATOM      8  H   UNL     1       2.545   0.208   0.390  0.00  0.00    +0.148 HD
ENDROOT
BRANCH   1  15
ATOM      9  C   UNL     1      -0.037   1.442   0.000  0.00  0.00    +0.009 C 
ATOM     10  C   UNL     1       0.015  -0.087  -0.004  0.00  0.00    +0.006 C 
ATOM     11  C   UNL     1       0.744  -0.569  -1.260  0.00  0.00    +0.005 C 
ATOM     12  C   UNL     1       0.797  -2.098  -1.264  0.00  0.00    +0.000 C 
ATOM     13  C   UNL     1       1.545  -2.586  -0.021  0.00  0.00    +0.002 C 
ATOM     14  C   UNL     1       0.816  -2.104   1.235  0.00  0.00    +0.022 C 
ATOM     15  C   UNL     1       0.763  -0.575   1.238  0.00  0.00    +0.075 C 
ENDBRANCH   1  15
BRANCH   3  16
ATOM     16  C   UNL     1       4.844   0.791   1.117  0.00  0.00    +0.245 C 
ATOM     17  O   UNL     1       4.215   0.763   0.076  0.00  0.00    -0.270 OA
ATOM     18  N   UNL     1       6.163   1.067   1.100  0.00  0.00    -0.325 N 
ATOM     19  H   UNL     1       6.664   1.089   1.930  0.00  0.00    +0.145 HD
ATOM     20  H   UNL     1       6.611   1.243   0.258  0.00  0.00    +0.145 HD
ENDBRANCH   3  16
BRANCH   5  21
ATOM     21  N   UNL     1       4.798   0.541   6.026  0.00  0.00    -0.357 N 
ATOM     22  H   UNL     1       5.726   0.821   6.064  0.00  0.00    +0.142 HD
ATOM     23  H   UNL     1       4.314   0.354   6.846  0.00  0.00    +0.142 HD
ENDBRANCH   5  21
TORSDOF 3
