REMARK  Name = ZINC39344848
REMARK  11 active torsions:
REMARK  status: ('A' for Active; 'I' for Inactive)
REMARK    1  A    between atoms: C_1  and  C_2
REMARK    2  A    between atoms: C_4  and  C_9
REMARK    3  A    between atoms: C_5  and  C_8
REMARK    4  A    between atoms: C_9  and  O_10
REMARK    5  A    between atoms: O_10  and  C_11
REMARK    6  A    between atoms: N_14  and  C_24
REMARK    7  A    between atoms: N_18  and  C_20
REMARK    8  A    between atoms: C_20  and  C_21
REMARK    9  A    between atoms: C_21  and  C_22
REMARK   10  A    between atoms: C_21  and  C_23
REMARK   11  A    between atoms: C_24  and  C_25
REMARK                            x       y       z     vdW  Elec       q    Type
REMARK                         _______ _______ _______ _____ _____    ______ ____
ROOT
ATOM      1  C   UNL     1      -4.560  -1.310  -1.794  0.00  0.00    +0.120 C 
ATOM      2  C   UNL     1      -5.768  -1.545  -0.910  0.00  0.00    -0.044 C 
ATOM      3  N   UNL     1      -7.037  -1.158  -1.511  0.00  0.00    +0.391 N 
ATOM      4  C   UNL     1      -7.383  -2.045  -2.630  0.00  0.00    +0.019 C 
ATOM      5  C   UNL     1      -6.728  -1.516  -3.888  0.00  0.00    +0.199 C 
ATOM      6  O   UNL     1      -7.407  -0.997  -4.748  0.00  0.00    -0.278 OA
ATOM      7  N   UNL     1      -5.407  -1.618  -4.057  0.00  0.00    -0.300 N 
ATOM      8  C   UNL     1      -4.583  -2.244  -3.007  0.00  0.00    +0.137 C 
ATOM      9  H   UNL     1      -6.967  -0.210  -1.849  0.00  0.00    -0.080 HD
ENDROOT
BRANCH   1  10
ATOM     10  O   UNL     1      -3.371  -1.550  -1.039  0.00  0.00    -0.372 OA
BRANCH  10  11
ATOM     11  C   UNL     1      -2.253  -0.758  -1.447  0.00  0.00    +0.195 C 
BRANCH  11  14
ATOM     12  C   UNL     1       0.009  -3.051  -1.703  0.00  0.00    +0.045 C 
ATOM     13  C   UNL     1      -0.473  -2.467  -0.373  0.00  0.00    +0.175 C 
ATOM     14  C   UNL     1      -1.061  -1.091  -0.588  0.00  0.00    +0.007 C 
ATOM     15  C   UNL     1      -0.344  -0.236   0.111  0.00  0.00    +0.040 C 
ATOM     16  N   UNL     1       0.678  -0.877   0.787  0.00  0.00    -0.269 N 
ATOM     17  O   UNL     1       0.636  -2.269   0.515  0.00  0.00    -0.267 OA
ATOM     18  C   UNL     1      -0.603   1.247   0.167  0.00  0.00    +0.065 C 
ATOM     19  H   UNL     1       1.327  -0.441   1.361  0.00  0.00    +0.194 HD
ENDBRANCH  11  14
ENDBRANCH  10  11
ENDBRANCH   1  10
BRANCH   7  20
ATOM     20  C   UNL     1      -4.780  -1.110  -5.279  0.00  0.00    +0.110 C 
BRANCH  20  21
ATOM     21  C   UNL     1      -4.613  -2.255  -6.280  0.00  0.00    +0.000 C 
ATOM     22  C   UNL     1      -5.991  -2.749  -6.725  0.00  0.00    +0.009 C 
ATOM     23  C   UNL     1      -3.833  -1.757  -7.499  0.00  0.00    +0.009 C 
ENDBRANCH  20  21
ENDBRANCH   7  20
BRANCH   3  24
ATOM     24  C   UNL     1      -8.094  -1.230  -0.494  0.00  0.00    -0.024 C 
BRANCH  24  25
ATOM     25  C   UNL     1      -9.385  -0.715  -1.074  0.00  0.00    +0.000 A 
ATOM     26  H   UNL     1      -9.230   1.341  -0.775  0.00  0.00    +0.166 HD
ATOM     27  C   UNL     1     -10.343  -1.479  -1.623  0.00  0.00    +0.029 A 
ATOM     28  C   UNL     1     -11.414  -0.578  -2.055  0.00  0.00    -0.000 A 
ATOM     29  C   UNL     1     -12.648  -0.767  -2.680  0.00  0.00    +0.010 A 
ATOM     30  C   UNL     1     -13.441   0.311  -2.958  0.00  0.00    +0.001 A 
ATOM     31  C   UNL     1     -13.029   1.593  -2.624  0.00  0.00    +0.002 A 
ATOM     32  C   UNL     1     -11.814   1.803  -2.007  0.00  0.00    +0.026 A 
ATOM     33  C   UNL     1     -10.992   0.720  -1.715  0.00  0.00    +0.047 A 
ATOM     34  N   UNL     1      -9.758   0.602  -1.116  0.00  0.00    -0.360 N 
ENDBRANCH  24  25
ENDBRANCH   3  24
TORSDOF 7
