REMARK  Name = ZINC21230521
REMARK  11 active torsions:
REMARK  status: ('A' for Active; 'I' for Inactive)
REMARK    1  A    between atoms: C_1  and  C_2
REMARK    2  A    between atoms: C_5  and  N_9
REMARK    3  A    between atoms: C_6  and  C_8
REMARK    4  A    between atoms: C_10  and  C_26
REMARK    5  A    between atoms: C_13  and  S_14
REMARK    6  A    between atoms: S_14  and  C_15
REMARK    7  A    between atoms: C_15  and  C_17
REMARK    8  A    between atoms: C_15  and  C_20
REMARK    9  A    between atoms: C_17  and  C_18
REMARK   10  A    between atoms: C_17  and  C_19
REMARK   11  A    between atoms: C_26  and  C_27
REMARK                            x       y       z     vdW  Elec       q    Type
REMARK                         _______ _______ _______ _____ _____    ______ ____
ROOT
ATOM      1  N   UNL     1       3.523   3.391  -2.226  0.00  0.00    -0.274 N 
ATOM      2  C   UNL     1       2.803   4.251  -1.439  0.00  0.00    +0.143 A 
ATOM      3  N   UNL     1       2.579   5.325  -2.142  0.00  0.00    -0.133 NA
ATOM      4  N   UNL     1       3.098   5.204  -3.312  0.00  0.00    -0.122 NA
ATOM      5  C   UNL     1       3.688   4.036  -3.421  0.00  0.00    +0.197 A 
ENDROOT
BRANCH   1  10
ATOM      6  C   UNL     1       5.415  -1.773  -0.823  0.00  0.00    +0.044 C 
ATOM      7  C   UNL     1       4.912  -0.402  -1.196  0.00  0.00    -0.050 A 
ATOM      8  C   UNL     1       3.663  -0.258  -1.771  0.00  0.00    +0.005 A 
ATOM      9  C   UNL     1       3.198   0.998  -2.108  0.00  0.00    +0.027 A 
ATOM     10  C   UNL     1       3.991   2.115  -1.880  0.00  0.00    +0.053 A 
ATOM     11  C   UNL     1       5.244   1.967  -1.303  0.00  0.00    -0.026 A 
ATOM     12  C   UNL     1       5.702   0.709  -0.962  0.00  0.00    +0.008 A 
ATOM     13  C   UNL     1       6.105   3.177  -1.047  0.00  0.00    +0.046 C 
ENDBRANCH   1  10
BRANCH   5  14
ATOM     14  S   UNL     1       4.537   3.419  -4.837  0.00  0.00    -0.073 S 
BRANCH  14  15
ATOM     15  C   UNL     1       4.203   4.755  -6.011  0.00  0.00    +0.143 C 
BRANCH  15  16
ATOM     16  C   UNL     1       4.937   5.998  -5.579  0.00  0.00    +0.234 C 
ATOM     17  O   UNL     1       5.934   5.907  -4.895  0.00  0.00    -0.274 OA
ATOM     18  N   UNL     1       4.486   7.212  -5.953  0.00  0.00    -0.239 N 
ATOM     19  C   UNL     1       5.142   8.324  -5.567  0.00  0.00    +0.303 C 
ATOM     20  O   UNL     1       6.142   8.232  -4.881  0.00  0.00    -0.253 OA
ATOM     21  N   UNL     1       4.691   9.537  -5.941  0.00  0.00    -0.313 N 
ATOM     22  H   UNL     1       3.581   7.295  -6.573  0.00  0.00    +0.159 HD
ATOM     23  H   UNL     1       5.227  10.445  -5.625  0.00  0.00    +0.146 HD
ATOM     24  H   UNL     1       3.786   9.620  -6.561  0.00  0.00    +0.146 HD
ENDBRANCH  15  16
BRANCH  15  25
ATOM     25  C   UNL     1       4.678   4.340  -7.404  0.00  0.00    +0.005 C 
ATOM     26  C   UNL     1       6.151   3.932  -7.340  0.00  0.00    +0.009 C 
ATOM     27  C   UNL     1       3.842   3.158  -7.898  0.00  0.00    +0.009 C 
ENDBRANCH  15  25
ENDBRANCH  14  15
ENDBRANCH   5  14
BRANCH   2  28
ATOM     28  C   UNL     1       2.358   4.003  -0.021  0.00  0.00    +0.111 C 
BRANCH  28  29
ATOM     29  C   UNL     1       0.999   3.353  -0.027  0.00  0.00    -0.040 A 
ATOM     30  C   UNL     1       0.891   1.976  -0.056  0.00  0.00    +0.004 A 
ATOM     31  C   UNL     1      -0.357   1.380  -0.062  0.00  0.00    +0.000 A 
ATOM     32  C   UNL     1      -1.496   2.162  -0.043  0.00  0.00    +0.000 A 
ATOM     33  C   UNL     1      -1.388   3.540  -0.008  0.00  0.00    +0.000 A 
ATOM     34  C   UNL     1      -0.141   4.136  -0.002  0.00  0.00    +0.004 A 
ENDBRANCH  28  29
ENDBRANCH   2  28
TORSDOF 7
