REMARK  Name = ZINC16035664
REMARK  10 active torsions:
REMARK  status: ('A' for Active; 'I' for Inactive)
REMARK    1  A    between atoms: C_6  and  S_7
REMARK    2  A    between atoms: S_7  and  N_10
REMARK    3  A    between atoms: N_10  and  C_11
REMARK    4  A    between atoms: C_11  and  C_13
REMARK    5  A    between atoms: C_11  and  C_15
REMARK    6  A    between atoms: C_13  and  O_14
REMARK    7  A    between atoms: C_15  and  O_17
REMARK    8  A    between atoms: O_17  and  C_18
REMARK    9  A    between atoms: C_18  and  C_19
REMARK   10  A    between atoms: N_21  and  C_22
REMARK                            x       y       z     vdW  Elec       q    Type
REMARK                         _______ _______ _______ _____ _____    ______ ____
ROOT
ATOM      1  C   UNL     1       1.867  -2.333  -3.870  0.00  0.00    +0.329 C 
ATOM      2  O   UNL     1       0.685  -2.394  -4.116  0.00  0.00    -0.249 OA
ENDROOT
BRANCH   1   3
ATOM      3  C   UNL     1       2.361  -2.607  -2.474  0.00  0.00    +0.210 C 
BRANCH   3   4
ATOM      4  N   UNL     1       1.223  -2.922  -1.606  0.00  0.00    -0.174 NA
ATOM      5  H   UNL     1       0.465  -3.413  -1.960  0.00  0.00    +0.149 HD
BRANCH   4   6
ATOM      6  S   UNL     1       1.232  -2.441  -0.022  0.00  0.00    +0.059 S 
ATOM      7  O   UNL     1       2.487  -2.833   0.515  0.00  0.00    -0.153 OA
ATOM      8  O   UNL     1      -0.003  -2.866   0.538  0.00  0.00    -0.153 OA
BRANCH   6  14
ATOM      9  C   UNL     1       0.002  -0.004   0.002  0.00  0.00    +0.029 A 
ATOM     10  C   UNL     1      -0.017   1.378   0.010  0.00  0.00    +0.017 A 
ATOM     11  C   UNL     1       1.172   2.086   0.002  0.00  0.00    +0.018 A 
ATOM     12  C   UNL     1       2.379   1.410  -0.013  0.00  0.00    +0.017 A 
ATOM     13  C   UNL     1       2.396   0.028  -0.021  0.00  0.00    +0.029 A 
ATOM     14  C   UNL     1       1.208  -0.679  -0.013  0.00  0.00    +0.105 A 
ATOM     15 BR   UNL     1       1.147   3.976   0.013  0.00  0.00    -0.050 Br
ENDBRANCH   6  14
ENDBRANCH   4   6
ENDBRANCH   3   4
BRANCH   3  16
ATOM     16  C   UNL     1       3.327  -3.793  -2.498  0.00  0.00    +0.187 C 
BRANCH  16  17
ATOM     17  O   UNL     1       2.687  -4.917  -3.108  0.00  0.00    -0.393 OA
ATOM     18  H   UNL     1       3.243  -5.707  -3.157  0.00  0.00    +0.209 HD
ENDBRANCH  16  17
ENDBRANCH   3  16
ENDBRANCH   1   3
BRANCH   1  19
ATOM     19  O   UNL     1       2.739  -2.020  -4.842  0.00  0.00    -0.454 OA
BRANCH  19  20
ATOM     20  C   UNL     1       2.192  -1.768  -6.163  0.00  0.00    +0.327 C 
BRANCH  20  21
ATOM     21  C   UNL     1       3.312  -1.435  -7.115  0.00  0.00    +0.251 C 
ATOM     22  O   UNL     1       4.458  -1.412  -6.719  0.00  0.00    -0.272 OA
ATOM     23  N   UNL     1       3.040  -1.163  -8.406  0.00  0.00    -0.307 N 
ATOM     24  H   UNL     1       2.123  -1.181  -8.723  0.00  0.00    +0.149 HD
BRANCH  23  25
ATOM     25  C   UNL     1       4.128  -0.839  -9.332  0.00  0.00    +0.035 C 
ATOM     26  C   UNL     1       4.864   0.409  -8.838  0.00  0.00    +0.029 C 
ATOM     27  C   UNL     1       6.000   0.747  -9.805  0.00  0.00    -0.008 C 
ATOM     28  C   UNL     1       5.424   1.012 -11.197  0.00  0.00    +0.007 C 
ATOM     29  C   UNL     1       4.689  -0.235 -11.691  0.00  0.00    -0.008 C 
ATOM     30  C   UNL     1       3.552  -0.574 -10.724  0.00  0.00    +0.029 C 
ATOM     31  C   UNL     1       5.666  -1.410 -11.759  0.00  0.00    +0.007 C 
ATOM     32  C   UNL     1       6.243  -1.676 -10.367  0.00  0.00    -0.008 C 
ATOM     33  C   UNL     1       6.978  -0.428  -9.873  0.00  0.00    +0.007 C 
ATOM     34  C   UNL     1       5.106  -2.014  -9.400  0.00  0.00    +0.029 C 
ENDBRANCH  23  25
ENDBRANCH  20  21
ENDBRANCH  19  20
ENDBRANCH   1  19
TORSDOF 10
