REMARK  Name = ZINC39926582
REMARK  6 active torsions:
REMARK  status: ('A' for Active; 'I' for Inactive)
REMARK    1  A    between atoms: C_1  and  O_2
REMARK    2  A    between atoms: O_2  and  C_3
REMARK    3  A    between atoms: C_8  and  C_9
REMARK    4  A    between atoms: C_13  and  S_27
REMARK    5  A    between atoms: N_15  and  N_16
REMARK    6  A    between atoms: C_17  and  C_18
REMARK                            x       y       z     vdW  Elec       q    Type
REMARK                         _______ _______ _______ _____ _____    ______ ____
ROOT
ATOM      1  C   UNL     1       0.230  -2.759   0.055  0.00  0.00    +0.209 C 
ATOM      2  N   UNL     1       0.295  -2.146  -1.291  0.00  0.00    -0.229 NA
ATOM      3  N   UNL     1       0.221  -3.288  -2.216  0.00  0.00    -0.225 NA
ATOM      4  C   UNL     1       1.019  -4.332  -1.522  0.00  0.00    +0.231 C 
ATOM      5  N   UNL     1       0.691  -4.151  -0.093  0.00  0.00    -0.205 N 
ATOM      6  H   UNL     1      -0.476  -1.512  -1.437  0.00  0.00    +0.143 HD
ATOM      7  H   UNL     1       0.628  -3.056  -3.110  0.00  0.00    +0.143 HD
ENDROOT
BRANCH   1  13
ATOM      8  C   UNL     1       1.254  -0.636   0.910  0.00  0.00    +0.126 A 
ATOM      9  C   UNL     1       2.082   0.047   1.790  0.00  0.00    +0.046 A 
ATOM     10  C   UNL     1       2.787  -0.647   2.754  0.00  0.00    +0.004 A 
ATOM     11  C   UNL     1       2.667  -2.022   2.843  0.00  0.00    +0.001 A 
ATOM     12  C   UNL     1       1.844  -2.705   1.968  0.00  0.00    +0.010 A 
ATOM     13  C   UNL     1       1.133  -2.014   1.005  0.00  0.00    +0.031 A 
BRANCH   8  15
ATOM     14  C   UNL     1       0.734   1.463  -0.078  0.00  0.00    +0.277 C 
ATOM     15  O   UNL     1       0.560   0.045  -0.039  0.00  0.00    -0.495 OA
ENDBRANCH   8  15
ENDBRANCH   1  13
BRANCH   5  16
ATOM     16  N   UNL     1       0.789  -5.035   0.841  0.00  0.00    -0.188 NA
ATOM     17  C   UNL     1       1.333  -6.201   0.586  0.00  0.00    +0.136 C 
BRANCH  17  18
ATOM     18  C   UNL     1       1.316  -7.207   1.556  0.00  0.00    +0.000 C 
ATOM     19  C   UNL     1       1.851  -8.493   1.448  0.00  0.00    +0.004 A 
ATOM     20  C   UNL     1       2.534  -9.157   0.408  0.00  0.00    +0.010 A 
ATOM     21  C   UNL     1       2.951 -10.437   0.585  0.00  0.00    +0.001 A 
ATOM     22  C   UNL     1       2.720 -11.123   1.780  0.00  0.00    +0.002 A 
ATOM     23  C   UNL     1       2.070 -10.546   2.821  0.00  0.00    +0.026 A 
ATOM     24  C   UNL     1       1.605  -9.210   2.710  0.00  0.00    +0.043 A 
ATOM     25  N   UNL     1       0.959  -8.438   3.561  0.00  0.00    -0.380 N 
ATOM     26  C   UNL     1       0.721  -7.130   2.945  0.00  0.00    +0.150 C 
ATOM     27  H   UNL     1       0.688  -8.695   4.457  0.00  0.00    +0.160 HD
ENDBRANCH  17  18
ENDBRANCH   5  16
BRANCH   4  28
ATOM     28  S   UNL     1       0.526  -5.985  -2.084  0.00  0.00    -0.138 S 
ATOM     29  H   UNL     1       0.804  -5.978  -3.400  0.00  0.00    +0.105 HD
ENDBRANCH   4  28
TORSDOF 5
