REMARK  Name = ZINC06993212
REMARK  5 active torsions:
REMARK  status: ('A' for Active; 'I' for Inactive)
REMARK    1  A    between atoms: C_1  and  C_2
REMARK    2  A    between atoms: C_2  and  C_4
REMARK    3  A    between atoms: C_2  and  S_19
REMARK    4  A    between atoms: N_6  and  N_7
REMARK    5  A    between atoms: S_19  and  C_20
REMARK                            x       y       z     vdW  Elec       q    Type
REMARK                         _______ _______ _______ _____ _____    ______ ____
ROOT
ATOM      1  C   UNL     1       1.431   1.620  -0.036  0.00  0.00    +0.243 C 
ATOM      2  O   UNL     1       1.684   2.634  -0.651  0.00  0.00    -0.273 OA
ATOM      3  N   UNL     1       2.414   0.956   0.603  0.00  0.00    -0.223 N 
ATOM      4  H   UNL     1       2.211   0.145   1.095  0.00  0.00    +0.174 HD
ENDROOT
BRANCH   3   5
ATOM      5  N   UNL     1       3.729   1.438   0.558  0.00  0.00    -0.137 N 
ATOM      6  C   UNL     1       4.344   2.060   1.585  0.00  0.00    +0.263 C 
ATOM      7  O   UNL     1       3.883   2.300   2.680  0.00  0.00    -0.271 OA
ATOM      8  C   UNL     1       5.730   2.395   1.082  0.00  0.00    +0.114 C 
ATOM      9  C   UNL     1       6.786   1.692   1.928  0.00  0.00    +0.035 C 
ATOM     10  C   UNL     1       8.179   2.021   1.386  0.00  0.00    +0.003 C 
ATOM     11  C   UNL     1       8.396   3.535   1.424  0.00  0.00    +0.000 C 
ATOM     12  C   UNL     1       7.344   4.224   0.551  0.00  0.00    +0.003 C 
ATOM     13  C   UNL     1       5.947   3.904   1.089  0.00  0.00    +0.035 C 
ATOM     14  N   UNL     1       5.744   1.879  -0.293  0.00  0.00    -0.284 N 
ATOM     15  C   UNL     1       4.532   1.332  -0.507  0.00  0.00    +0.326 C 
ATOM     16  O   UNL     1       4.204   0.804  -1.552  0.00  0.00    -0.251 OA
ATOM     17  H   UNL     1       6.482   1.921  -0.921  0.00  0.00    +0.151 HD
ENDBRANCH   3   5
BRANCH   1  19
ATOM     18  C   UNL     1      -0.669   1.608   1.283  0.00  0.00    +0.029 C 
ATOM     19  C   UNL     1       0.016   1.102   0.012  0.00  0.00    +0.135 C 
BRANCH  19  20
ATOM     20  S   UNL     1      -0.894   1.692  -1.442  0.00  0.00    -0.113 S 
BRANCH  20  21
ATOM     21  C   UNL     1      -0.156   0.827  -2.787  0.00  0.00    +0.009 A 
ATOM     22  C   UNL     1       0.800  -0.152  -2.545  0.00  0.00    +0.016 A 
ATOM     23  C   UNL     1       1.373  -0.833  -3.601  0.00  0.00    +0.021 A 
ATOM     24  C   UNL     1       1.004  -0.533  -4.901  0.00  0.00    +0.041 A 
ATOM     25  C   UNL     1       0.056   0.446  -5.146  0.00  0.00    +0.021 A 
ATOM     26  C   UNL     1      -0.524   1.126  -4.093  0.00  0.00    +0.016 A 
ATOM     27 CL   UNL     1       1.730  -1.386  -6.226  0.00  0.00    -0.084 Cl
ENDBRANCH  20  21
ENDBRANCH  19  20
ENDBRANCH   1  19
TORSDOF 4
