REMARK  Name = ZINC01811478
REMARK  11 active torsions:
REMARK  status: ('A' for Active; 'I' for Inactive)
REMARK    1  A    between atoms: C_1  and  C_2
REMARK    2  A    between atoms: C_2  and  C_3
REMARK    3  A    between atoms: C_8  and  C_28
REMARK    4  A    between atoms: C_9  and  C_23
REMARK    5  A    between atoms: C_12  and  C_15
REMARK    6  A    between atoms: C_13  and  O_14
REMARK    7  A    between atoms: C_15  and  N_66
REMARK    8  A    between atoms: C_20  and  C_22
REMARK    9  A    between atoms: C_23  and  O_25
REMARK   10  A    between atoms: O_25  and  C_26
REMARK   11  A    between atoms: C_26  and  C_27
REMARK                            x       y       z     vdW  Elec       q    Type
REMARK                         _______ _______ _______ _____ _____    ______ ____
ROOT
ATOM      1  C   UNL     1       5.343   3.985   0.119  0.00  0.00    -0.005 A 
ATOM      2  C   UNL     1       5.832   3.819   1.384  0.00  0.00    +0.022 A 
ATOM      3  C   UNL     1       4.962   3.487   2.425  0.00  0.00    +0.065 A 
ATOM      4  C   UNL     1       5.459   3.300   3.799  0.00  0.00    +0.203 A 
ATOM      5  O   UNL     1       6.639   3.429   4.073  0.00  0.00    -0.286 OA
ATOM      6  C   UNL     1       4.457   2.950   4.830  0.00  0.00    +0.104 A 
ATOM      7  C   UNL     1       3.138   2.820   4.447  0.00  0.00    +0.225 A 
ATOM      8  O   UNL     1       2.743   3.002   3.178  0.00  0.00    -0.447 OA
ATOM      9  C   UNL     1       3.586   3.328   2.179  0.00  0.00    +0.144 A 
ATOM     10  C   UNL     1       3.107   3.495   0.886  0.00  0.00    +0.021 A 
ATOM     11  C   UNL     1       3.982   3.825  -0.136  0.00  0.00    +0.125 A 
ENDROOT
BRANCH   6  12
ATOM     12  C   UNL     1       4.859   2.743   6.233  0.00  0.00    +0.117 A 
ATOM     13  N   UNL     1       4.132   2.325   7.249  0.00  0.00    -0.239 NA
ATOM     14  C   UNL     1       4.632   2.176   8.483  0.00  0.00    +0.079 A 
ATOM     15  C   UNL     1       3.961   1.735   9.650  0.00  0.00    +0.029 A 
ATOM     16  C   UNL     1       4.617   1.644  10.838  0.00  0.00    +0.002 A 
ATOM     17  C   UNL     1       5.959   1.978  10.957  0.00  0.00    +0.001 A 
ATOM     18  C   UNL     1       6.652   2.414   9.843  0.00  0.00    +0.017 A 
ATOM     19  C   UNL     1       6.000   2.509   8.638  0.00  0.00    +0.040 A 
ATOM     20  S   UNL     1       6.457   3.001   6.993  0.00  0.00    -0.067 S 
ENDBRANCH   6  12
BRANCH   1  22
ATOM     21  C   UNL     1       6.286   5.862  -1.199  0.00  0.00    +0.009 C 
ATOM     22  C   UNL     1       6.280   4.344  -1.005  0.00  0.00    +0.035 C 
ENDBRANCH   1  22
BRANCH  11  23
ATOM     23  O   UNL     1       3.511   3.993  -1.397  0.00  0.00    -0.506 OA
ATOM     24  H   UNL     1       3.242   4.900  -1.599  0.00  0.00    +0.292 HD
ENDBRANCH  11  23
BRANCH   7  25
ATOM     25  C   UNL     1       2.128   2.470   5.467  0.00  0.00    +0.376 C 
ATOM     26  O   UNL     1       1.605   3.344   6.128  0.00  0.00    -0.241 OA
BRANCH  25  27
ATOM     27  O   UNL     1       1.787   1.181   5.663  0.00  0.00    -0.459 OA
BRANCH  27  28
ATOM     28  C   UNL     1       0.788   0.911   6.682  0.00  0.00    +0.229 C 
ATOM     29  C   UNL     1       0.534  -0.595   6.760  0.00  0.00    +0.048 C 
ENDBRANCH  27  28
ENDBRANCH  25  27
ENDBRANCH   7  25
BRANCH  10  30
ATOM     30  C   UNL     1       1.639   3.325   0.596  0.00  0.00    -0.035 C 
BRANCH  30  37
ATOM     31  C   UNL     1       2.108   1.532  -0.961  0.00  0.00    -0.078 C 
ATOM     32  C   UNL     1       1.918   0.034  -1.213  0.00  0.00    -0.019 C 
ATOM     33  C   UNL     1       0.426  -0.263  -1.388  0.00  0.00    -0.003 C 
ATOM     34  C   UNL     1      -0.329   0.199  -0.139  0.00  0.00    -0.016 C 
ATOM     35  C   UNL     1      -0.073   1.692   0.082  0.00  0.00    -0.071 C 
ATOM     36  C   UNL     1      -0.809   2.155   1.341  0.00  0.00    -0.013 C 
ATOM     37  N   UNL     1       1.377   1.908   0.268  0.00  0.00    +0.384 N 
ATOM     38  H   UNL     1       1.705   1.321   1.044  0.00  0.00    -0.081 HD
ENDBRANCH  30  37
ENDBRANCH  10  30
TORSDOF 8
