REMARK  Name = ZINC36207858
REMARK  13 active torsions:
REMARK  status: ('A' for Active; 'I' for Inactive)
REMARK    1  A    between atoms: C_1  and  O_2
REMARK    2  A    between atoms: O_2  and  C_3
REMARK    3  A    between atoms: C_6  and  C_9
REMARK    4  A    between atoms: C_18  and  C_20
REMARK    5  A    between atoms: C_20  and  N_21
REMARK    6  A    between atoms: N_21  and  C_22
REMARK    7  A    between atoms: N_21  and  C_31
REMARK    8  A    between atoms: C_22  and  C_23
REMARK    9  A    between atoms: C_23  and  C_25
REMARK   10  A    between atoms: C_23  and  O_30
REMARK   11  A    between atoms: C_25  and  O_26
REMARK   12  A    between atoms: O_26  and  C_27
REMARK   13  A    between atoms: C_27  and  C_28
REMARK                            x       y       z     vdW  Elec       q    Type
REMARK                         _______ _______ _______ _____ _____    ______ ____
ROOT
ATOM      1  C   UNL     1       1.570  -3.386  -5.448  0.00  0.00    +0.004 A 
ATOM      2  C   UNL     1       1.294  -3.345  -6.774  0.00  0.00    +0.056 A 
ATOM      3  S   UNL     1       2.562  -4.372  -7.492  0.00  0.00    -0.076 S 
ATOM      4  C   UNL     1       3.425  -4.828  -6.010  0.00  0.00    +0.116 A 
ATOM      5  C   UNL     1       2.713  -4.169  -4.994  0.00  0.00    +0.080 A 
ATOM      6  C   UNL     1       3.207  -4.363  -3.665  0.00  0.00    +0.260 A 
ATOM      7  O   UNL     1       2.653  -3.836  -2.715  0.00  0.00    -0.267 OA
ATOM      8  N   UNL     1       4.292  -5.138  -3.479  0.00  0.00    -0.312 N 
ATOM      9  H   UNL     1       4.631  -5.273  -2.580  0.00  0.00    +0.170 HD
ATOM     10  C   UNL     1       4.921  -5.734  -4.524  0.00  0.00    +0.094 A 
ATOM     11  N   UNL     1       4.488  -5.583  -5.747  0.00  0.00    -0.229 NA
ENDROOT
BRANCH   1  15
ATOM     12  C   UNL     1      -0.843  -1.259  -2.666  0.00  0.00    +0.120 A 
ATOM     13  C   UNL     1      -0.351  -0.613  -3.792  0.00  0.00    +0.046 A 
ATOM     14  C   UNL     1       0.431  -1.300  -4.697  0.00  0.00    +0.012 A 
ATOM     15  C   UNL     1       0.729  -2.644  -4.478  0.00  0.00    -0.016 A 
ATOM     16  C   UNL     1       0.234  -3.290  -3.346  0.00  0.00    +0.012 A 
ATOM     17  C   UNL     1      -0.544  -2.596  -2.443  0.00  0.00    +0.046 A 
BRANCH  12  19
ATOM     18  C   UNL     1      -1.883   0.794  -2.069  0.00  0.00    +0.277 C 
ATOM     19  O   UNL     1      -1.614  -0.579  -1.777  0.00  0.00    -0.495 OA
ENDBRANCH  12  19
ENDBRANCH   1  15
BRANCH  10  20
ATOM     20  C   UNL     1       6.132  -6.593  -4.268  0.00  0.00    -0.003 C 
BRANCH  20  21
ATOM     21  N   UNL     1       6.728  -6.994  -5.549  0.00  0.00    +0.388 N 
ATOM     22  H   UNL     1       5.996  -7.162  -6.222  0.00  0.00    -0.081 HD
BRANCH  21  23
ATOM     23  C   UNL     1       7.606  -5.923  -6.037  0.00  0.00    -0.068 C 
ATOM     24  C   UNL     1       8.763  -5.724  -5.056  0.00  0.00    -0.015 C 
ATOM     25  C   UNL     1       9.678  -4.608  -5.565  0.00  0.00    -0.002 C 
ATOM     26  C   UNL     1       8.880  -3.308  -5.682  0.00  0.00    -0.000 C 
ATOM     27  C   UNL     1       7.722  -3.506  -6.663  0.00  0.00    -0.002 C 
ATOM     28  C   UNL     1       6.808  -4.622  -6.154  0.00  0.00    -0.015 C 
ENDBRANCH  21  23
BRANCH  21  29
ATOM     29  C   UNL     1       7.512  -8.222  -5.361  0.00  0.00    -0.044 C 
BRANCH  29  30
ATOM     30  C   UNL     1       7.983  -8.739  -6.722  0.00  0.00    +0.124 C 
BRANCH  30  31
ATOM     31  O   UNL     1       8.932  -7.826  -7.276  0.00  0.00    -0.391 OA
ATOM     32  H   UNL     1       9.754  -7.758  -6.771  0.00  0.00    +0.210 HD
ENDBRANCH  30  31
BRANCH  30  33
ATOM     33  C   UNL     1       8.638 -10.111  -6.547  0.00  0.00    +0.189 C 
BRANCH  33  34
ATOM     34  O   UNL     1       8.974 -10.646  -7.829  0.00  0.00    -0.373 OA
BRANCH  34  35
ATOM     35  C   UNL     1       9.595 -11.932  -7.778  0.00  0.00    +0.186 C 
BRANCH  35  36
ATOM     36  C   UNL     1       9.903 -12.396  -9.178  0.00  0.00    -0.007 C 
ATOM     37  C   UNL     1      11.069 -12.927  -9.450  0.00  0.00    +0.006 C 
ENDBRANCH  35  36
ENDBRANCH  34  35
ENDBRANCH  33  34
ENDBRANCH  30  33
ENDBRANCH  29  30
ENDBRANCH  21  29
ENDBRANCH  20  21
ENDBRANCH  10  20
TORSDOF 12
