REMARK  Name = ZINC01296524
REMARK  7 active torsions:
REMARK  status: ('A' for Active; 'I' for Inactive)
REMARK    1  A    between atoms: C_1  and  C_2
REMARK    2  A    between atoms: C_3  and  C_32
REMARK    3  A    between atoms: C_4  and  C_24
REMARK    4  A    between atoms: C_10  and  C_11
REMARK    5  A    between atoms: C_28  and  O_30
REMARK    6  A    between atoms: O_30  and  C_31
REMARK    7  A    between atoms: N_34  and  C_35
REMARK                            x       y       z     vdW  Elec       q    Type
REMARK                         _______ _______ _______ _____ _____    ______ ____
ROOT
ATOM      1  C   UNL     1      -0.343   0.674   2.502  0.00  0.00    +0.066 C 
ATOM      2  C   UNL     1      -0.170  -0.399   1.459  0.00  0.00    +0.051 C 
ATOM      3  C   UNL     1      -1.217  -0.728   0.645  0.00  0.00    +0.063 C 
ATOM      4  C   UNL     1      -1.004  -1.809  -0.390  0.00  0.00    +0.160 C 
ATOM      5  N   UNL     1       0.343  -2.440  -0.444  0.00  0.00    -0.275 N 
ATOM      6  C   UNL     1       0.736  -3.408  -1.281  0.00  0.00    +0.268 A 
ATOM      7  O   UNL     1      -0.039  -3.862  -2.103  0.00  0.00    -0.266 OA
ATOM      8  C   UNL     1       2.066  -3.901  -1.200  0.00  0.00    +0.081 A 
ATOM      9  C   UNL     1       2.675  -4.869  -1.940  0.00  0.00    +0.030 C 
ATOM     10  S   UNL     1       2.725  -2.910   0.132  0.00  0.00    -0.046 S 
ATOM     11  C   UNL     1       1.256  -1.959   0.468  0.00  0.00    +0.178 A 
ATOM     12  N   UNL     1       1.001  -1.014   1.334  0.00  0.00    -0.228 NA
ENDROOT
BRANCH   9  13
ATOM     13  C   UNL     1       4.068  -5.226  -1.674  0.00  0.00    +0.001 A 
ATOM     14  C   UNL     1       4.982  -4.489  -0.972  0.00  0.00    +0.091 A 
ATOM     15  N   UNL     1       6.169  -5.146  -0.937  0.00  0.00    -0.360 N 
ATOM     16  H   UNL     1       6.969  -4.821  -0.496  0.00  0.00    +0.165 HD
ATOM     17  C   UNL     1       6.076  -6.344  -1.617  0.00  0.00    +0.047 A 
ATOM     18  C   UNL     1       4.763  -6.454  -2.103  0.00  0.00    +0.007 A 
ATOM     19  C   UNL     1       4.380  -7.577  -2.831  0.00  0.00    +0.010 A 
ATOM     20  C   UNL     1       5.294  -8.581  -3.069  0.00  0.00    +0.001 A 
ATOM     21  C   UNL     1       6.591  -8.475  -2.587  0.00  0.00    +0.002 A 
ATOM     22  C   UNL     1       6.986  -7.365  -1.871  0.00  0.00    +0.026 A 
ENDBRANCH   9  13
BRANCH   4  23
ATOM     23  C   UNL     1      -2.015  -2.898  -0.137  0.00  0.00    -0.016 A 
ATOM     24  C   UNL     1      -1.858  -3.751   0.940  0.00  0.00    +0.006 A 
ATOM     25  C   UNL     1      -2.784  -4.750   1.174  0.00  0.00    +0.004 A 
ATOM     26  C   UNL     1      -3.868  -4.901   0.332  0.00  0.00    +0.045 A 
ATOM     27  C   UNL     1      -4.028  -4.047  -0.750  0.00  0.00    +0.120 A 
ATOM     28  C   UNL     1      -3.101  -3.040  -0.979  0.00  0.00    +0.051 A 
BRANCH  27  29
ATOM     29  O   UNL     1      -5.094  -4.192  -1.580  0.00  0.00    -0.495 OA
ATOM     30  C   UNL     1      -6.011  -5.246  -1.280  0.00  0.00    +0.277 C 
ENDBRANCH  27  29
ENDBRANCH   4  23
BRANCH   3  31
ATOM     31  C   UNL     1      -2.459  -0.079   0.767  0.00  0.00    +0.248 C 
ATOM     32  O   UNL     1      -2.776   0.785  -0.032  0.00  0.00    -0.270 OA
ATOM     33  N   UNL     1      -3.298  -0.412   1.768  0.00  0.00    -0.282 N 
ATOM     34  H   UNL     1      -3.006  -1.025   2.462  0.00  0.00    +0.155 HD
BRANCH  33  35
ATOM     35  C   UNL     1      -4.588   0.126   1.807  0.00  0.00    +0.034 A 
ATOM     36  C   UNL     1      -5.267   0.391   0.625  0.00  0.00    +0.023 A 
ATOM     37  C   UNL     1      -6.542   0.921   0.667  0.00  0.00    +0.002 A 
ATOM     38  C   UNL     1      -7.141   1.189   1.884  0.00  0.00    +0.000 A 
ATOM     39  C   UNL     1      -6.467   0.927   3.063  0.00  0.00    +0.002 A 
ATOM     40  C   UNL     1      -5.195   0.391   3.028  0.00  0.00    +0.023 A 
ENDBRANCH  33  35
ENDBRANCH   3  31
TORSDOF 5
