REMARK  Name = ZINC23126474
REMARK  10 active torsions:
REMARK  status: ('A' for Active; 'I' for Inactive)
REMARK    1  A    between atoms: C_1  and  C_2
REMARK    2  A    between atoms: C_2  and  C_3
REMARK    3  A    between atoms: C_2  and  C_4
REMARK    4  A    between atoms: C_2  and  C_5
REMARK    5  A    between atoms: C_18  and  C_20
REMARK    6  A    between atoms: C_20  and  C_21
REMARK    7  A    between atoms: C_21  and  C_22
REMARK    8  A    between atoms: N_24  and  C_25
REMARK    9  A    between atoms: C_25  and  C_26
REMARK   10  A    between atoms: C_26  and  C_27
REMARK                            x       y       z     vdW  Elec       q    Type
REMARK                         _______ _______ _______ _____ _____    ______ ____
ROOT
ATOM      1  C   UNL     1       3.644  -1.881   7.697  0.00  0.00    -0.000 C 
ATOM      2  C   UNL     1       3.107  -0.495   8.068  0.00  0.00    +0.009 C 
ATOM      3  C   UNL     1       1.850  -0.189   7.252  0.00  0.00    +0.037 C 
ATOM      4  C   UNL     1       2.159  -0.402   5.773  0.00  0.00    -0.023 A 
ATOM      5  C   UNL     1       3.225  -1.135   5.390  0.00  0.00    -0.004 A 
ATOM      6  S   UNL     1       3.188  -1.109   3.618  0.00  0.00    -0.073 S 
ATOM      7  C   UNL     1       1.736  -0.112   3.397  0.00  0.00    +0.116 A 
ATOM      8  C   UNL     1       1.330   0.168   4.712  0.00  0.00    +0.075 A 
ATOM      9  C   UNL     1       0.153   0.977   4.838  0.00  0.00    +0.260 A 
ATOM     10  O   UNL     1      -0.278   1.276   5.938  0.00  0.00    -0.267 OA
ATOM     11  N   UNL     1      -0.464   1.407   3.721  0.00  0.00    -0.310 N 
ATOM     12  H   UNL     1      -1.363   2.036   3.797  0.00  0.00    +0.170 HD
ATOM     13  C   UNL     1       0.000   1.080   2.488  0.00  0.00    +0.111 A 
ATOM     14  N   UNL     1       1.070   0.345   2.340  0.00  0.00    -0.227 NA
ATOM     15  C   UNL     1       4.221  -1.821   6.275  0.00  0.00    +0.046 C 
ENDROOT
BRANCH   1  17
ATOM     16  C   UNL     1       5.874  -1.255   8.633  0.00  0.00    +0.011 C 
ATOM     17  C   UNL     1       4.744  -2.285   8.680  0.00  0.00    -0.035 C 
ATOM     18  C   UNL     1       4.166  -2.344  10.096  0.00  0.00    +0.011 C 
ATOM     19  C   UNL     1       5.291  -3.661   8.295  0.00  0.00    +0.011 C 
ENDBRANCH   1  17
BRANCH  13  20
ATOM     20  C   UNL     1      -0.729   1.579   1.267  0.00  0.00    +0.083 C 
BRANCH  20  21
ATOM     21  C   UNL     1      -0.013   1.086   0.008  0.00  0.00    +0.103 C 
BRANCH  21  22
ATOM     22  C   UNL     1      -0.742   1.585  -1.213  0.00  0.00    +0.213 C 
ATOM     23  O   UNL     1      -1.736   2.268  -1.088  0.00  0.00    -0.276 OA
ATOM     24  N   UNL     1      -0.288   1.272  -2.443  0.00  0.00    -0.315 N 
ATOM     25  H   UNL     1       0.614   0.653  -2.556  0.00  0.00    +0.149 HD
BRANCH  24  26
ATOM     26  C   UNL     1      -0.997   1.758  -3.630  0.00  0.00    +0.109 C 
BRANCH  26  27
ATOM     27  C   UNL     1      -0.281   1.264  -4.889  0.00  0.00    +0.056 C 
BRANCH  27  28
ATOM     28  C   UNL     1      -1.010   1.763  -6.110  0.00  0.00    -0.021 A 
ATOM     29  C   UNL     1      -1.938   1.096  -6.814  0.00  0.00    +0.087 A 
ATOM     30  N   UNL     1      -2.378   1.869  -7.854  0.00  0.00    -0.360 N 
ATOM     31  H   UNL     1      -3.148   1.483  -8.538  0.00  0.00    +0.165 HD
ATOM     32  C   UNL     1      -1.721   3.079  -7.850  0.00  0.00    +0.047 A 
ATOM     33  C   UNL     1      -0.836   3.066  -6.757  0.00  0.00    +0.003 A 
ATOM     34  C   UNL     1      -0.029   4.176  -6.501  0.00  0.00    +0.010 A 
ATOM     35  C   UNL     1      -0.104   5.271  -7.315  0.00  0.00    +0.001 A 
ATOM     36  C   UNL     1      -0.976   5.289  -8.395  0.00  0.00    +0.002 A 
ATOM     37  C   UNL     1      -1.781   4.204  -8.665  0.00  0.00    +0.026 A 
ENDBRANCH  27  28
ENDBRANCH  26  27
ENDBRANCH  24  26
ENDBRANCH  21  22
ENDBRANCH  20  21
ENDBRANCH  13  20
TORSDOF 7
