REMARK  Name = ZINC36597453
REMARK  15 active torsions:
REMARK  status: ('A' for Active; 'I' for Inactive)
REMARK    1  A    between atoms: C_1  and  C_2
REMARK    2  A    between atoms: C_5  and  C_9
REMARK    3  A    between atoms: C_6  and  C_8
REMARK    4  A    between atoms: C_9  and  C_11
REMARK    5  A    between atoms: C_9  and  N_18
REMARK    6  A    between atoms: N_13  and  C_14
REMARK    7  A    between atoms: C_14  and  C_15
REMARK    8  A    between atoms: C_14  and  C_16
REMARK    9  A    between atoms: C_14  and  C_17
REMARK   10  A    between atoms: N_18  and  C_19
REMARK   11  A    between atoms: C_19  and  C_20
REMARK   12  A    between atoms: C_23  and  C_25
REMARK   13  A    between atoms: C_26  and  C_28
REMARK   14  A    between atoms: C_29  and  O_35
REMARK   15  A    between atoms: C_33  and  O_34
REMARK                            x       y       z     vdW  Elec       q    Type
REMARK                         _______ _______ _______ _____ _____    ______ ____
ROOT
ATOM      1  N   UNL     1      -0.635  -4.702  -1.424  0.00  0.00    -0.274 N 
ATOM      2  C   UNL     1      -1.898  -5.112  -1.653  0.00  0.00    +0.255 C 
ATOM      3  O   UNL     1      -2.348  -5.096  -2.783  0.00  0.00    -0.270 OA
ENDROOT
BRANCH   2   4
ATOM      4  C   UNL     1      -2.734  -5.582  -0.535  0.00  0.00    +0.119 A 
ATOM      5  C   UNL     1      -3.687  -4.729   0.041  0.00  0.00    +0.133 A 
ATOM      6  C   UNL     1      -4.468  -5.181   1.092  0.00  0.00    +0.046 A 
ATOM      7  C   UNL     1      -4.311  -6.468   1.573  0.00  0.00    +0.007 A 
ATOM      8  C   UNL     1      -3.375  -7.316   1.013  0.00  0.00    +0.046 A 
ATOM      9  C   UNL     1      -2.587  -6.887  -0.043  0.00  0.00    +0.133 A 
BRANCH   9  10
ATOM     10  O   UNL     1      -1.673  -7.724  -0.595  0.00  0.00    -0.506 OA
ATOM     11  H   UNL     1      -0.825  -7.740  -0.132  0.00  0.00    +0.292 HD
ENDBRANCH   9  10
BRANCH   5  12
ATOM     12  O   UNL     1      -3.842  -3.466  -0.428  0.00  0.00    -0.506 OA
ATOM     13  H   UNL     1      -4.493  -3.388  -1.139  0.00  0.00    +0.292 HD
ENDBRANCH   5  12
ENDBRANCH   2   4
BRANCH   1  14
ATOM     14  C   UNL     1      -0.060  -4.817  -0.082  0.00  0.00    +0.193 C 
BRANCH  14  19
ATOM     15  C   UNL     1       2.166   0.276   1.500  0.00  0.00    +0.044 C 
ATOM     16  C   UNL     1       1.585  -1.052   1.088  0.00  0.00    -0.050 A 
ATOM     17  C   UNL     1       2.328  -1.919   0.308  0.00  0.00    +0.004 A 
ATOM     18  C   UNL     1       1.796  -3.137  -0.070  0.00  0.00    +0.006 A 
ATOM     19  C   UNL     1       0.521  -3.489   0.332  0.00  0.00    -0.015 A 
ATOM     20  C   UNL     1      -0.222  -2.623   1.111  0.00  0.00    -0.045 A 
ATOM     21  C   UNL     1       0.312  -1.406   1.493  0.00  0.00    +0.007 A 
ATOM     22  C   UNL     1      -1.612  -3.006   1.549  0.00  0.00    +0.044 C 
ENDBRANCH  14  19
BRANCH  14  23
ATOM     23  C   UNL     1       1.028  -5.860  -0.089  0.00  0.00    +0.239 C 
ATOM     24  O   UNL     1       1.278  -6.468  -1.109  0.00  0.00    -0.273 OA
ATOM     25  N   UNL     1       1.723  -6.117   1.036  0.00  0.00    -0.309 N 
ATOM     26  H   UNL     1       1.476  -5.684   1.868  0.00  0.00    +0.149 HD
BRANCH  25  27
ATOM     27  C   UNL     1       2.851  -7.051   1.003  0.00  0.00    +0.026 C 
ATOM     28  C   UNL     1       3.909  -6.538   0.025  0.00  0.00    +0.031 C 
ATOM     29  C   UNL     1       3.461  -7.164   2.402  0.00  0.00    +0.031 C 
ATOM     30  C   UNL     1       2.361  -8.428   0.549  0.00  0.00    +0.031 C 
ENDBRANCH  25  27
ENDBRANCH  14  23
ENDBRANCH   1  14
BRANCH   1  31
ATOM     31  C   UNL     1       0.162  -4.140  -2.517  0.00  0.00    +0.183 C 
BRANCH  31  32
ATOM     32  C   UNL     1       0.896  -5.249  -3.225  0.00  0.00    +0.122 A 
ATOM     33  C   UNL     1       0.392  -6.031  -4.197  0.00  0.00    +0.046 A 
ATOM     34  C   UNL     1       1.416  -6.930  -4.572  0.00  0.00    +0.045 A 
ATOM     35  C   UNL     1       2.485  -6.645  -3.807  0.00  0.00    +0.102 A 
ATOM     36  O   UNL     1       2.166  -5.622  -2.997  0.00  0.00    -0.463 OA
ATOM     37  C   UNL     1       3.817  -7.349  -3.854  0.00  0.00    +0.086 C 
ENDBRANCH  31  32
ENDBRANCH   1  31
TORSDOF 9
