REMARK  Name = ZINC15936420
REMARK  10 active torsions:
REMARK  status: ('A' for Active; 'I' for Inactive)
REMARK    1  A    between atoms: C_1  and  C_2
REMARK    2  A    between atoms: C_2  and  N_3
REMARK    3  A    between atoms: C_5  and  C_12
REMARK    4  A    between atoms: C_13  and  C_14
REMARK    5  A    between atoms: C_13  and  N_25
REMARK    6  A    between atoms: N_16  and  C_17
REMARK    7  A    between atoms: C_17  and  C_18
REMARK    8  A    between atoms: C_18  and  C_19
REMARK    9  A    between atoms: C_19  and  N_20
REMARK   10  A    between atoms: C_26  and  C_28
REMARK                            x       y       z     vdW  Elec       q    Type
REMARK                         _______ _______ _______ _____ _____    ______ ____
ROOT
ATOM      1  C   UNL     1       0.711  -1.967  -4.519  0.00  0.00    +0.038 C 
ATOM      2  C   UNL     1      -0.531  -1.876  -5.059  0.00  0.00    +0.097 C 
ENDROOT
BRANCH   1   5
ATOM      3  N   UNL     1       0.559  -1.094  -0.980  0.00  0.00    -0.346 N 
ATOM      4  C   UNL     1      -0.027  -1.441  -2.155  0.00  0.00    +0.094 A 
ATOM      5  C   UNL     1       0.929  -1.596  -3.118  0.00  0.00    +0.002 A 
ATOM      6  C   UNL     1       2.224  -1.319  -2.469  0.00  0.00    +0.007 A 
ATOM      7  C   UNL     1       1.928  -1.005  -1.133  0.00  0.00    +0.050 A 
ATOM      8  C   UNL     1       2.964  -0.689  -0.261  0.00  0.00    +0.026 A 
ATOM      9  C   UNL     1       4.266  -0.682  -0.713  0.00  0.00    +0.002 A 
ATOM     10  C   UNL     1       4.556  -0.989  -2.034  0.00  0.00    +0.001 A 
ATOM     11  C   UNL     1       3.544  -1.312  -2.912  0.00  0.00    +0.010 A 
BRANCH   3  13
ATOM     12  C   UNL     1      -0.361   0.662   0.453  0.00  0.00    +0.027 C 
ATOM     13  C   UNL     1      -0.160  -0.844   0.272  0.00  0.00    +0.118 C 
ENDBRANCH   3  13
ENDBRANCH   1   5
BRANCH   2  14
ATOM     14  C   UNL     1      -0.766  -2.327  -6.432  0.00  0.00    +0.258 C 
ATOM     15  O   UNL     1      -1.880  -2.245  -6.917  0.00  0.00    -0.269 OA
ATOM     16  N   UNL     1       0.250  -2.833  -7.159  0.00  0.00    -0.310 N 
ATOM     17  H   UNL     1       1.137  -2.897  -6.772  0.00  0.00    +0.149 HD
BRANCH  16  18
ATOM     18  C   UNL     1       0.014  -3.284  -8.532  0.00  0.00    +0.106 C 
BRANCH  18  19
ATOM     19  C   UNL     1       1.322  -3.809  -9.128  0.00  0.00    +0.040 C 
BRANCH  19  20
ATOM     20  C   UNL     1       1.075  -4.281 -10.562  0.00  0.00    +0.124 C 
BRANCH  20  21
ATOM     21  N   UNL     1       2.328  -4.784 -11.133  0.00  0.00    -0.338 N 
ATOM     22  C   UNL     1       3.261  -4.052 -11.816  0.00  0.00    +0.104 A 
ATOM     23  C   UNL     1       4.248  -4.902 -12.159  0.00  0.00    +0.101 A 
ATOM     24  N   UNL     1       3.926  -6.119 -11.697  0.00  0.00    -0.352 N 
ATOM     25  C   UNL     1       2.780  -6.055 -11.077  0.00  0.00    +0.173 A 
ATOM     26  H   UNL     1       4.463  -6.920 -11.805  0.00  0.00    +0.166 HD
ENDBRANCH  20  21
ENDBRANCH  19  20
ENDBRANCH  18  19
ENDBRANCH  16  18
ENDBRANCH   2  14
BRANCH   2  27
ATOM     27  N   UNL     1      -1.588  -1.350  -4.303  0.00  0.00    -0.277 N 
ATOM     28  C   UNL     1      -2.689  -2.094  -4.074  0.00  0.00    +0.251 C 
ATOM     29  O   UNL     1      -2.729  -3.250  -4.448  0.00  0.00    -0.270 OA
ATOM     30  H   UNL     1      -1.528  -0.450  -3.944  0.00  0.00    +0.155 HD
BRANCH  28  31
ATOM     31  C   UNL     1      -3.845  -1.504  -3.370  0.00  0.00    +0.072 A 
ATOM     32  C   UNL     1      -3.850  -0.146  -3.044  0.00  0.00    +0.016 A 
ATOM     33  C   UNL     1      -4.934   0.398  -2.387  0.00  0.00    +0.001 A 
ATOM     34  C   UNL     1      -6.016  -0.397  -2.049  0.00  0.00    +0.003 A 
ATOM     35  C   UNL     1      -6.020  -1.742  -2.368  0.00  0.00    +0.039 A 
ATOM     36  C   UNL     1      -4.943  -2.301  -3.032  0.00  0.00    +0.135 A 
ATOM     37  F   UNL     1      -4.950  -3.615  -3.348  0.00  0.00    -0.205 F 
ENDBRANCH  28  31
ENDBRANCH   2  27
TORSDOF 9
