REMARK  Name = ZINC44990545
REMARK  7 active torsions:
REMARK  status: ('A' for Active; 'I' for Inactive)
REMARK    1  A    between atoms: C_1  and  C_2
REMARK    2  A    between atoms: C_7  and  C_8
REMARK    3  A    between atoms: C_12  and  N_14
REMARK    4  A    between atoms: N_14  and  C_15
REMARK    5  A    between atoms: C_15  and  C_16
REMARK    6  A    between atoms: C_16  and  C_17
REMARK    7  A    between atoms: N_19  and  C_20
REMARK                            x       y       z     vdW  Elec       q    Type
REMARK                         _______ _______ _______ _____ _____    ______ ____
ROOT
ATOM      1  C   UNL     1      -0.018   1.503   0.010  0.00  0.00    +0.044 C 
ATOM      2  C   UNL     1       0.002  -0.004   0.002  0.00  0.00    -0.046 A 
ATOM      3  C   UNL     1       0.006  -0.685  -1.202  0.00  0.00    +0.004 A 
ATOM      4  C   UNL     1       0.024  -2.069  -1.210  0.00  0.00    +0.004 A 
ATOM      5  C   UNL     1       0.039  -2.762  -0.020  0.00  0.00    -0.031 A 
ATOM      6  C   UNL     1       0.036  -2.090   1.195  0.00  0.00    +0.039 A 
ATOM      7  C   UNL     1       0.023  -0.696   1.195  0.00  0.00    -0.026 A 
ATOM      8  C   UNL     1       0.025   0.056   2.501  0.00  0.00    +0.046 C 
ATOM      9  N   UNL     1       0.053  -3.002   2.251  0.00  0.00    -0.286 N 
ATOM     10  C   UNL     1       0.069  -4.275   1.823  0.00  0.00    +0.208 C 
ATOM     11  O   UNL     1       0.086  -5.269   2.518  0.00  0.00    -0.277 OA
ATOM     12  C   UNL     1       0.061  -4.237   0.310  0.00  0.00    +0.049 C 
ATOM     13  H   UNL     1       0.055  -2.746   3.187  0.00  0.00    +0.155 HD
ENDROOT
BRANCH  12  14
ATOM     14  N   UNL     1      -1.140  -4.900  -0.216  0.00  0.00    +0.390 N 
ATOM     15  H   UNL     1      -1.956  -4.541   0.256  0.00  0.00    -0.084 HD
ATOM     16  H   UNL     1      -1.218  -4.719  -1.206  0.00  0.00    -0.084 HD
BRANCH  14  17
ATOM     17  C   UNL     1      -1.040  -6.347   0.011  0.00  0.00    -0.072 C 
BRANCH  17  18
ATOM     18  C   UNL     1      -2.291  -7.038  -0.536  0.00  0.00    +0.077 C 
BRANCH  18  19
ATOM     19  C   UNL     1      -2.188  -8.523  -0.303  0.00  0.00    +0.211 C 
ATOM     20  O   UNL     1      -1.210  -8.984   0.247  0.00  0.00    -0.276 OA
ATOM     21  N   UNL     1      -3.182  -9.339  -0.706  0.00  0.00    -0.318 N 
ATOM     22  C   UNL     1      -3.082 -10.783  -0.479  0.00  0.00    +0.128 C 
ATOM     23  H   UNL     1      -3.964  -8.970  -1.145  0.00  0.00    +0.148 HD
ENDBRANCH  18  19
ENDBRANCH  17  18
ENDBRANCH  14  17
ENDBRANCH  12  14
TORSDOF 4
