REMARK  Name = ZINC64623244
REMARK  9 active torsions:
REMARK  status: ('A' for Active; 'I' for Inactive)
REMARK    1  A    between atoms: C_1  and  C_2
REMARK    2  A    between atoms: C_2  and  O_3
REMARK    3  A    between atoms: O_3  and  C_4
REMARK    4  A    between atoms: C_4  and  C_6
REMARK    5  A    between atoms: C_9  and  N_12
REMARK    6  A    between atoms: C_21  and  O_37
REMARK    7  A    between atoms: C_28  and  C_30
REMARK    8  A    between atoms: C_33  and  C_36
REMARK    9  A    between atoms: O_37  and  C_38
REMARK                            x       y       z     vdW  Elec       q    Type
REMARK                         _______ _______ _______ _____ _____    ______ ____
ROOT
ATOM      1  N   UNL     1       3.483  -4.344   5.116  0.00  0.00    -0.269 N 
ATOM      2  C   UNL     1       3.464  -5.596   5.615  0.00  0.00    +0.307 C 
ATOM      3  O   UNL     1       2.899  -6.484   5.007  0.00  0.00    -0.252 OA
ATOM      4  N   UNL     1       4.072  -5.863   6.788  0.00  0.00    -0.276 N 
ATOM      5  C   UNL     1       4.614  -4.762   7.591  0.00  0.00    +0.114 C 
ATOM      6  C   UNL     1       3.969  -4.780   8.989  0.00  0.00    +0.052 C 
ATOM      7  C   UNL     1       3.993  -6.214   9.458  0.00  0.00    -0.035 C 
ATOM      8  C   UNL     1       4.438  -6.762  10.581  0.00  0.00    +0.003 A 
ATOM      9  C   UNL     1       4.969  -6.173  11.820  0.00  0.00    +0.055 A 
ATOM     10  C   UNL     1       5.363  -7.042  12.790  0.00  0.00    +0.121 A 
ATOM     11  C   UNL     1       5.290  -8.438  12.670  0.00  0.00    +0.047 A 
ATOM     12  C   UNL     1       4.811  -9.086  11.577  0.00  0.00    +0.029 A 
ATOM     13  C   UNL     1       4.345  -8.250  10.462  0.00  0.00    +0.043 A 
ATOM     14  N   UNL     1       3.825  -8.584   9.319  0.00  0.00    -0.375 N 
ATOM     15  C   UNL     1       3.468  -7.360   8.601  0.00  0.00    +0.131 C 
ATOM     16  C   UNL     1       4.178  -7.255   7.253  0.00  0.00    +0.134 C 
ATOM     17  H   UNL     1       4.011  -3.656   5.552  0.00  0.00    +0.156 HD
ATOM     18  H   UNL     1       3.695  -9.489   8.997  0.00  0.00    +0.160 HD
ENDROOT
BRANCH  16  19
ATOM     19  C   UNL     1       5.628  -7.630   7.414  0.00  0.00    -0.025 A 
ATOM     20  C   UNL     1       6.202  -8.556   6.563  0.00  0.00    +0.006 A 
ATOM     21  C   UNL     1       7.532  -8.900   6.710  0.00  0.00    +0.004 A 
ATOM     22  C   UNL     1       8.290  -8.318   7.709  0.00  0.00    -0.050 A 
ATOM     23  C   UNL     1       7.717  -7.391   8.560  0.00  0.00    +0.004 A 
ATOM     24  C   UNL     1       6.387  -7.044   8.410  0.00  0.00    +0.006 A 
ATOM     25  C   UNL     1       9.740  -8.694   7.871  0.00  0.00    +0.044 C 
ENDBRANCH  16  19
BRANCH   1  29
ATOM     26  C   UNL     1       1.277  -3.429   1.704  0.00  0.00    +0.059 A 
ATOM     27  C   UNL     1       1.476  -2.458   2.690  0.00  0.00    +0.017 A 
ATOM     28  C   UNL     1       2.206  -2.764   3.817  0.00  0.00    +0.024 A 
ATOM     29  C   UNL     1       2.745  -4.038   3.974  0.00  0.00    +0.035 A 
ATOM     30  C   UNL     1       2.548  -5.006   2.994  0.00  0.00    +0.024 A 
ATOM     31  C   UNL     1       1.815  -4.709   1.868  0.00  0.00    +0.017 A 
BRANCH  26  32
ATOM     32  C   UNL     1       0.495  -3.105   0.496  0.00  0.00    +0.339 C 
ATOM     33  O   UNL     1       0.318  -3.951  -0.358  0.00  0.00    -0.245 OA
BRANCH  32  34
ATOM     34  O   UNL     1      -0.023  -1.871   0.340  0.00  0.00    -0.461 OA
BRANCH  34  36
ATOM     35  C   UNL     1      -1.274  -0.183  -0.855  0.00  0.00    +0.048 C 
ATOM     36  C   UNL     1      -0.769  -1.627  -0.855  0.00  0.00    +0.229 C 
ENDBRANCH  34  36
ENDBRANCH  32  34
ENDBRANCH  26  32
ENDBRANCH   1  29
BRANCH  10  37
ATOM     37  O   UNL     1       5.858  -6.527  13.947  0.00  0.00    -0.495 OA
ATOM     38  C   UNL     1       6.265  -7.459  14.950  0.00  0.00    +0.277 C 
ENDBRANCH  10  37
TORSDOF 6
