REMARK  Name = ZINC35065909
REMARK  11 active torsions:
REMARK  status: ('A' for Active; 'I' for Inactive)
REMARK    1  A    between atoms: C_1  and  C_2
REMARK    2  A    between atoms: C_6  and  N_8
REMARK    3  A    between atoms: C_18  and  C_19
REMARK    4  A    between atoms: C_19  and  C_21
REMARK    5  A    between atoms: C_19  and  N_22
REMARK    6  A    between atoms: N_22  and  C_23
REMARK    7  A    between atoms: C_23  and  C_24
REMARK    8  A    between atoms: C_24  and  N_25
REMARK    9  A    between atoms: N_25  and  C_26
REMARK   10  A    between atoms: N_25  and  C_27
REMARK   11  A    between atoms: N_30  and  C_31
REMARK                            x       y       z     vdW  Elec       q    Type
REMARK                         _______ _______ _______ _____ _____    ______ ____
ROOT
ATOM      1  N   UNL     1      -0.282  -6.109   1.037  0.00  0.00    -0.278 N 
ATOM      2  C   UNL     1       0.610  -7.001   0.562  0.00  0.00    +0.303 C 
ATOM      3  O   UNL     1       1.650  -6.615   0.065  0.00  0.00    -0.253 OA
ATOM      4  N   UNL     1       0.348  -8.321   0.638  0.00  0.00    -0.294 N 
ATOM      5  H   UNL     1      -0.482  -8.629   1.035  0.00  0.00    +0.151 HD
ENDROOT
BRANCH   4   6
ATOM      6  C   UNL     1       1.317  -9.290   0.122  0.00  0.00    +0.037 C 
ATOM      7  C   UNL     1       1.540  -9.043  -1.371  0.00  0.00    +0.029 C 
ATOM      8  C   UNL     1       2.552 -10.056  -1.911  0.00  0.00    -0.008 C 
ATOM      9  C   UNL     1       2.015 -11.474  -1.703  0.00  0.00    +0.007 C 
ATOM     10  C   UNL     1       1.792 -11.721  -0.210  0.00  0.00    -0.008 C 
ATOM     11  C   UNL     1       0.780 -10.708   0.330  0.00  0.00    +0.029 C 
ATOM     12  C   UNL     1       3.119 -11.563   0.537  0.00  0.00    +0.007 C 
ATOM     13  C   UNL     1       3.655 -10.146   0.329  0.00  0.00    -0.008 C 
ATOM     14  C   UNL     1       3.878  -9.899  -1.164  0.00  0.00    +0.007 C 
ATOM     15  C   UNL     1       2.643  -9.133   0.869  0.00  0.00    +0.029 C 
ENDBRANCH   4   6
BRANCH   1  16
ATOM     16  C   UNL     1       0.002  -4.674   0.955  0.00  0.00    +0.141 C 
ATOM     17  C   UNL     1      -1.082  -3.986   0.123  0.00  0.00    +0.036 C 
BRANCH  16  28
ATOM     18  N   UNL     1       1.189  -3.564   2.806  0.00  0.00    -0.263 N 
ATOM     19  C   UNL     1       1.256  -3.018   4.043  0.00  0.00    +0.266 A 
ATOM     20  O   UNL     1       2.292  -2.544   4.470  0.00  0.00    -0.267 OA
ATOM     21  C   UNL     1       0.028  -3.021   4.851  0.00  0.00    +0.065 A 
ATOM     22  C   UNL     1      -0.010  -2.484   6.137  0.00  0.00    +0.015 A 
ATOM     23  C   UNL     1      -1.188  -2.513   6.850  0.00  0.00    +0.001 A 
ATOM     24  C   UNL     1      -2.334  -3.070   6.299  0.00  0.00    +0.002 A 
ATOM     25  C   UNL     1      -2.318  -3.607   5.031  0.00  0.00    +0.028 A 
ATOM     26  C   UNL     1      -1.137  -3.589   4.288  0.00  0.00    +0.078 A 
ATOM     27  N   UNL     1      -1.077  -4.106   3.035  0.00  0.00    -0.231 NA
ATOM     28  C   UNL     1       0.021  -4.085   2.342  0.00  0.00    +0.138 A 
BRANCH  18  34
ATOM     29  C   UNL     1       3.896  -1.514  -0.751  0.00  0.00    +0.044 C 
ATOM     30  C   UNL     1       3.667  -2.605   0.263  0.00  0.00    -0.048 A 
ATOM     31  C   UNL     1       4.585  -3.631   0.392  0.00  0.00    +0.003 A 
ATOM     32  C   UNL     1       4.378  -4.635   1.321  0.00  0.00    +0.002 A 
ATOM     33  C   UNL     1       3.254  -4.615   2.122  0.00  0.00    +0.026 A 
ATOM     34  C   UNL     1       2.330  -3.586   1.995  0.00  0.00    +0.051 A 
ATOM     35  C   UNL     1       2.543  -2.577   1.065  0.00  0.00    +0.029 A 
ENDBRANCH  18  34
ENDBRANCH  16  28
ENDBRANCH   1  16
BRANCH   1  36
ATOM     36  C   UNL     1      -1.536  -6.574   1.636  0.00  0.00    +0.091 C 
BRANCH  36  37
ATOM     37  C   UNL     1      -2.609  -6.684   0.551  0.00  0.00    -0.060 C 
BRANCH  37  38
ATOM     38  N   UNL     1      -3.866  -7.150   1.152  0.00  0.00    +0.377 N 
ATOM     39  C   UNL     1      -4.927  -7.141   0.136  0.00  0.00    -0.097 C 
ATOM     40  C   UNL     1      -3.688  -8.516   1.662  0.00  0.00    -0.097 C 
ATOM     41  H   UNL     1      -4.123  -6.538   1.912  0.00  0.00    -0.083 HD
ENDBRANCH  37  38
ENDBRANCH  36  37
ENDBRANCH   1  36
TORSDOF 7
