REMARK  Name = ZINC63375655
REMARK  10 active torsions:
REMARK  status: ('A' for Active; 'I' for Inactive)
REMARK    1  A    between atoms: C_1  and  C_2
REMARK    2  A    between atoms: C_2  and  C_3
REMARK    3  A    between atoms: C_10  and  O_15
REMARK    4  A    between atoms: C_12  and  C_14
REMARK    5  A    between atoms: O_15  and  C_16
REMARK    6  A    between atoms: C_16  and  C_18
REMARK    7  A    between atoms: C_16  and  C_19
REMARK    8  A    between atoms: N_21  and  C_22
REMARK    9  A    between atoms: C_22  and  C_23
REMARK   10  A    between atoms: C_23  and  C_24
REMARK                            x       y       z     vdW  Elec       q    Type
REMARK                         _______ _______ _______ _____ _____    ______ ____
ROOT
ATOM      1  C   UNL     1       0.218   0.517   3.819  0.00  0.00    +0.255 C 
ATOM      2  C   UNL     1       0.992  -0.637   4.460  0.00  0.00    +0.062 C 
ENDROOT
BRANCH   1   3
ATOM      3  C   UNL     1       1.134   1.701   3.644  0.00  0.00    +0.254 C 
ATOM      4  O   UNL     1       1.341   2.149   2.536  0.00  0.00    -0.272 OA
ATOM      5  N   UNL     1       1.723   2.261   4.719  0.00  0.00    -0.312 N 
ATOM      6  H   UNL     1       1.557   1.903   5.605  0.00  0.00    +0.149 HD
BRANCH   5   7
ATOM      7  C   UNL     1       2.613   3.412   4.549  0.00  0.00    +0.108 C 
BRANCH   7   8
ATOM      8  C   UNL     1       3.145   3.852   5.915  0.00  0.00    +0.052 C 
BRANCH   8   9
ATOM      9  C   UNL     1       4.061   5.035   5.740  0.00  0.00    -0.040 C 
ATOM     10  C   UNL     1       3.732   6.342   5.857  0.00  0.00    -0.001 A 
ATOM     11  C   UNL     1       2.471   7.026   6.168  0.00  0.00    +0.010 A 
ATOM     12  C   UNL     1       2.452   8.378   6.214  0.00  0.00    +0.001 A 
ATOM     13  C   UNL     1       3.603   9.140   5.972  0.00  0.00    +0.002 A 
ATOM     14  C   UNL     1       4.798   8.583   5.680  0.00  0.00    +0.026 A 
ATOM     15  C   UNL     1       4.934   7.170   5.606  0.00  0.00    +0.043 A 
ATOM     16  N   UNL     1       5.965   6.404   5.344  0.00  0.00    -0.380 N 
ATOM     17  C   UNL     1       5.535   5.003   5.405  0.00  0.00    +0.144 C 
ATOM     18  H   UNL     1       6.863   6.713   5.146  0.00  0.00    +0.160 HD
ENDBRANCH   8   9
ENDBRANCH   7   8
ENDBRANCH   5   7
ENDBRANCH   1   3
BRANCH   1  19
ATOM     19  O   UNL     1      -0.279   0.106   2.543  0.00  0.00    -0.479 OA
BRANCH  19  27
ATOM     20  C   UNL     1      -1.444  -0.544   0.032  0.00  0.00    -0.027 A 
ATOM     21  C   UNL     1      -2.078  -0.907  -1.114  0.00  0.00    +0.096 A 
ATOM     22  C   UNL     1      -3.301  -1.605  -1.047  0.00  0.00    +0.337 A 
ATOM     23  O   UNL     1      -3.859  -1.924  -2.082  0.00  0.00    -0.245 OA
ATOM     24  O   UNL     1      -3.865  -1.929   0.127  0.00  0.00    -0.422 OA
ATOM     25  C   UNL     1      -3.287  -1.598   1.302  0.00  0.00    +0.143 A 
ATOM     26  C   UNL     1      -2.063  -0.905   1.308  0.00  0.00    +0.062 A 
ATOM     27  C   UNL     1      -1.457  -0.566   2.528  0.00  0.00    +0.133 A 
ATOM     28  C   UNL     1      -2.072  -0.923   3.715  0.00  0.00    +0.050 A 
ATOM     29  C   UNL     1      -3.274  -1.610   3.700  0.00  0.00    -0.043 A 
ATOM     30  C   UNL     1      -3.884  -1.940   2.506  0.00  0.00    +0.050 A 
ATOM     31  C   UNL     1      -3.930  -1.992   5.002  0.00  0.00    +0.044 C 
BRANCH  20  33
ATOM     32  C   UNL     1      -0.402   1.705   0.109  0.00  0.00    +0.009 C 
ATOM     33  C   UNL     1      -0.136   0.203  -0.010  0.00  0.00    +0.033 C 
ENDBRANCH  20  33
ENDBRANCH  19  27
ENDBRANCH   1  19
TORSDOF 7
