REMARK  Name = ZINC14472850
REMARK  7 active torsions:
REMARK  status: ('A' for Active; 'I' for Inactive)
REMARK    1  A    between atoms: C_1  and  C_2
REMARK    2  A    between atoms: C_4  and  C_38
REMARK    3  A    between atoms: C_6  and  N_8
REMARK    4  A    between atoms: N_8  and  S_9
REMARK    5  A    between atoms: S_9  and  C_12
REMARK    6  A    between atoms: C_25  and  C_28
REMARK    7  A    between atoms: C_30  and  N_35
REMARK                            x       y       z     vdW  Elec       q    Type
REMARK                         _______ _______ _______ _____ _____    ______ ____
ROOT
ATOM      1  C   UNL     1      -3.185   5.647   3.046  0.00  0.00    +0.109 A 
ATOM      2  C   UNL     1      -3.119   6.573   4.071  0.00  0.00    +0.030 A 
ATOM      3  C   UNL     1      -1.923   6.811   4.715  0.00  0.00    +0.025 A 
ATOM      4  C   UNL     1      -0.774   6.125   4.337  0.00  0.00    +0.031 A 
ATOM      5  C   UNL     1      -0.845   5.201   3.289  0.00  0.00    -0.018 A 
ATOM      6  C   UNL     1      -2.047   4.965   2.658  0.00  0.00    +0.034 A 
ATOM      7  C   UNL     1       0.405   4.511   2.902  0.00  0.00    +0.049 C 
ATOM      8  C   UNL     1       0.400   3.177   2.248  0.00  0.00    -0.023 C 
ATOM      9  C   UNL     1       1.497   2.524   2.611  0.00  0.00    -0.030 C 
ATOM     10  C   UNL     1       2.322   3.380   3.574  0.00  0.00    +0.033 C 
ATOM     11  C   UNL     1       1.242   4.275   4.195  0.00  0.00    +0.029 C 
ATOM     12  C   UNL     1       1.675   5.647   4.681  0.00  0.00    +0.106 C 
ATOM     13  N   UNL     1       0.421   6.358   5.028  0.00  0.00    -0.336 N 
ATOM     14  H   UNL     1       0.430   6.990   5.764  0.00  0.00    +0.147 HD
ENDROOT
BRANCH  12  15
ATOM     15  C   UNL     1       2.570   5.513   5.886  0.00  0.00    -0.007 A 
ATOM     16  C   UNL     1       2.036   5.604   7.158  0.00  0.00    +0.039 A 
ATOM     17  C   UNL     1       2.857   5.481   8.263  0.00  0.00    +0.127 A 
ATOM     18  C   UNL     1       4.213   5.268   8.097  0.00  0.00    +0.034 A 
ATOM     19  C   UNL     1       4.748   5.176   6.826  0.00  0.00    +0.022 A 
ATOM     20  C   UNL     1       3.926   5.294   5.719  0.00  0.00    +0.046 A 
ATOM     21 CL   UNL     1       4.596   5.173   4.123  0.00  0.00    -0.083 Cl
BRANCH  17  22
ATOM     22  N   UNL     1       2.284   5.579   9.624  0.00  0.00    +0.056 N 
ATOM     23  O   UNL     1       1.090   5.768   9.770  0.00  0.00    -0.126 OA
ATOM     24  O   UNL     1       3.008   5.471  10.598  0.00  0.00    -0.126 OA
ENDBRANCH  17  22
ENDBRANCH  12  15
BRANCH   1  25
ATOM     25  S   UNL     1      -4.718   5.339   2.233  0.00  0.00    +0.072 S 
ATOM     26  O   UNL     1      -5.469   6.542   2.314  0.00  0.00    -0.150 OA
ATOM     27  O   UNL     1      -4.403   4.719   0.994  0.00  0.00    -0.150 OA
BRANCH  25  28
ATOM     28  N   UNL     1      -5.531   4.212   3.133  0.00  0.00    -0.216 N 
ATOM     29  H   UNL     1      -6.376   4.442   3.550  0.00  0.00    +0.174 HD
BRANCH  28  35
ATOM     30  C   UNL     1      -4.605  -0.242   1.273  0.00  0.00    +0.044 C 
ATOM     31  C   UNL     1      -4.537   0.749   2.406  0.00  0.00    -0.048 A 
ATOM     32  C   UNL     1      -3.949   0.389   3.605  0.00  0.00    +0.006 A 
ATOM     33  C   UNL     1      -3.885   1.295   4.647  0.00  0.00    -0.048 A 
ATOM     34  C   UNL     1      -4.409   2.564   4.494  0.00  0.00    +0.028 A 
ATOM     35  C   UNL     1      -5.000   2.929   3.291  0.00  0.00    +0.049 A 
ATOM     36  C   UNL     1      -5.067   2.014   2.248  0.00  0.00    +0.028 A 
ATOM     37  C   UNL     1      -3.244   0.898   5.952  0.00  0.00    +0.044 C 
ENDBRANCH  28  35
ENDBRANCH  25  28
ENDBRANCH   1  25
TORSDOF 5
