REMARK  Name = ZINC39667655
REMARK  7 active torsions:
REMARK  status: ('A' for Active; 'I' for Inactive)
REMARK    1  A    between atoms: C_1  and  C_2
REMARK    2  A    between atoms: C_6  and  C_9
REMARK    3  A    between atoms: C_7  and  C_8
REMARK    4  A    between atoms: C_9  and  N_10
REMARK    5  A    between atoms: C_11  and  C_13
REMARK    6  A    between atoms: C_24  and  C_26
REMARK    7  A    between atoms: C_29  and  C_31
REMARK                            x       y       z     vdW  Elec       q    Type
REMARK                         _______ _______ _______ _____ _____    ______ ____
ROOT
ATOM      1  C   UNL     1      -2.927  -3.595   4.770  0.00  0.00    +0.100 C 
ATOM      2  C   UNL     1      -3.889  -4.262   3.761  0.00  0.00    +0.121 C 
ATOM      3  N   UNL     1      -3.932  -5.686   4.170  0.00  0.00    -0.294 N 
ATOM      4  C   UNL     1      -3.938  -5.644   5.652  0.00  0.00    +0.115 C 
ATOM      5  C   UNL     1      -2.965  -4.503   6.011  0.00  0.00    -0.004 C 
ATOM      6  C   UNL     1      -1.576  -5.066   6.295  0.00  0.00    -0.010 C 
ATOM      7  C   UNL     1      -1.627  -5.920   7.566  0.00  0.00    -0.082 C 
ATOM      8  N   UNL     1      -2.084  -5.097   8.692  0.00  0.00    +0.379 N 
ATOM      9  C   UNL     1      -3.456  -4.636   8.451  0.00  0.00    -0.082 C 
ATOM     10  C   UNL     1      -3.482  -3.728   7.218  0.00  0.00    -0.010 C 
ATOM     11  C   UNL     1      -3.960  -6.773   3.374  0.00  0.00    +0.282 C 
ATOM     12  O   UNL     1      -3.995  -7.886   3.865  0.00  0.00    -0.267 OA
ATOM     13  H   UNL     1      -2.059  -5.645   9.539  0.00  0.00    -0.086 HD
ATOM     14  H   UNL     1      -1.475  -4.299   8.793  0.00  0.00    -0.086 HD
ENDROOT
BRANCH  11  15
ATOM     15  C   UNL     1      -3.948  -6.615   1.917  0.00  0.00    +0.190 A 
ATOM     16  C   UNL     1      -3.979  -7.636   0.993  0.00  0.00    +0.055 A 
ATOM     17  C   UNL     1      -3.953  -7.037  -0.271  0.00  0.00    +0.050 A 
ATOM     18  C   UNL     1      -3.907  -5.687  -0.074  0.00  0.00    +0.136 A 
ATOM     19  O   UNL     1      -3.911  -5.444   1.247  0.00  0.00    -0.450 OA
BRANCH  18  20
ATOM     20  C   UNL     1      -3.867  -4.663  -1.138  0.00  0.00    +0.017 A 
ATOM     21  C   UNL     1      -3.879  -5.045  -2.481  0.00  0.00    +0.011 A 
ATOM     22  C   UNL     1      -3.842  -4.083  -3.469  0.00  0.00    +0.001 A 
ATOM     23  C   UNL     1      -3.792  -2.742  -3.132  0.00  0.00    +0.000 A 
ATOM     24  C   UNL     1      -3.779  -2.356  -1.803  0.00  0.00    +0.001 A 
ATOM     25  C   UNL     1      -3.822  -3.307  -0.805  0.00  0.00    +0.011 A 
ENDBRANCH  18  20
ENDBRANCH  11  15
BRANCH   1  27
ATOM     26  N   UNL     1      -0.691  -2.554   4.586  0.00  0.00    -0.311 N 
ATOM     27  C   UNL     1      -1.531  -3.536   4.205  0.00  0.00    +0.218 C 
ATOM     28  O   UNL     1      -1.165  -4.373   3.407  0.00  0.00    -0.275 OA
ATOM     29  H   UNL     1      -0.984  -1.885   5.224  0.00  0.00    +0.149 HD
BRANCH  26  30
ATOM     30  C   UNL     1       0.666  -2.497   4.036  0.00  0.00    +0.139 C 
BRANCH  30  36
ATOM     31  C   UNL     1       3.216  -0.402   7.798  0.00  0.00    +0.044 C 
ATOM     32  C   UNL     1       2.614  -0.311   6.419  0.00  0.00    -0.047 A 
ATOM     33  C   UNL     1       2.731   0.857   5.689  0.00  0.00    +0.003 A 
ATOM     34  C   UNL     1       2.179   0.940   4.425  0.00  0.00    +0.001 A 
ATOM     35  C   UNL     1       1.511  -0.146   3.890  0.00  0.00    +0.005 A 
ATOM     36  C   UNL     1       1.395  -1.314   4.619  0.00  0.00    -0.027 A 
ATOM     37  C   UNL     1       1.951  -1.399   5.882  0.00  0.00    -0.043 A 
ATOM     38  C   UNL     1       1.829  -2.674   6.676  0.00  0.00    +0.044 C 
ENDBRANCH  30  36
ENDBRANCH  26  30
ENDBRANCH   1  27
TORSDOF 5
