REMARK  Name = ZINC06427449
REMARK  12 active torsions:
REMARK  status: ('A' for Active; 'I' for Inactive)
REMARK    1  A    between atoms: C_1  and  C_2
REMARK    2  A    between atoms: C_2  and  C_3
REMARK    3  A    between atoms: C_3  and  C_4
REMARK    4  A    between atoms: C_4  and  C_5
REMARK    5  A    between atoms: C_5  and  C_6
REMARK    6  A    between atoms: C_6  and  C_7
REMARK    7  A    between atoms: C_7  and  C_26
REMARK    8  A    between atoms: N_10  and  C_14
REMARK    9  A    between atoms: C_14  and  C_15
REMARK   10  A    between atoms: N_17  and  C_18
REMARK   11  A    between atoms: C_21  and  C_25
REMARK   12  A    between atoms: C_23  and  C_24
REMARK                            x       y       z     vdW  Elec       q    Type
REMARK                         _______ _______ _______ _____ _____    ______ ____
ROOT
ATOM      1  C   UNL     1      -1.403  -2.064  -0.013  0.00  0.00    +0.110 C 
ATOM      2  C   UNL     1      -2.799  -2.611  -0.234  0.00  0.00    +0.247 C 
ATOM      3  O   UNL     1      -3.771  -2.447   0.472  0.00  0.00    -0.273 OA
ATOM      4  N   UNL     1      -2.735  -3.320  -1.379  0.00  0.00    -0.215 N 
ATOM      5  C   UNL     1      -1.506  -3.297  -1.905  0.00  0.00    +0.310 C 
ATOM      6  O   UNL     1      -1.202  -3.864  -2.937  0.00  0.00    -0.252 OA
ATOM      7  N   UNL     1      -0.643  -2.576  -1.166  0.00  0.00    -0.285 N 
ATOM      8  C   UNL     1      -0.815  -2.593   1.297  0.00  0.00    +0.041 C 
ATOM      9  H   UNL     1       0.296  -2.423  -1.356  0.00  0.00    +0.151 HD
ENDROOT
BRANCH   1  10
ATOM     10  C   UNL     1      -1.418  -0.534  -0.014  0.00  0.00    +0.035 C 
BRANCH  10  11
ATOM     11  C   UNL     1       0.019  -0.010  -0.024  0.00  0.00    +0.003 C 
BRANCH  11  12
ATOM     12  C   UNL     1       0.004   1.520  -0.026  0.00  0.00    +0.000 C 
BRANCH  12  13
ATOM     13  C   UNL     1       1.441   2.045  -0.036  0.00  0.00    -0.000 C 
BRANCH  13  15
ATOM     14  C   UNL     1       2.863   4.099  -0.048  0.00  0.00    +0.004 C 
ATOM     15  C   UNL     1       1.426   3.575  -0.038  0.00  0.00    -0.003 C 
ENDBRANCH  13  15
ENDBRANCH  12  13
ENDBRANCH  11  12
ENDBRANCH  10  11
ENDBRANCH   1  10
BRANCH   4  16
ATOM     16  C   UNL     1      -3.872  -4.029  -1.972  0.00  0.00    +0.214 C 
BRANCH  16  17
ATOM     17  C   UNL     1      -3.921  -5.437  -1.435  0.00  0.00    +0.235 C 
ATOM     18  O   UNL     1      -3.089  -5.810  -0.635  0.00  0.00    -0.274 OA
ATOM     19  N   UNL     1      -4.890  -6.280  -1.843  0.00  0.00    -0.284 N 
ATOM     20  H   UNL     1      -5.601  -5.959  -2.420  0.00  0.00    +0.155 HD
BRANCH  19  21
ATOM     21  C   UNL     1      -4.870  -7.618  -1.435  0.00  0.00    +0.036 A 
ATOM     22  C   UNL     1      -3.671  -8.218  -1.074  0.00  0.00    +0.024 A 
ATOM     23  C   UNL     1      -3.655  -9.537  -0.667  0.00  0.00    +0.005 A 
ATOM     24  C   UNL     1      -4.831 -10.265  -0.630  0.00  0.00    -0.050 A 
ATOM     25  C   UNL     1      -6.026  -9.672  -0.994  0.00  0.00    +0.008 A 
ATOM     26  C   UNL     1      -6.049  -8.351  -1.397  0.00  0.00    -0.029 A 
ATOM     27  C   UNL     1      -7.352  -7.707  -1.795  0.00  0.00    +0.045 C 
ATOM     28  C   UNL     1      -4.810 -11.707  -0.191  0.00  0.00    +0.044 C 
ENDBRANCH  19  21
ENDBRANCH  16  17
ENDBRANCH   4  16
TORSDOF 8
