REMARK  Name = ZINC09159521
REMARK  5 active torsions:
REMARK  status: ('A' for Active; 'I' for Inactive)
REMARK    1  A    between atoms: C_8  and  C_12
REMARK    2  A    between atoms: C_12  and  N_13
REMARK    3  A    between atoms: N_13  and  C_14
REMARK    4  A    between atoms: C_20  and  C_22
REMARK    5  A    between atoms: C_26  and  N_28
REMARK                            x       y       z     vdW  Elec       q    Type
REMARK                         _______ _______ _______ _____ _____    ______ ____
ROOT
ATOM      1  N   UNL     1       1.409   6.159   0.132  0.00  0.00    -0.290 N 
ATOM      2  C   UNL     1       0.822   5.646  -0.968  0.00  0.00    +0.247 C 
ATOM      3  O   UNL     1       0.508   6.378  -1.886  0.00  0.00    -0.270 OA
ENDROOT
BRANCH   1   4
ATOM      4  C   UNL     1       2.580   5.497   0.712  0.00  0.00    +0.077 C 
ATOM      5  C   UNL     1       3.408   4.854  -0.403  0.00  0.00    +0.022 C 
ATOM      6  C   UNL     1       4.631   4.163   0.203  0.00  0.00    +0.002 C 
ATOM      7  C   UNL     1       4.172   3.083   1.185  0.00  0.00    +0.000 C 
ATOM      8  C   UNL     1       3.345   3.726   2.300  0.00  0.00    +0.002 C 
ATOM      9  C   UNL     1       2.122   4.417   1.694  0.00  0.00    +0.022 C 
ENDBRANCH   1   4
BRANCH   2  10
ATOM     10  C   UNL     1       0.559   4.194  -1.057  0.00  0.00    +0.039 A 
ATOM     11  C   UNL     1       1.442   3.285  -0.473  0.00  0.00    +0.013 A 
ATOM     12  C   UNL     1       1.190   1.931  -0.559  0.00  0.00    +0.003 A 
ATOM     13  C   UNL     1       0.065   1.474  -1.223  0.00  0.00    +0.033 A 
ATOM     14  C   UNL     1      -0.811   2.370  -1.808  0.00  0.00    +0.127 A 
ATOM     15  C   UNL     1      -0.574   3.727  -1.725  0.00  0.00    +0.045 A 
BRANCH  14  16
ATOM     16  N   UNL     1      -2.009   1.872  -2.521  0.00  0.00    +0.056 N 
ATOM     17  O   UNL     1      -2.222   0.675  -2.591  0.00  0.00    -0.126 OA
ATOM     18  O   UNL     1      -2.782   2.660  -3.037  0.00  0.00    -0.126 OA
ENDBRANCH  14  16
ENDBRANCH   2  10
BRANCH   1  19
ATOM     19  C   UNL     1       0.876   7.377   0.747  0.00  0.00    +0.149 C 
BRANCH  19  27
ATOM     20  C   UNL     1       0.453   6.712   6.839  0.00  0.00    +0.001 A 
ATOM     21  C   UNL     1      -0.853   6.226   6.845  0.00  0.00    +0.002 A 
ATOM     22  C   UNL     1      -1.547   6.065   5.685  0.00  0.00    +0.026 A 
ATOM     23  C   UNL     1      -0.943   6.393   4.459  0.00  0.00    +0.049 A 
ATOM     24  C   UNL     1       0.385   6.886   4.455  0.00  0.00    -0.001 A 
ATOM     25  C   UNL     1       1.071   7.040   5.670  0.00  0.00    +0.010 A 
ATOM     26  C   UNL     1       0.993   7.209   3.226  0.00  0.00    +0.020 A 
ATOM     27  C   UNL     1       0.268   7.040   2.083  0.00  0.00    +0.035 A 
ATOM     28  C   UNL     1      -1.041   6.548   2.154  0.00  0.00    +0.254 A 
ATOM     29  N   UNL     1      -1.602   6.244   3.304  0.00  0.00    -0.322 N 
ATOM     30  O   UNL     1      -1.748   6.381   1.009  0.00  0.00    -0.268 OA
ATOM     31  H   UNL     1      -2.633   5.861   3.305  0.00  0.00    +0.169 HD
ENDBRANCH  19  27
ENDBRANCH   1  19
TORSDOF 5
