REMARK  Name = ZINC43036825
REMARK  9 active torsions:
REMARK  status: ('A' for Active; 'I' for Inactive)
REMARK    1  A    between atoms: C_1  and  C_2
REMARK    2  A    between atoms: C_7  and  C_8
REMARK    3  A    between atoms: C_8  and  C_10
REMARK    4  A    between atoms: C_8  and  N_14
REMARK    5  A    between atoms: C_10  and  C_12
REMARK    6  A    between atoms: C_10  and  N_13
REMARK    7  A    between atoms: N_14  and  C_15
REMARK    8  A    between atoms: N_14  and  C_16
REMARK    9  A    between atoms: C_16  and  C_17
REMARK                            x       y       z     vdW  Elec       q    Type
REMARK                         _______ _______ _______ _____ _____    ______ ____
ROOT
ATOM      1  C   UNL     1       0.340   0.297   2.599  0.00  0.00    +0.072 C 
ENDROOT
BRANCH   1   8
ATOM      2  C   UNL     1      -1.874   0.166   0.746  0.00  0.00    +0.044 C 
ATOM      3  C   UNL     1      -0.559  -0.481   0.396  0.00  0.00    -0.046 A 
ATOM      4  C   UNL     1      -0.410  -1.133  -0.815  0.00  0.00    +0.003 A 
ATOM      5  C   UNL     1       0.796  -1.726  -1.136  0.00  0.00    +0.000 A 
ATOM      6  C   UNL     1       1.854  -1.668  -0.247  0.00  0.00    +0.000 A 
ATOM      7  C   UNL     1       1.705  -1.016   0.963  0.00  0.00    +0.005 A 
ATOM      8  C   UNL     1       0.500  -0.419   1.282  0.00  0.00    -0.029 A 
ENDBRANCH   1   8
BRANCH   1   9
ATOM      9  C   UNL     1       1.654   0.988   2.967  0.00  0.00    -0.056 C 
ATOM     10  C   UNL     1       1.529   1.613   4.358  0.00  0.00    -0.012 C 
BRANCH   9  11
ATOM     11  N   UNL     1       1.948   2.038   1.983  0.00  0.00    +0.381 N 
ATOM     12  H   UNL     1       1.239   2.755   2.034  0.00  0.00    -0.090 HD
ATOM     13  H   UNL     1       2.850   2.442   2.181  0.00  0.00    -0.090 HD
ATOM     14  H   UNL     1       1.954   1.638   1.056  0.00  0.00    -0.090 HD
ENDBRANCH   9  11
ENDBRANCH   1   9
BRANCH   1  15
ATOM     15  N   UNL     1      -0.013  -0.674   3.643  0.00  0.00    -0.295 NA
ATOM     16  C   UNL     1      -1.383  -1.171   3.460  0.00  0.00    +0.105 C 
BRANCH  15  17
ATOM     17  C   UNL     1       0.949  -1.783   3.678  0.00  0.00    +0.127 C 
BRANCH  17  18
ATOM     18  C   UNL     1       0.817  -2.522   4.984  0.00  0.00    +0.005 A 
ATOM     19  C   UNL     1       0.027  -3.581   5.290  0.00  0.00    +0.027 A 
ATOM     20  C   UNL     1       0.071  -4.103   6.569  0.00  0.00    +0.025 A 
ATOM     21  C   UNL     1       0.902  -3.540   7.481  0.00  0.00    +0.060 A 
ATOM     22  S   UNL     1       1.665  -2.236   6.529  0.00  0.00    -0.099 S 
ATOM     23 BR   UNL     1      -1.012  -5.579   7.042  0.00  0.00    -0.050 Br
ENDBRANCH  17  18
ENDBRANCH  15  17
ENDBRANCH   1  15
TORSDOF 6
