REMARK  Name = ZINC17130857
REMARK  5 active torsions:
REMARK  status: ('A' for Active; 'I' for Inactive)
REMARK    1  A    between atoms: C_1  and  C_2
REMARK    2  A    between atoms: C_2  and  O_3
REMARK    3  A    between atoms: O_3  and  C_4
REMARK    4  A    between atoms: N_12  and  C_13
REMARK    5  A    between atoms: C_20  and  C_22
REMARK                            x       y       z     vdW  Elec       q    Type
REMARK                         _______ _______ _______ _____ _____    ______ ____
ROOT
ATOM      1  C   UNL     1      -1.528  -1.860  -0.090  0.00  0.00    +0.163 A 
ATOM      2  C   UNL     1      -0.414  -2.682  -0.112  0.00  0.00    +0.049 A 
ATOM      3  C   UNL     1      -0.555  -4.062  -0.089  0.00  0.00    +0.004 A 
ATOM      4  C   UNL     1      -1.806  -4.635  -0.045  0.00  0.00    +0.012 A 
ATOM      5  C   UNL     1      -2.943  -3.818  -0.025  0.00  0.00    +0.022 A 
ATOM      6  C   UNL     1      -2.801  -2.419  -0.040  0.00  0.00    +0.179 A 
ATOM      7  O   UNL     1      -3.902  -1.628  -0.006  0.00  0.00    -0.435 OA
ATOM      8  C   UNL     1      -5.048  -2.145  -0.518  0.00  0.00    +0.212 A 
ATOM      9  N   UNL     1      -5.857  -1.409  -1.248  0.00  0.00    -0.325 N 
ATOM     10  C   UNL     1      -5.359  -3.560  -0.229  0.00  0.00    +0.097 A 
ATOM     11  C   UNL     1      -4.286  -4.404   0.013  0.00  0.00    +0.030 A 
ATOM     12  H   UNL     1      -6.626  -1.815  -1.679  0.00  0.00    +0.169 HD
ENDROOT
BRANCH   9  13
ATOM     13  C   UNL     1      -5.615  -0.072  -1.401  0.00  0.00    +0.042 A 
ATOM     14  C   UNL     1      -5.264   0.708  -0.296  0.00  0.00    +0.027 A 
ATOM     15  C   UNL     1      -5.021   2.056  -0.457  0.00  0.00    +0.017 A 
ATOM     16  C   UNL     1      -5.122   2.636  -1.710  0.00  0.00    +0.018 A 
ATOM     17  C   UNL     1      -5.469   1.869  -2.809  0.00  0.00    +0.017 A 
ATOM     18  C   UNL     1      -5.710   0.519  -2.663  0.00  0.00    +0.027 A 
ATOM     19 BR   UNL     1      -4.786   4.485  -1.921  0.00  0.00    -0.050 Br
ENDBRANCH   9  13
BRANCH  10  20
ATOM     20  C   UNL     1      -6.746  -4.053  -0.208  0.00  0.00    +0.247 C 
ATOM     21  O   UNL     1      -7.660  -3.310  -0.509  0.00  0.00    -0.270 OA
ATOM     22  N   UNL     1      -7.003  -5.329   0.145  0.00  0.00    -0.325 N 
ATOM     23  H   UNL     1      -6.283  -5.900   0.456  0.00  0.00    +0.145 HD
ATOM     24  H   UNL     1      -7.907  -5.675   0.087  0.00  0.00    +0.145 HD
ENDBRANCH  10  20
BRANCH   1  25
ATOM     25  O   UNL     1      -1.378  -0.508  -0.111  0.00  0.00    -0.489 OA
BRANCH  25  27
ATOM     26  C   UNL     1      -0.073   1.525  -0.180  0.00  0.00    +0.048 C 
ATOM     27  C   UNL     1      -0.042  -0.005  -0.163  0.00  0.00    +0.226 C 
ENDBRANCH  25  27
ENDBRANCH   1  25
TORSDOF 4
