REMARK  Name = ZINC36698233
REMARK  10 active torsions:
REMARK  status: ('A' for Active; 'I' for Inactive)
REMARK    1  A    between atoms: C_1  and  C_2
REMARK    2  A    between atoms: C_2  and  C_3
REMARK    3  A    between atoms: C_3  and  N_4
REMARK    4  A    between atoms: C_7  and  C_33
REMARK    5  A    between atoms: C_8  and  C_32
REMARK    6  A    between atoms: N_13  and  C_14
REMARK    7  A    between atoms: C_14  and  C_16
REMARK    8  A    between atoms: C_21  and  N_22
REMARK    9  A    between atoms: N_22  and  S_23
REMARK   10  A    between atoms: S_23  and  C_26
REMARK                            x       y       z     vdW  Elec       q    Type
REMARK                         _______ _______ _______ _____ _____    ______ ____
ROOT
ATOM      1  C   UNL     1      -2.058  -3.189  -3.082  0.00  0.00    +0.271 C 
ATOM      2  O   UNL     1      -2.048  -4.398  -2.924  0.00  0.00    -0.268 OA
ENDROOT
BRANCH   1  12
ATOM      3  N   UNL     1       1.059  -2.428  -1.439  0.00  0.00    -0.321 N 
ATOM      4  C   UNL     1       2.015  -3.196  -0.802  0.00  0.00    +0.058 A 
ATOM      5  C   UNL     1       3.205  -2.792  -0.181  0.00  0.00    +0.030 A 
ATOM      6  C   UNL     1       4.037  -3.716   0.406  0.00  0.00    -0.046 A 
ATOM      7  C   UNL     1       3.726  -5.066   0.403  0.00  0.00    -0.046 A 
ATOM      8  C   UNL     1       2.557  -5.490  -0.203  0.00  0.00    +0.020 A 
ATOM      9  C   UNL     1       1.724  -4.568  -0.791  0.00  0.00    +0.039 A 
ATOM     10  S   UNL     1       0.177  -4.659  -1.653  0.00  0.00    -0.052 S 
ATOM     11  C   UNL     1      -0.038  -3.024  -1.976  0.00  0.00    +0.167 A 
ATOM     12  N   UNL     1      -1.050  -2.446  -2.613  0.00  0.00    -0.152 NA
ATOM     13  C   UNL     1       4.652  -6.062   1.052  0.00  0.00    +0.044 C 
ATOM     14  C   UNL     1       5.311  -3.252   1.066  0.00  0.00    +0.044 C 
BRANCH   3  15
ATOM     15  C   UNL     1       1.224  -0.975  -1.531  0.00  0.00    +0.124 C 
BRANCH  15  17
ATOM     16  C   UNL     1       0.756   1.207  -0.407  0.00  0.00    +0.005 C 
ATOM     17  C   UNL     1       0.583  -0.310  -0.311  0.00  0.00    +0.018 C 
ENDBRANCH  15  17
ENDBRANCH   3  15
ENDBRANCH   1  12
BRANCH   1  18
ATOM     18  C   UNL     1      -3.184  -2.546  -3.791  0.00  0.00    +0.061 A 
ATOM     19  C   UNL     1      -3.196  -1.163  -3.979  0.00  0.00    +0.015 A 
ATOM     20  C   UNL     1      -4.248  -0.568  -4.641  0.00  0.00    +0.001 A 
ATOM     21  C   UNL     1      -5.296  -1.337  -5.123  0.00  0.00    +0.002 A 
ATOM     22  C   UNL     1      -5.298  -2.705  -4.944  0.00  0.00    +0.025 A 
ATOM     23  C   UNL     1      -4.243  -3.322  -4.284  0.00  0.00    +0.060 A 
BRANCH  23  24
ATOM     24  N   UNL     1      -4.239  -4.701  -4.108  0.00  0.00    -0.216 N 
ATOM     25  H   UNL     1      -3.876  -5.085  -3.295  0.00  0.00    +0.174 HD
BRANCH  24  26
ATOM     26  S   UNL     1      -4.857  -5.687  -5.286  0.00  0.00    +0.072 S 
ATOM     27  O   UNL     1      -4.593  -7.022  -4.877  0.00  0.00    -0.150 OA
ATOM     28  O   UNL     1      -6.171  -5.220  -5.559  0.00  0.00    -0.150 OA
BRANCH  26  29
ATOM     29  C   UNL     1      -3.910  -5.411  -6.746  0.00  0.00    +0.108 A 
ATOM     30  C   UNL     1      -4.294  -4.433  -7.644  0.00  0.00    +0.029 A 
ATOM     31  C   UNL     1      -3.551  -4.216  -8.789  0.00  0.00    +0.002 A 
ATOM     32  C   UNL     1      -2.424  -4.977  -9.036  0.00  0.00    +0.000 A 
ATOM     33  C   UNL     1      -2.040  -5.955  -8.138  0.00  0.00    +0.002 A 
ATOM     34  C   UNL     1      -2.780  -6.169  -6.990  0.00  0.00    +0.029 A 
ENDBRANCH  26  29
ENDBRANCH  24  26
ENDBRANCH  23  24
ENDBRANCH   1  18
TORSDOF 7
