REMARK  Name = ZINC13064851
REMARK  12 active torsions:
REMARK  status: ('A' for Active; 'I' for Inactive)
REMARK    1  A    between atoms: C_1  and  C_2
REMARK    2  A    between atoms: C_2  and  C_3
REMARK    3  A    between atoms: C_3  and  C_5
REMARK    4  A    between atoms: C_3  and  N_75
REMARK    5  A    between atoms: N_9  and  C_10
REMARK    6  A    between atoms: C_16  and  C_17
REMARK    7  A    between atoms: C_16  and  N_75
REMARK    8  A    between atoms: C_17  and  C_18
REMARK    9  A    between atoms: C_24  and  C_25
REMARK   10  A    between atoms: C_24  and  N_75
REMARK   11  A    between atoms: C_28  and  C_38
REMARK   12  A    between atoms: C_30  and  C_37
REMARK                            x       y       z     vdW  Elec       q    Type
REMARK                         _______ _______ _______ _____ _____    ______ ____
ROOT
ATOM      1  N   UNL     1       2.346  -0.034   1.081  0.00  0.00    +0.389 N 
ATOM      2  H   UNL     1       3.085  -0.399   1.693  0.00  0.00    -0.080 HD
ENDROOT
BRANCH   1   3
ATOM      3  C   UNL     1       1.139  -0.874   1.230  0.00  0.00    +0.003 C 
BRANCH   3   4
ATOM      4  C   UNL     1       1.568  -2.312   1.371  0.00  0.00    +0.138 A 
ATOM      5  N   UNL     1       2.455  -2.939   0.638  0.00  0.00    -0.115 NA
ATOM      6  N   UNL     1       2.543  -4.150   1.070  0.00  0.00    -0.023 NA
ATOM      7  N   UNL     1       1.730  -4.314   2.054  0.00  0.00    -0.044 NA
ATOM      8  N   UNL     1       1.110  -3.203   2.270  0.00  0.00    -0.228 N 
BRANCH   8   9
ATOM      9  C   UNL     1       0.098  -2.957   3.300  0.00  0.00    +0.111 C 
ATOM     10  C   UNL     1       0.705  -3.210   4.682  0.00  0.00    +0.027 C 
ATOM     11  C   UNL     1      -0.351  -2.954   5.758  0.00  0.00    +0.002 C 
ATOM     12  C   UNL     1      -1.538  -3.895   5.543  0.00  0.00    +0.000 C 
ATOM     13  C   UNL     1      -2.145  -3.643   4.161  0.00  0.00    +0.002 C 
ATOM     14  C   UNL     1      -1.088  -3.899   3.085  0.00  0.00    +0.027 C 
ENDBRANCH   8   9
ENDBRANCH   3   4
BRANCH   3  16
ATOM     15  C   UNL     1      -0.250   0.718  -0.103  0.00  0.00    +0.002 C 
ATOM     16  C   UNL     1       0.232  -0.730   0.006  0.00  0.00    -0.011 C 
ENDBRANCH   3  16
ENDBRANCH   1   3
BRANCH   1  17
ATOM     17  C   UNL     1       2.819  -0.074  -0.319  0.00  0.00    -0.073 C 
BRANCH  17  18
ATOM     18  C   UNL     1       4.252   0.459  -0.368  0.00  0.00    +0.016 C 
BRANCH  18  19
ATOM     19  C   UNL     1       4.745   0.444  -1.793  0.00  0.00    -0.049 A 
ATOM     20  C   UNL     1       5.305  -0.706  -2.318  0.00  0.00    +0.003 A 
ATOM     21  C   UNL     1       5.752  -0.722  -3.626  0.00  0.00    +0.000 A 
ATOM     22  C   UNL     1       5.650   0.416  -4.405  0.00  0.00    +0.000 A 
ATOM     23  C   UNL     1       5.095   1.567  -3.878  0.00  0.00    +0.000 A 
ATOM     24  C   UNL     1       4.643   1.581  -2.571  0.00  0.00    +0.003 A 
ENDBRANCH  18  19
ENDBRANCH  17  18
ENDBRANCH   1  17
BRANCH   1  25
ATOM     25  C   UNL     1       2.043   1.359   1.472  0.00  0.00    -0.037 C 
BRANCH  25  26
ATOM     26  C   UNL     1       2.060   1.452   2.976  0.00  0.00    +0.001 A 
ATOM     27  C   UNL     1       3.203   1.794   3.619  0.00  0.00    +0.017 A 
ATOM     28  C   UNL     1       3.187   1.876   5.080  0.00  0.00    +0.002 A 
ATOM     29  C   UNL     1       4.335   2.224   5.799  0.00  0.00    -0.041 A 
ATOM     30  C   UNL     1       4.286   2.292   7.162  0.00  0.00    +0.007 A 
ATOM     31  C   UNL     1       3.107   2.018   7.842  0.00  0.00    -0.048 A 
ATOM     32  C   UNL     1       1.963   1.672   7.154  0.00  0.00    +0.029 A 
ATOM     33  C   UNL     1       1.989   1.597   5.766  0.00  0.00    +0.050 A 
ATOM     34  N   UNL     1       0.860   1.255   5.053  0.00  0.00    -0.322 N 
ATOM     35  H   UNL     1       0.035   1.064   5.526  0.00  0.00    +0.169 HD
ATOM     36  C   UNL     1       0.883   1.188   3.710  0.00  0.00    +0.251 A 
ATOM     37  O   UNL     1      -0.135   0.887   3.112  0.00  0.00    -0.268 OA
ATOM     38  C   UNL     1       3.076   2.099   9.346  0.00  0.00    +0.044 C 
ATOM     39  C   UNL     1       5.621   2.523   5.072  0.00  0.00    +0.044 C 
ENDBRANCH  25  26
ENDBRANCH   1  25
TORSDOF 9
