REMARK  Name = ZINC09542207
REMARK  10 active torsions:
REMARK  status: ('A' for Active; 'I' for Inactive)
REMARK    1  A    between atoms: C_1  and  C_2
REMARK    2  A    between atoms: C_2  and  O_3
REMARK    3  A    between atoms: O_3  and  C_4
REMARK    4  A    between atoms: C_7  and  C_10
REMARK    5  A    between atoms: C_12  and  C_25
REMARK    6  A    between atoms: C_14  and  C_17
REMARK    7  A    between atoms: C_22  and  O_23
REMARK    8  A    between atoms: C_28  and  C_31
REMARK    9  A    between atoms: C_31  and  O_33
REMARK   10  A    between atoms: O_33  and  C_34
REMARK                            x       y       z     vdW  Elec       q    Type
REMARK                         _______ _______ _______ _____ _____    ______ ____
ROOT
ATOM      1  C   UNL     1       1.734   0.205  -1.677  0.00  0.00    +0.040 C 
ATOM      2  N   UNL     1       0.853  -0.501  -1.072  0.00  0.00    -0.299 NA
ATOM      3  C   UNL     1       0.002  -0.004   0.002  0.00  0.00    +0.081 C 
ATOM      4  C   UNL     1       1.357   1.991  -0.000  0.00  0.00    -0.028 C 
ATOM      5  C   UNL     1       1.991   1.650  -1.353  0.00  0.00    +0.044 C 
ATOM      6  N   UNL     1      -0.022   1.466   0.010  0.00  0.00    +0.401 N 
ATOM      7  H   UNL     1      -0.505   1.794   0.855  0.00  0.00    -0.081 HD
ATOM      8  H   UNL     1      -0.521   1.804  -0.822  0.00  0.00    -0.081 HD
ENDROOT
BRANCH   4   9
ATOM      9  C   UNL     1       1.330   3.486   0.186  0.00  0.00    -0.018 A 
ATOM     10  C   UNL     1       0.175   4.195  -0.081  0.00  0.00    +0.025 A 
ATOM     11  C   UNL     1       0.147   5.567   0.095  0.00  0.00    +0.041 A 
ATOM     12  C   UNL     1       1.280   6.233   0.528  0.00  0.00    +0.023 A 
ATOM     13  C   UNL     1       2.439   5.529   0.791  0.00  0.00    +0.047 A 
ATOM     14  C   UNL     1       2.466   4.152   0.620  0.00  0.00    +0.119 A 
ATOM     15 CL   UNL     1      -1.308   6.454  -0.234  0.00  0.00    -0.084 Cl
BRANCH  14  16
ATOM     16  O   UNL     1       3.606   3.458   0.879  0.00  0.00    -0.507 OA
ATOM     17  H   UNL     1       4.192   3.365   0.116  0.00  0.00    +0.292 HD
ENDBRANCH  14  16
ENDBRANCH   4   9
BRANCH   1  21
ATOM     18  C   UNL     1       4.038  -1.623  -4.738  0.00  0.00    +0.121 A 
ATOM     19  C   UNL     1       3.073  -2.361  -4.063  0.00  0.00    +0.046 A 
ATOM     20  C   UNL     1       2.324  -1.772  -3.069  0.00  0.00    +0.013 A 
ATOM     21  C   UNL     1       2.534  -0.430  -2.740  0.00  0.00    -0.004 A 
ATOM     22  C   UNL     1       3.501   0.310  -3.426  0.00  0.00    +0.013 A 
ATOM     23  C   UNL     1       4.250  -0.288  -4.415  0.00  0.00    +0.046 A 
BRANCH  18  24
ATOM     24  O   UNL     1       4.775  -2.207  -5.717  0.00  0.00    -0.492 OA
BRANCH  24  26
ATOM     25  C   UNL     1       6.475  -2.217  -7.435  0.00  0.00    +0.048 C 
ATOM     26  C   UNL     1       5.749  -1.391  -6.370  0.00  0.00    +0.225 C 
ENDBRANCH  24  26
ENDBRANCH  18  24
ENDBRANCH   1  21
BRANCH   3  27
ATOM     27  C   UNL     1       0.530  -0.501   1.323  0.00  0.00    -0.040 A 
ATOM     28  C   UNL     1       0.329   0.247   2.470  0.00  0.00    +0.004 A 
ATOM     29  C   UNL     1       0.804  -0.204   3.684  0.00  0.00    +0.015 A 
ATOM     30  C   UNL     1       1.499  -1.413   3.752  0.00  0.00    +0.059 A 
ATOM     31  C   UNL     1       1.703  -2.160   2.590  0.00  0.00    +0.015 A 
ATOM     32  C   UNL     1       1.217  -1.700   1.384  0.00  0.00    +0.004 A 
BRANCH  30  33
ATOM     33  C   UNL     1       2.017  -1.900   5.047  0.00  0.00    +0.339 C 
ATOM     34  O   UNL     1       2.621  -2.952   5.103  0.00  0.00    -0.245 OA
BRANCH  33  35
ATOM     35  O   UNL     1       1.818  -1.177   6.166  0.00  0.00    -0.464 OA
ATOM     36  C   UNL     1       2.355  -1.716   7.403  0.00  0.00    +0.280 C 
ENDBRANCH  33  35
ENDBRANCH  30  33
ENDBRANCH   3  27
TORSDOF 8
