REMARK  Name = ZINC50830856
REMARK  4 active torsions:
REMARK  status: ('A' for Active; 'I' for Inactive)
REMARK    1  A    between atoms: C_1  and  N_2
REMARK    2  A    between atoms: C_10  and  C_12
REMARK    3  A    between atoms: C_12  and  O_13
REMARK    4  A    between atoms: O_13  and  C_14
REMARK                            x       y       z     vdW  Elec       q    Type
REMARK                         _______ _______ _______ _____ _____    ______ ____
ROOT
ATOM      1  C   UNL     1      -0.018   1.461   0.010  0.00  0.00    +0.127 C 
ATOM      2  N   UNL     1       0.002  -0.004   0.002  0.00  0.00    -0.332 N 
ATOM      3  C   UNL     1      -1.186  -0.712   0.010  0.00  0.00    +0.130 A 
ATOM      4  C   UNL     1      -1.177  -2.134   0.008  0.00  0.00    +0.047 A 
ATOM      5  C   UNL     1      -0.055  -3.056  -0.001  0.00  0.00    +0.021 A 
ATOM      6  C   UNL     1      -0.291  -4.376  -0.001  0.00  0.00    +0.048 A 
ATOM      7  S   UNL     1      -2.071  -4.480   0.012  0.00  0.00    -0.077 S 
ATOM      8  C   UNL     1      -2.449  -2.748   0.017  0.00  0.00    +0.114 A 
ATOM      9  N   UNL     1      -3.557  -2.033   0.026  0.00  0.00    -0.221 NA
ATOM     10  C   UNL     1      -3.501  -0.715   0.027  0.00  0.00    +0.169 A 
ATOM     11  N   UNL     1      -2.345  -0.074   0.024  0.00  0.00    -0.213 NA
ATOM     12  H   UNL     1       0.849  -0.478  -0.009  0.00  0.00    +0.147 HD
ENDROOT
BRANCH  10  13
ATOM     13  C   UNL     1      -4.783   0.077   0.037  0.00  0.00    +0.305 C 
BRANCH  13  14
ATOM     14  O   UNL     1      -5.178   0.326   1.388  0.00  0.00    -0.484 OA
BRANCH  14  15
ATOM     15  C   UNL     1      -6.323   1.034   1.575  0.00  0.00    +0.121 A 
ATOM     16  C   UNL     1      -7.054   1.475   0.482  0.00  0.00    +0.047 A 
ATOM     17  C   UNL     1      -8.217   2.194   0.674  0.00  0.00    +0.019 A 
ATOM     18  C   UNL     1      -8.654   2.475   1.957  0.00  0.00    +0.018 A 
ATOM     19  C   UNL     1      -7.926   2.037   3.049  0.00  0.00    +0.019 A 
ATOM     20  C   UNL     1      -6.765   1.312   2.861  0.00  0.00    +0.047 A 
ATOM     21 BR   UNL     1     -10.246   3.460   2.218  0.00  0.00    -0.050 Br
ENDBRANCH  14  15
ENDBRANCH  13  14
ENDBRANCH  10  13
TORSDOF 3
