REMARK  Name = ZINC32927228
REMARK  7 active torsions:
REMARK  status: ('A' for Active; 'I' for Inactive)
REMARK    1  A    between atoms: C_1  and  C_2
REMARK    2  A    between atoms: C_9  and  C_11
REMARK    3  A    between atoms: N_14  and  C_17
REMARK    4  A    between atoms: C_17  and  C_18
REMARK    5  A    between atoms: C_18  and  C_19
REMARK    6  A    between atoms: N_21  and  C_22
REMARK    7  A    between atoms: C_23  and  C_32
REMARK                            x       y       z     vdW  Elec       q    Type
REMARK                         _______ _______ _______ _____ _____    ______ ____
ROOT
ATOM      1  C   UNL     1       4.744   5.208  -1.450  0.00  0.00    -0.070 C 
ENDROOT
BRANCH   1   5
ATOM      2  C   UNL     1       1.371   2.629  -1.951  0.00  0.00    +0.072 C 
ATOM      3  C   UNL     1       1.536   3.410  -0.644  0.00  0.00    -0.006 C 
ATOM      4  C   UNL     1       2.998   3.834  -0.490  0.00  0.00    -0.078 C 
ATOM      5  N   UNL     1       3.390   4.669  -1.632  0.00  0.00    +0.380 N 
ATOM      6  C   UNL     1       3.286   3.925  -2.894  0.00  0.00    -0.078 C 
ATOM      7  C   UNL     1       1.832   3.504  -3.120  0.00  0.00    -0.006 C 
ATOM      8  H   UNL     1       2.691   5.516  -1.684  0.00  0.00    -0.082 HD
BRANCH   2  16
ATOM      9  C   UNL     1       0.905  -2.103  -0.347  0.00  0.00    +0.009 C 
ATOM     10  C   UNL     1       0.109  -1.148  -1.238  0.00  0.00    +0.003 C 
ATOM     11  C   UNL     1      -1.374  -1.520  -1.191  0.00  0.00    +0.006 C 
ATOM     12  C   UNL     1      -2.169  -0.585  -2.110  0.00  0.00    +0.019 C 
ATOM     13  C   UNL     1      -2.014   0.857  -1.615  0.00  0.00    +0.108 C 
ATOM     14  N   UNL     1      -0.583   1.175  -1.519  0.00  0.00    -0.301 N 
ATOM     15  C   UNL     1       0.287   0.288  -0.735  0.00  0.00    +0.111 C 
ATOM     16  C   UNL     1      -0.078   2.260  -2.139  0.00  0.00    +0.219 C 
ATOM     17  O   UNL     1      -0.790   2.940  -2.847  0.00  0.00    -0.275 OA
ENDBRANCH   2  16
ENDBRANCH   1   5
BRANCH   1  18
ATOM     18  C   UNL     1       4.888   5.756  -0.028  0.00  0.00    +0.077 C 
BRANCH  18  19
ATOM     19  C   UNL     1       6.277   6.309   0.159  0.00  0.00    +0.216 C 
ATOM     20  O   UNL     1       7.074   6.270  -0.754  0.00  0.00    -0.276 OA
ATOM     21  N   UNL     1       6.634   6.848   1.342  0.00  0.00    -0.279 N 
ATOM     22  H   UNL     1       5.911   6.885   2.170  0.00  0.00    +0.155 HD
BRANCH  21  23
ATOM     23  C   UNL     1       7.913   7.358   1.514  0.00  0.00    +0.090 A 
ATOM     24  C   UNL     1       8.459   7.951   2.641  0.00  0.00    +0.084 A 
ATOM     25  C   UNL     1       9.842   8.401   2.568  0.00  0.00    -0.018 A 
ATOM     26  C   UNL     1      10.444   8.200   1.375  0.00  0.00    -0.004 A 
ATOM     27  S   UNL     1       9.213   7.415   0.371  0.00  0.00    -0.077 S 
ATOM     28  C   UNL     1      11.838   8.572   0.980  0.00  0.00    +0.043 C 
ATOM     29  C   UNL     1      12.816   8.090   2.060  0.00  0.00    +0.005 C 
ATOM     30  C   UNL     1      12.972   9.197   3.098  0.00  0.00    +0.001 C 
ATOM     31  C   UNL     1      11.663   9.969   3.244  0.00  0.00    +0.005 C 
ATOM     32  C   UNL     1      10.556   9.050   3.748  0.00  0.00    +0.037 C 
BRANCH  24  33
ATOM     33  C   UNL     1       7.691   8.111   3.839  0.00  0.00    +0.102 C 
ATOM     34  N   UNL     1       7.081   8.239   4.789  0.00  0.00    -0.191 NA
ENDBRANCH  24  33
ENDBRANCH  21  23
ENDBRANCH  18  19
ENDBRANCH   1  18
TORSDOF 6
