REMARK  Name = ZINC58289551
REMARK  6 active torsions:
REMARK  status: ('A' for Active; 'I' for Inactive)
REMARK    1  A    between atoms: C_1  and  C_2
REMARK    2  A    between atoms: C_2  and  C_4
REMARK    3  A    between atoms: C_2  and  N_14
REMARK    4  A    between atoms: C_15  and  C_17
REMARK    5  A    between atoms: C_17  and  N_18
REMARK    6  A    between atoms: C_20  and  C_29
REMARK                            x       y       z     vdW  Elec       q    Type
REMARK                         _______ _______ _______ _____ _____    ______ ____
ROOT
ATOM      1  N   UNL     1       4.223  -1.127   2.126  0.00  0.00    -0.314 N 
ATOM      2  C   UNL     1       4.869  -2.323   1.558  0.00  0.00    +0.160 C 
ATOM      3  C   UNL     1       5.871  -1.848   0.496  0.00  0.00    +0.276 C 
ATOM      4  O   UNL     1       6.812  -0.967   1.113  0.00  0.00    -0.476 OA
ATOM      5  C   UNL     1       6.325   0.043   1.881  0.00  0.00    +0.143 A 
ATOM      6  C   UNL     1       5.034  -0.014   2.396  0.00  0.00    +0.073 A 
ATOM      7  C   UNL     1       4.551   1.024   3.177  0.00  0.00    +0.027 A 
ATOM      8  C   UNL     1       5.353   2.120   3.438  0.00  0.00    +0.002 A 
ATOM      9  C   UNL     1       6.633   2.180   2.921  0.00  0.00    +0.004 A 
ATOM     10  C   UNL     1       7.122   1.144   2.153  0.00  0.00    +0.047 A 
ENDROOT
BRANCH   3  11
ATOM     11  C   UNL     1       6.592  -3.037  -0.085  0.00  0.00    +0.258 C 
ATOM     12  O   UNL     1       7.786  -3.164   0.086  0.00  0.00    -0.271 OA
ATOM     13  N   UNL     1       5.911  -3.958  -0.794  0.00  0.00    -0.294 N 
ATOM     14  C   UNL     1       4.463  -3.822  -1.020  0.00  0.00    +0.136 C 
ATOM     15  C   UNL     1       4.190  -3.988  -2.519  0.00  0.00    +0.179 C 
ATOM     16  O   UNL     1       4.792  -5.202  -2.976  0.00  0.00    -0.377 OA
ATOM     17  C   UNL     1       6.216  -5.233  -2.849  0.00  0.00    +0.179 C 
ATOM     18  C   UNL     1       6.594  -5.127  -1.371  0.00  0.00    +0.136 C 
ENDBRANCH   3  11
BRANCH   1  19
ATOM     19  C   UNL     1       2.783  -1.099   2.395  0.00  0.00    +0.201 C 
BRANCH  19  21
ATOM     20  N   UNL     1       0.711  -0.489   1.189  0.00  0.00    -0.307 N 
ATOM     21  C   UNL     1       2.054  -0.600   1.174  0.00  0.00    +0.231 C 
ATOM     22  O   UNL     1       2.676  -0.297   0.177  0.00  0.00    -0.274 OA
ATOM     23  H   UNL     1       0.213  -0.731   1.986  0.00  0.00    +0.149 HD
BRANCH  20  25
ATOM     24  C   UNL     1      -0.019   1.526   0.010  0.00  0.00    +0.033 C 
ATOM     25  C   UNL     1       0.002  -0.004   0.002  0.00  0.00    +0.100 C 
BRANCH  25  26
ATOM     26  C   UNL     1      -1.412  -0.526   0.013  0.00  0.00    -0.027 A 
ATOM     27  C   UNL     1      -2.119  -0.567   1.213  0.00  0.00    +0.006 A 
ATOM     28  C   UNL     1      -3.397  -1.032   1.257  0.00  0.00    +0.009 A 
ATOM     29  C   UNL     1      -4.016  -1.479   0.077  0.00  0.00    -0.018 A 
ATOM     30  C   UNL     1      -5.334  -1.966   0.084  0.00  0.00    +0.008 A 
ATOM     31  C   UNL     1      -5.901  -2.389  -1.079  0.00  0.00    +0.001 A 
ATOM     32  C   UNL     1      -5.194  -2.348  -2.279  0.00  0.00    +0.001 A 
ATOM     33  C   UNL     1      -3.916  -1.883  -2.324  0.00  0.00    +0.008 A 
ATOM     34  C   UNL     1      -3.297  -1.437  -1.143  0.00  0.00    -0.018 A 
ATOM     35  C   UNL     1      -1.980  -0.944  -1.151  0.00  0.00    +0.014 A 
ENDBRANCH  25  26
ENDBRANCH  20  25
ENDBRANCH  19  21
ENDBRANCH   1  19
TORSDOF 5
