REMARK  Name = ZINC53750630
REMARK  4 active torsions:
REMARK  status: ('A' for Active; 'I' for Inactive)
REMARK    1  A    between atoms: C_1  and  C_2
REMARK    2  A    between atoms: C_2  and  C_3
REMARK    3  A    between atoms: C_2  and  N_4
REMARK    4  A    between atoms: C_7  and  C_10
REMARK                            x       y       z     vdW  Elec       q    Type
REMARK                         _______ _______ _______ _____ _____    ______ ____
ROOT
ATOM      1  N   UNL     1      -1.372  -0.511   0.012  0.00  0.00    -0.295 N 
ATOM      2  C   UNL     1      -1.648  -1.758  -0.494  0.00  0.00    +0.315 A 
ATOM      3  N   UNL     1      -2.833  -2.322  -0.548  0.00  0.00    -0.174 NA
ATOM      4  C   UNL     1      -2.734  -3.540  -1.104  0.00  0.00    +0.205 A 
ATOM      5  N   UNL     1      -1.480  -3.764  -1.412  0.00  0.00    -0.054 NA
ATOM      6  O   UNL     1      -0.754  -2.607  -1.026  0.00  0.00    -0.317 OA
ATOM      7  H   UNL     1      -2.087   0.033   0.377  0.00  0.00    +0.151 HD
ENDROOT
BRANCH   4   8
ATOM      8  C   UNL     1      -3.861  -4.479  -1.333  0.00  0.00    +0.036 A 
ATOM      9  C   UNL     1      -5.156  -4.121  -0.964  0.00  0.00    +0.013 A 
ATOM     10  C   UNL     1      -6.200  -4.997  -1.179  0.00  0.00    +0.001 A 
ATOM     11  C   UNL     1      -5.963  -6.231  -1.760  0.00  0.00    +0.001 A 
ATOM     12  C   UNL     1      -4.680  -6.593  -2.127  0.00  0.00    +0.016 A 
ATOM     13  C   UNL     1      -3.628  -5.721  -1.922  0.00  0.00    +0.029 A 
ATOM     14 BR   UNL     1      -1.875  -6.214  -2.433  0.00  0.00    -0.050 Br
ENDBRANCH   4   8
BRANCH   1  16
ATOM     15  C   UNL     1      -0.019   1.526   0.010  0.00  0.00    +0.027 C 
ATOM     16  C   UNL     1       0.002  -0.004   0.002  0.00  0.00    +0.068 C 
ATOM     17  C   UNL     1       0.742  -0.511   1.242  0.00  0.00    +0.027 C 
ENDBRANCH   1  16
TORSDOF 2
