REMARK  Name = ZINC39852045
REMARK  9 active torsions:
REMARK  status: ('A' for Active; 'I' for Inactive)
REMARK    1  A    between atoms: C_1  and  C_2
REMARK    2  A    between atoms: C_6  and  C_7
REMARK    3  A    between atoms: N_9  and  C_10
REMARK    4  A    between atoms: C_12  and  C_20
REMARK    5  A    between atoms: C_15  and  C_16
REMARK    6  A    between atoms: C_16  and  O_18
REMARK    7  A    between atoms: O_18  and  C_19
REMARK    8  A    between atoms: C_20  and  O_22
REMARK    9  A    between atoms: O_22  and  C_23
REMARK                            x       y       z     vdW  Elec       q    Type
REMARK                         _______ _______ _______ _____ _____    ______ ____
ROOT
ATOM      1  C   UNL     1       0.031  -0.399   2.496  0.00  0.00    +0.284 C 
ATOM      2  O   UNL     1       0.002   0.787   2.768  0.00  0.00    -0.266 OA
ATOM      3  N   UNL     1       0.057  -1.316   3.483  0.00  0.00    -0.278 N 
ATOM      4  H   UNL     1      -0.001  -2.260   3.268  0.00  0.00    +0.155 HD
ENDROOT
BRANCH   1  10
ATOM      5  C   UNL     1      -0.026   1.500   0.010  0.00  0.00    +0.048 C 
ATOM      6  C   UNL     1       0.012  -0.006   0.002  0.00  0.00    +0.005 A 
ATOM      7  C   UNL     1       0.035  -0.834  -1.122  0.00  0.00    +0.023 A 
ATOM      8  C   UNL     1       0.066  -2.118  -0.676  0.00  0.00    +0.112 A 
ATOM      9  O   UNL     1       0.064  -2.107   0.657  0.00  0.00    -0.454 OA
ATOM     10  C   UNL     1       0.037  -0.829   1.095  0.00  0.00    +0.193 A 
ATOM     11  C   UNL     1       0.096  -3.317  -1.594  0.00  0.00    +0.075 C 
ATOM     12  C   UNL     1      -0.368  -2.886  -2.990  0.00  0.00    +0.010 C 
ATOM     13  C   UNL     1       0.417  -1.647  -3.437  0.00  0.00    +0.034 C 
ATOM     14  C   UNL     1       0.029  -0.459  -2.570  0.00  0.00    +0.090 C 
ATOM     15  S   UNL     1      -1.598   0.202  -3.067  0.00  0.00    -0.138 S 
ATOM     16  C   UNL     1      -1.259   1.922  -3.594  0.00  0.00    +0.081 C 
ATOM     17  C   UNL     1       0.208   1.954  -4.095  0.00  0.00    +0.081 C 
ATOM     18  S   UNL     1       1.152   0.953  -2.878  0.00  0.00    -0.138 S 
ENDBRANCH   1  10
BRANCH   3  19
ATOM     19  C   UNL     1       0.168  -0.909   4.809  0.00  0.00    +0.049 A 
ATOM     20  C   UNL     1       0.760   0.308   5.116  0.00  0.00    +0.039 A 
ATOM     21  C   UNL     1       0.870   0.712   6.444  0.00  0.00    +0.061 A 
ATOM     22  C   UNL     1       0.385  -0.107   7.468  0.00  0.00    +0.016 A 
ATOM     23  C   UNL     1      -0.203  -1.315   7.169  0.00  0.00    +0.017 A 
ATOM     24  C   UNL     1      -0.323  -1.725   5.839  0.00  0.00    +0.080 A 
BRANCH  24  25
ATOM     25  C   UNL     1      -0.959  -3.018   5.518  0.00  0.00    +0.341 C 
ATOM     26  O   UNL     1      -0.978  -3.417   4.371  0.00  0.00    -0.245 OA
BRANCH  25  27
ATOM     27  O   UNL     1      -1.519  -3.754   6.498  0.00  0.00    -0.464 OA
ATOM     28  C   UNL     1      -2.117  -4.994   6.116  0.00  0.00    +0.280 C 
ENDBRANCH  25  27
ENDBRANCH  24  25
BRANCH  21  29
ATOM     29  C   UNL     1       1.501   2.009   6.772  0.00  0.00    +0.339 C 
ATOM     30  O   UNL     1       1.923   2.721   5.884  0.00  0.00    -0.245 OA
BRANCH  29  31
ATOM     31  O   UNL     1       1.607   2.401   8.057  0.00  0.00    -0.464 OA
ATOM     32  C   UNL     1       2.227   3.665   8.300  0.00  0.00    +0.280 C 
ENDBRANCH  29  31
ENDBRANCH  21  29
ENDBRANCH   3  19
TORSDOF 6
