REMARK  Name = ZINC07883437
REMARK  6 active torsions:
REMARK  status: ('A' for Active; 'I' for Inactive)
REMARK    1  A    between atoms: C_1  and  C_2
REMARK    2  A    between atoms: C_4  and  C_27
REMARK    3  A    between atoms: C_6  and  N_8
REMARK    4  A    between atoms: C_13  and  C_16
REMARK    5  A    between atoms: C_16  and  C_17
REMARK    6  A    between atoms: N_19  and  C_20
REMARK                            x       y       z     vdW  Elec       q    Type
REMARK                         _______ _______ _______ _____ _____    ______ ____
ROOT
ATOM      1  N   UNL     1       0.036  -2.841   2.362  0.00  0.00    -0.226 NA
ATOM      2  C   UNL     1       0.841  -2.463   3.327  0.00  0.00    +0.161 C 
ATOM      3  N   UNL     1       1.725  -1.405   3.332  0.00  0.00    -0.264 N 
ATOM      4  C   UNL     1       2.488  -1.123   4.375  0.00  0.00    +0.232 C 
ATOM      5  O   UNL     1       3.264  -0.191   4.372  0.00  0.00    -0.274 OA
ATOM      6  C   UNL     1       2.331  -2.041   5.577  0.00  0.00    +0.149 C 
ATOM      7  S   UNL     1       1.042  -3.192   4.945  0.00  0.00    -0.077 S 
ATOM      8  H   UNL     1       1.791  -0.848   2.541  0.00  0.00    +0.157 HD
ENDROOT
BRANCH   1  14
ATOM      9  C   UNL     1      -0.048   1.433  -0.025  0.00  0.00    +0.044 C 
ATOM     10  C   UNL     1      -0.024  -0.074  -0.021  0.00  0.00    -0.048 A 
ATOM     11  C   UNL     1      -0.022  -0.767  -1.219  0.00  0.00    +0.006 A 
ATOM     12  C   UNL     1      -0.000  -2.150  -1.225  0.00  0.00    -0.048 A 
ATOM     13  C   UNL     1       0.019  -2.848  -0.035  0.00  0.00    +0.031 A 
ATOM     14  C   UNL     1       0.017  -2.155   1.177  0.00  0.00    +0.067 A 
ATOM     15  C   UNL     1       0.001  -0.759   1.176  0.00  0.00    +0.031 A 
ATOM     16  C   UNL     1       0.001  -2.896  -2.534  0.00  0.00    +0.044 C 
ENDBRANCH   1  14
BRANCH   6  17
ATOM     17  C   UNL     1       3.636  -2.777   5.887  0.00  0.00    +0.120 C 
BRANCH  17  18
ATOM     18  C   UNL     1       3.473  -3.578   7.153  0.00  0.00    +0.219 C 
ATOM     19  O   UNL     1       2.417  -3.561   7.749  0.00  0.00    -0.275 OA
ATOM     20  N   UNL     1       4.501  -4.312   7.623  0.00  0.00    -0.283 N 
ATOM     21  H   UNL     1       5.324  -4.377   7.113  0.00  0.00    +0.155 HD
BRANCH  20  22
ATOM     22  C   UNL     1       4.381  -4.981   8.847  0.00  0.00    +0.069 A 
ATOM     23  C   UNL     1       3.158  -5.514   9.232  0.00  0.00    +0.026 A 
ATOM     24  C   UNL     1       3.042  -6.174  10.440  0.00  0.00    +0.002 A 
ATOM     25  C   UNL     1       4.143  -6.305  11.267  0.00  0.00    +0.003 A 
ATOM     26  C   UNL     1       5.363  -5.776  10.889  0.00  0.00    +0.040 A 
ATOM     27  C   UNL     1       5.487  -5.119   9.678  0.00  0.00    +0.144 A 
ATOM     28  F   UNL     1       6.681  -4.607   9.305  0.00  0.00    -0.204 F 
ENDBRANCH  20  22
ENDBRANCH  17  18
ENDBRANCH   6  17
TORSDOF 4
