REMARK  Name = ZINC13064723
REMARK  13 active torsions:
REMARK  status: ('A' for Active; 'I' for Inactive)
REMARK    1  A    between atoms: C_1  and  C_2
REMARK    2  A    between atoms: C_2  and  C_3
REMARK    3  A    between atoms: C_3  and  C_5
REMARK    4  A    between atoms: C_3  and  N_72
REMARK    5  A    between atoms: N_9  and  C_10
REMARK    6  A    between atoms: C_10  and  C_11
REMARK    7  A    between atoms: C_11  and  C_12
REMARK    8  A    between atoms: C_18  and  C_19
REMARK    9  A    between atoms: C_18  and  N_72
REMARK   10  A    between atoms: C_25  and  C_26
REMARK   11  A    between atoms: C_25  and  N_72
REMARK   12  A    between atoms: C_30  and  C_39
REMARK   13  A    between atoms: C_31  and  C_38
REMARK                            x       y       z     vdW  Elec       q    Type
REMARK                         _______ _______ _______ _____ _____    ______ ____
ROOT
ATOM      1  N   UNL     1      -5.468   4.062  -1.770  0.00  0.00    +0.392 N 
ATOM      2  H   UNL     1      -4.906   4.447  -2.538  0.00  0.00    -0.080 HD
ENDROOT
BRANCH   1   3
ATOM      3  C   UNL     1      -6.786   4.732  -1.758  0.00  0.00    +0.003 C 
BRANCH   3   4
ATOM      4  C   UNL     1      -6.599   6.166  -2.182  0.00  0.00    +0.138 A 
ATOM      5  N   UNL     1      -5.641   6.976  -1.804  0.00  0.00    -0.115 NA
ATOM      6  N   UNL     1      -5.827   8.111  -2.384  0.00  0.00    -0.023 NA
ATOM      7  N   UNL     1      -6.884   8.049  -3.116  0.00  0.00    -0.044 NA
ATOM      8  N   UNL     1      -7.389   6.866  -3.018  0.00  0.00    -0.231 N 
BRANCH   8   9
ATOM      9  C   UNL     1      -8.595   6.376  -3.690  0.00  0.00    +0.152 C 
BRANCH   9  10
ATOM     10  C   UNL     1      -9.815   6.639  -2.805  0.00  0.00    +0.058 C 
BRANCH  10  11
ATOM     11  C   UNL     1     -11.055   6.135  -3.497  0.00  0.00    -0.046 A 
ATOM     12  C   UNL     1     -11.773   6.975  -4.329  0.00  0.00    +0.004 A 
ATOM     13  C   UNL     1     -12.907   6.511  -4.967  0.00  0.00    +0.000 A 
ATOM     14  C   UNL     1     -13.331   5.211  -4.766  0.00  0.00    +0.000 A 
ATOM     15  C   UNL     1     -12.617   4.373  -3.930  0.00  0.00    +0.000 A 
ATOM     16  C   UNL     1     -11.479   4.835  -3.296  0.00  0.00    +0.004 A 
ENDBRANCH  10  11
ENDBRANCH   9  10
ENDBRANCH   8   9
ENDBRANCH   3   4
BRANCH   3  18
ATOM     17  C   UNL     1      -7.709   3.241   0.022  0.00  0.00    +0.002 C 
ATOM     18  C   UNL     1      -7.394   4.690  -0.354  0.00  0.00    -0.011 C 
ENDBRANCH   3  18
ENDBRANCH   1   3
BRANCH   1  19
ATOM     19  C   UNL     1      -5.642   2.610  -1.982  0.00  0.00    -0.042 C 
BRANCH  19  20
ATOM     20  C   UNL     1      -6.085   2.377  -3.404  0.00  0.00    -0.064 A 
ATOM     21  C   UNL     1      -7.428   2.230  -3.694  0.00  0.00    +0.002 A 
ATOM     22  C   UNL     1      -7.835   2.022  -4.999  0.00  0.00    +0.000 A 
ATOM     23  C   UNL     1      -6.897   1.950  -6.012  0.00  0.00    +0.000 A 
ATOM     24  C   UNL     1      -5.553   2.092  -5.721  0.00  0.00    +0.000 A 
ATOM     25  C   UNL     1      -5.147   2.306  -4.417  0.00  0.00    +0.002 A 
ENDBRANCH  19  20
ENDBRANCH   1  19
BRANCH   1  26
ATOM     26  C   UNL     1      -4.766   4.305  -0.492  0.00  0.00    -0.036 C 
BRANCH  26  27
ATOM     27  C   UNL     1      -3.324   3.897  -0.646  0.00  0.00    +0.001 A 
ATOM     28  C   UNL     1      -2.391   4.825  -0.976  0.00  0.00    +0.017 A 
ATOM     29  C   UNL     1      -1.000   4.395  -1.124  0.00  0.00    -0.001 A 
ATOM     30  C   UNL     1       0.004   5.302  -1.481  0.00  0.00    +0.013 A 
ATOM     31  C   UNL     1       1.293   4.870  -1.611  0.00  0.00    -0.047 A 
ATOM     32  C   UNL     1       1.616   3.537  -1.392  0.00  0.00    -0.046 A 
ATOM     33  C   UNL     1       0.644   2.626  -1.040  0.00  0.00    +0.030 A 
ATOM     34  C   UNL     1      -0.676   3.042  -0.907  0.00  0.00    +0.049 A 
ATOM     35  N   UNL     1      -1.670   2.151  -0.561  0.00  0.00    -0.322 N 
ATOM     36  H   UNL     1      -1.445   1.220  -0.408  0.00  0.00    +0.169 HD
ATOM     37  C   UNL     1      -2.946   2.554  -0.434  0.00  0.00    +0.251 A 
ATOM     38  O   UNL     1      -3.799   1.739  -0.128  0.00  0.00    -0.268 OA
ATOM     39  C   UNL     1       3.045   3.083  -1.541  0.00  0.00    +0.044 C 
ATOM     40  C   UNL     1       2.374   5.847  -1.995  0.00  0.00    +0.044 C 
ENDBRANCH  26  27
ENDBRANCH   1  26
TORSDOF 10
