REMARK  Name = ZINC32123981
REMARK  9 active torsions:
REMARK  status: ('A' for Active; 'I' for Inactive)
REMARK    1  A    between atoms: C_1  and  C_2
REMARK    2  A    between atoms: C_6  and  C_37
REMARK    3  A    between atoms: C_7  and  C_8
REMARK    4  A    between atoms: C_20  and  N_21
REMARK    5  A    between atoms: N_21  and  C_22
REMARK    6  A    between atoms: C_27  and  O_35
REMARK    7  A    between atoms: C_28  and  O_33
REMARK    8  A    between atoms: O_33  and  C_34
REMARK    9  A    between atoms: O_35  and  C_36
REMARK                            x       y       z     vdW  Elec       q    Type
REMARK                         _______ _______ _______ _____ _____    ______ ____
ROOT
ATOM      1  C   UNL     1      -7.487  -0.654  -3.006  0.00  0.00    +0.011 C 
ATOM      2  C   UNL     1      -8.244  -0.709  -1.678  0.00  0.00    -0.027 C 
ATOM      3  C   UNL     1      -7.599  -1.745  -0.749  0.00  0.00    -0.066 C 
ATOM      4  N   UNL     1      -8.329  -1.759   0.529  0.00  0.00    +0.399 N 
ATOM      5  C   UNL     1      -9.722  -2.185   0.326  0.00  0.00    -0.066 C 
ATOM      6  C   UNL     1     -10.429  -1.162  -0.572  0.00  0.00    -0.027 C 
ATOM      7  C   UNL     1      -9.719  -1.105  -1.930  0.00  0.00    +0.030 C 
ATOM      8  C   UNL     1     -10.340   0.218   0.090  0.00  0.00    +0.089 C 
ATOM      9  N   UNL     1      -8.924   0.555   0.302  0.00  0.00    -0.301 NA
ATOM     10  C   UNL     1      -8.217   0.658  -0.984  0.00  0.00    +0.089 C 
ATOM     11  C   UNL     1      -8.277  -0.438   1.172  0.00  0.00    +0.073 C 
ATOM     12  C   UNL     1     -11.895  -1.558  -0.763  0.00  0.00    +0.011 C 
ATOM     13  H   UNL     1      -7.840  -2.484   1.196  0.00  0.00    -0.077 HD
ENDROOT
BRANCH   7  14
ATOM     14  C   UNL     1      -9.770  -2.461  -2.585  0.00  0.00    -0.040 A 
ATOM     15  C   UNL     1      -9.151  -2.661  -3.805  0.00  0.00    +0.008 A 
ATOM     16  C   UNL     1      -9.190  -3.904  -4.408  0.00  0.00    +0.050 A 
ATOM     17  C   UNL     1      -9.859  -4.951  -3.795  0.00  0.00    +0.166 A 
ATOM     18  C   UNL     1     -10.486  -4.748  -2.568  0.00  0.00    +0.166 A 
ATOM     19  C   UNL     1     -10.438  -3.501  -1.967  0.00  0.00    +0.053 A 
ATOM     20  O   UNL     1     -11.069  -5.920  -2.177  0.00  0.00    -0.453 OA
ATOM     21  C   UNL     1     -11.141  -6.729  -3.366  0.00  0.00    +0.466 C 
ATOM     22  O   UNL     1     -10.049  -6.249  -4.173  0.00  0.00    -0.453 OA
ENDBRANCH   7  14
BRANCH  11  23
ATOM     23  N   UNL     1      -6.876  -0.056   1.395  0.00  0.00    -0.278 NA
ATOM     24  H   UNL     1      -6.289  -0.273   0.490  0.00  0.00    +0.125 HD
BRANCH  23  25
ATOM     25  C   UNL     1      -6.300  -0.803   2.521  0.00  0.00    +0.278 C 
ATOM     26  C   UNL     1      -4.846  -1.101   2.254  0.00  0.00    +0.025 A 
ATOM     27  C   UNL     1      -4.193  -1.809   1.274  0.00  0.00    +0.013 A 
ATOM     28  C   UNL     1      -2.810  -1.907   1.289  0.00  0.00    +0.050 A 
ATOM     29  C   UNL     1      -2.078  -1.301   2.297  0.00  0.00    +0.162 A 
ATOM     30  C   UNL     1      -2.727  -0.580   3.295  0.00  0.00    +0.176 A 
ATOM     31  C   UNL     1      -4.123  -0.477   3.277  0.00  0.00    +0.112 A 
ATOM     32  C   UNL     1      -5.082   0.196   4.167  0.00  0.00    +0.345 C 
ATOM     33  O   UNL     1      -4.782   0.833   5.158  0.00  0.00    -0.245 OA
ATOM     34  O   UNL     1      -6.338   0.006   3.728  0.00  0.00    -0.438 OA
BRANCH  30  35
ATOM     35  O   UNL     1      -2.010   0.018   4.280  0.00  0.00    -0.491 OA
ATOM     36  C   UNL     1      -1.580   1.361   4.046  0.00  0.00    +0.277 C 
ENDBRANCH  30  35
BRANCH  29  37
ATOM     37  O   UNL     1      -0.722  -1.405   2.307  0.00  0.00    -0.491 OA
ATOM     38  C   UNL     1      -0.121  -2.160   1.253  0.00  0.00    +0.277 C 
ENDBRANCH  29  37
ENDBRANCH  23  25
ENDBRANCH  11  23
TORSDOF 5
