REMARK  Name = ZINC13552847
REMARK  6 active torsions:
REMARK  status: ('A' for Active; 'I' for Inactive)
REMARK    1  A    between atoms: C_1  and  C_2
REMARK    2  A    between atoms: C_4  and  C_25
REMARK    3  A    between atoms: C_6  and  N_8
REMARK    4  A    between atoms: C_11  and  C_13
REMARK    5  A    between atoms: C_14  and  C_20
REMARK    6  A    between atoms: C_17  and  O_19
REMARK                            x       y       z     vdW  Elec       q    Type
REMARK                         _______ _______ _______ _____ _____    ______ ____
ROOT
ATOM      1  N   UNL     1       0.052  -2.798   2.394  0.00  0.00    -0.214 N 
ATOM      2  C   UNL     1       0.675  -2.419   3.534  0.00  0.00    +0.164 A 
ATOM      3  C   UNL     1       0.427  -3.405   4.481  0.00  0.00    +0.028 A 
ATOM      4  C   UNL     1      -0.348  -4.382   3.885  0.00  0.00    +0.066 A 
ATOM      5  N   UNL     1      -0.581  -4.027   2.642  0.00  0.00    -0.169 NA
ATOM      6  C   UNL     1      -0.846  -5.638   4.551  0.00  0.00    +0.068 C 
ATOM      7  C   UNL     1       0.964  -3.301   5.886  0.00  0.00    +0.070 C 
ATOM      8  C   UNL     1       2.266  -2.494   5.827  0.00  0.00    +0.109 C 
ATOM      9  C   UNL     1       2.139  -1.311   4.912  0.00  0.00    +0.190 C 
ATOM     10  N   UNL     1       1.409  -1.311   3.837  0.00  0.00    -0.197 NA
ENDROOT
BRANCH   1  16
ATOM     11  C   UNL     1      -0.018   1.503   0.010  0.00  0.00    +0.044 C 
ATOM     12  C   UNL     1       0.002  -0.004   0.002  0.00  0.00    -0.048 A 
ATOM     13  C   UNL     1       0.006  -0.688  -1.200  0.00  0.00    +0.006 A 
ATOM     14  C   UNL     1       0.025  -2.071  -1.212  0.00  0.00    -0.048 A 
ATOM     15  C   UNL     1       0.040  -2.773  -0.022  0.00  0.00    +0.031 A 
ATOM     16  C   UNL     1       0.037  -2.089   1.186  0.00  0.00    +0.068 A 
ATOM     17  C   UNL     1       0.023  -0.700   1.195  0.00  0.00    +0.031 A 
ATOM     18  C   UNL     1       0.028  -2.812  -2.523  0.00  0.00    +0.044 C 
ENDBRANCH   1  16
BRANCH   7  19
ATOM     19  C   UNL     1      -0.037  -2.596   6.765  0.00  0.00    -0.002 A 
ATOM     20  C   UNL     1      -0.658  -3.046   7.883  0.00  0.00    +0.012 A 
ATOM     21  C   UNL     1      -1.548  -2.214   8.536  0.00  0.00    +0.008 A 
ATOM     22  C   UNL     1      -1.774  -0.973   8.039  0.00  0.00    +0.045 A 
ATOM     23  S   UNL     1      -0.706  -0.948   6.609  0.00  0.00    -0.101 S 
ENDBRANCH   7  19
BRANCH   9  24
ATOM     24  O   UNL     1       2.818  -0.187   5.223  0.00  0.00    -0.495 OA
ATOM     25  H   UNL     1       2.692   0.535   4.593  0.00  0.00    +0.293 HD
ENDBRANCH   9  24
TORSDOF 3
