REMARK  Name = ZINC20123717
REMARK  13 active torsions:
REMARK  status: ('A' for Active; 'I' for Inactive)
REMARK    1  A    between atoms: C_1  and  N_2
REMARK    2  A    between atoms: C_5  and  C_6
REMARK    3  A    between atoms: C_9  and  O_14
REMARK    4  A    between atoms: C_10  and  O_12
REMARK    5  A    between atoms: O_12  and  C_13
REMARK    6  A    between atoms: O_14  and  C_15
REMARK    7  A    between atoms: C_19  and  C_27
REMARK    8  A    between atoms: C_21  and  C_25
REMARK    9  A    between atoms: C_22  and  N_24
REMARK   10  A    between atoms: C_30  and  O_35
REMARK   11  A    between atoms: C_31  and  O_33
REMARK   12  A    between atoms: O_33  and  C_34
REMARK   13  A    between atoms: O_35  and  C_36
REMARK                            x       y       z     vdW  Elec       q    Type
REMARK                         _______ _______ _______ _____ _____    ______ ____
ROOT
ATOM      1  C   UNL     1      -1.116  -4.256   5.760  0.00  0.00    +0.105 C 
ATOM      2  N   UNL     1       0.183  -3.582   5.630  0.00  0.00    -0.297 NA
ATOM      3  C   UNL     1       1.240  -4.332   6.333  0.00  0.00    +0.123 C 
ATOM      4  C   UNL     1       2.556  -3.664   5.994  0.00  0.00    +0.010 C 
ATOM      5  C   UNL     1       3.659  -4.388   5.733  0.00  0.00    +0.016 C 
ATOM      6  C   UNL     1       2.584  -2.187   5.960  0.00  0.00    +0.136 C 
ATOM      7  C   UNL     1       1.439  -1.504   6.007  0.00  0.00    -0.001 C 
ATOM      8  C   UNL     1       0.110  -2.205   6.122  0.00  0.00    +0.120 C 
ATOM      9  C   UNL     1       1.449   0.005   5.953  0.00  0.00    +0.095 C 
ATOM     10  C   UNL     1       2.815   0.533   6.290  0.00  0.00    +0.098 C 
ATOM     11  C   UNL     1       3.903  -0.275   6.234  0.00  0.00    +0.199 C 
ATOM     12  O   UNL     1       3.785  -1.565   5.874  0.00  0.00    -0.441 OA
ENDROOT
BRANCH   5  13
ATOM     13  C   UNL     1       3.646  -5.847   5.936  0.00  0.00    -0.021 A 
ATOM     14  C   UNL     1       2.874  -6.406   6.959  0.00  0.00    +0.012 A 
ATOM     15  C   UNL     1       2.864  -7.771   7.147  0.00  0.00    +0.050 A 
ATOM     16  C   UNL     1       3.618  -8.594   6.323  0.00  0.00    +0.162 A 
ATOM     17  C   UNL     1       4.391  -8.045   5.302  0.00  0.00    +0.162 A 
ATOM     18  C   UNL     1       4.403  -6.677   5.104  0.00  0.00    +0.057 A 
BRANCH  17  19
ATOM     19  O   UNL     1       5.128  -8.855   4.497  0.00  0.00    -0.491 OA
ATOM     20  C   UNL     1       5.896  -8.224   3.470  0.00  0.00    +0.277 C 
ENDBRANCH  17  19
BRANCH  16  21
ATOM     21  O   UNL     1       3.604  -9.940   6.513  0.00  0.00    -0.491 OA
ATOM     22  C   UNL     1       2.790 -10.437   7.577  0.00  0.00    +0.277 C 
ENDBRANCH  16  21
ENDBRANCH   5  13
BRANCH   9  23
ATOM     23  C   UNL     1       1.069   0.456   4.566  0.00  0.00    -0.031 A 
ATOM     24  C   UNL     1       1.849   0.092   3.484  0.00  0.00    +0.008 A 
ATOM     25  C   UNL     1       1.501   0.498   2.209  0.00  0.00    +0.050 A 
ATOM     26  C   UNL     1       0.376   1.282   2.015  0.00  0.00    +0.162 A 
ATOM     27  C   UNL     1      -0.409   1.650   3.104  0.00  0.00    +0.162 A 
ATOM     28  C   UNL     1      -0.058   1.234   4.378  0.00  0.00    +0.054 A 
BRANCH  27  29
ATOM     29  O   UNL     1      -1.517   2.416   2.918  0.00  0.00    -0.491 OA
ATOM     30  C   UNL     1      -2.274   2.755   4.082  0.00  0.00    +0.277 C 
ENDBRANCH  27  29
BRANCH  26  31
ATOM     31  O   UNL     1       0.035   1.688   0.762  0.00  0.00    -0.491 OA
ATOM     32  C   UNL     1       0.887   1.273  -0.307  0.00  0.00    +0.277 C 
ENDBRANCH  26  31
ENDBRANCH   9  23
BRANCH  11  33
ATOM     33  N   UNL     1       5.140   0.231   6.547  0.00  0.00    -0.328 N 
ATOM     34  H   UNL     1       6.027  -0.418   6.504  0.00  0.00    +0.145 HD
ATOM     35  H   UNL     1       5.244   1.285   6.842  0.00  0.00    +0.145 HD
ENDBRANCH  11  33
BRANCH  10  36
ATOM     36  C   UNL     1       2.970   1.903   6.675  0.00  0.00    +0.101 C 
ATOM     37  N   UNL     1       3.092   2.990   6.981  0.00  0.00    -0.191 NA
ENDBRANCH  10  36
TORSDOF 8
