REMARK  Name = ZINC00177593
REMARK  5 active torsions:
REMARK  status: ('A' for Active; 'I' for Inactive)
REMARK    1  A    between atoms: C_1  and  C_2
REMARK    2  A    between atoms: C_3  and  C_17
REMARK    3  A    between atoms: C_4  and  C_10
REMARK    4  A    between atoms: C_17  and  O_19
REMARK    5  A    between atoms: O_19  and  C_20
REMARK                            x       y       z     vdW  Elec       q    Type
REMARK                         _______ _______ _______ _____ _____    ______ ____
ROOT
ATOM      1  C   UNL     1       3.236   6.256  -2.993  0.00  0.00    +0.061 C 
ATOM      2  C   UNL     1       2.908   5.738  -1.616  0.00  0.00    +0.021 C 
ATOM      3  C   UNL     1       2.524   4.452  -1.464  0.00  0.00    +0.078 C 
ATOM      4  C   UNL     1       2.203   3.973  -0.063  0.00  0.00    +0.144 C 
ATOM      5  N   UNL     1       2.336   4.955   1.025  0.00  0.00    -0.288 N 
ATOM      6  C   UNL     1       2.731   6.206   0.715  0.00  0.00    +0.304 C 
ATOM      7  O   UNL     1       2.845   7.025   1.607  0.00  0.00    -0.252 OA
ATOM      8  N   UNL     1       3.002   6.577  -0.543  0.00  0.00    -0.273 N 
ATOM      9  H   UNL     1       2.144   4.709   1.943  0.00  0.00    +0.151 HD
ATOM     10  H   UNL     1       3.282   7.492  -0.700  0.00  0.00    +0.156 HD
ENDROOT
BRANCH   4  11
ATOM     11  C   UNL     1       0.783   3.466  -0.060  0.00  0.00    -0.021 A 
ATOM     12  C   UNL     1       0.534   2.108  -0.137  0.00  0.00    +0.006 A 
ATOM     13  C   UNL     1      -0.767   1.642  -0.134  0.00  0.00    +0.002 A 
ATOM     14  C   UNL     1      -1.821   2.534  -0.058  0.00  0.00    +0.020 A 
ATOM     15  C   UNL     1      -1.572   3.893   0.024  0.00  0.00    +0.041 A 
ATOM     16  C   UNL     1      -0.269   4.358   0.020  0.00  0.00    +0.025 A 
ATOM     17 CL   UNL     1      -2.894   5.013   0.124  0.00  0.00    -0.084 Cl
ENDBRANCH   4  11
BRANCH   3  18
ATOM     18  C   UNL     1       2.425   3.582  -2.576  0.00  0.00    +0.339 C 
ATOM     19  O   UNL     1       2.564   4.018  -3.703  0.00  0.00    -0.245 OA
BRANCH  18  20
ATOM     20  O   UNL     1       2.175   2.270  -2.385  0.00  0.00    -0.458 OA
BRANCH  20  21
ATOM     21  C   UNL     1       2.088   1.450  -3.552  0.00  0.00    +0.177 C 
ATOM     22  C   UNL     1       0.621   1.349  -4.019  0.00  0.00    +0.044 C 
ATOM     23  C   UNL     1       0.482  -0.110  -4.521  0.00  0.00    +0.004 C 
ATOM     24  C   UNL     1       1.340  -0.904  -3.505  0.00  0.00    +0.004 C 
ATOM     25  C   UNL     1       2.545   0.018  -3.226  0.00  0.00    +0.044 C 
ENDBRANCH  20  21
ENDBRANCH  18  20
ENDBRANCH   3  18
TORSDOF 4
