REMARK  Name = ZINC62497118
REMARK  6 active torsions:
REMARK  status: ('A' for Active; 'I' for Inactive)
REMARK    1  A    between atoms: C_1  and  C_2
REMARK    2  A    between atoms: C_2  and  C_3
REMARK    3  A    between atoms: C_6  and  C_9
REMARK    4  A    between atoms: C_9  and  C_10
REMARK    5  A    between atoms: N_14  and  C_23
REMARK    6  A    between atoms: C_17  and  O_22
REMARK                            x       y       z     vdW  Elec       q    Type
REMARK                         _______ _______ _______ _____ _____    ______ ____
ROOT
ATOM      1  C   UNL     1       3.265  -0.728   5.522  0.00  0.00    +0.263 C 
ATOM      2  C   UNL     1       4.100  -1.223   6.675  0.00  0.00    +0.261 C 
ATOM      3  O   UNL     1       5.306  -1.296   6.567  0.00  0.00    -0.271 OA
ATOM      4  N   UNL     1       3.501  -1.585   7.829  0.00  0.00    -0.268 N 
ATOM      5  C   UNL     1       2.123  -1.375   7.979  0.00  0.00    +0.082 A 
ATOM      6  C   UNL     1       1.438  -1.936   9.045  0.00  0.00    +0.072 A 
ATOM      7  C   UNL     1       0.073  -1.730   9.173  0.00  0.00    +0.119 A 
ATOM      8  C   UNL     1      -0.606  -0.965   8.235  0.00  0.00    +0.049 A 
ATOM      9  C   UNL     1       0.077  -0.401   7.173  0.00  0.00    +0.051 A 
ATOM     10  C   UNL     1       1.442  -0.598   7.045  0.00  0.00    +0.143 A 
ATOM     11  O   UNL     1       2.127  -0.021   6.021  0.00  0.00    -0.477 OA
ATOM     12  C   UNL     1       4.280  -2.190   8.912  0.00  0.00    +0.138 C 
ENDROOT
BRANCH   7  13
ATOM     13  O   UNL     1      -0.602  -2.278  10.218  0.00  0.00    -0.507 OA
ATOM     14  H   UNL     1      -0.643  -1.711  11.001  0.00  0.00    +0.292 HD
ENDBRANCH   7  13
BRANCH   1  15
ATOM     15  C   UNL     1       2.797  -1.919   4.683  0.00  0.00    +0.089 C 
BRANCH  15  19
ATOM     16  C   UNL     1       0.731  -0.503   1.223  0.00  0.00    -0.048 A 
ATOM     17  C   UNL     1       2.097  -0.710   1.176  0.00  0.00    +0.004 A 
ATOM     18  C   UNL     1       2.766  -1.167   2.296  0.00  0.00    +0.004 A 
ATOM     19  C   UNL     1       2.068  -1.419   3.463  0.00  0.00    -0.043 A 
ATOM     20  C   UNL     1       0.702  -1.212   3.510  0.00  0.00    +0.004 A 
ATOM     21  C   UNL     1       0.034  -0.750   2.391  0.00  0.00    +0.004 A 
BRANCH  16  23
ATOM     22  C   UNL     1      -0.019   1.526   0.010  0.00  0.00    +0.009 C 
ATOM     23  C   UNL     1       0.002  -0.004   0.002  0.00  0.00    +0.032 C 
ENDBRANCH  16  23
ENDBRANCH  15  19
ENDBRANCH   1  15
TORSDOF 4
