REMARK  Name = ZINC28057751
REMARK  5 active torsions:
REMARK  status: ('A' for Active; 'I' for Inactive)
REMARK    1  A    between atoms: C_1  and  C_2
REMARK    2  A    between atoms: C_2  and  O_3
REMARK    3  A    between atoms: O_3  and  C_4
REMARK    4  A    between atoms: C_7  and  C_10
REMARK    5  A    between atoms: C_28  and  C_30
REMARK                            x       y       z     vdW  Elec       q    Type
REMARK                         _______ _______ _______ _____ _____    ______ ____
ROOT
ATOM      1  C   UNL     1      -3.486   1.701  -0.679  0.00  0.00    +0.234 C 
ATOM      2  C   UNL     1      -3.475   3.153  -0.256  0.00  0.00    +0.026 C 
ATOM      3  C   UNL     1      -2.319   3.717   0.100  0.00  0.00    +0.050 C 
ATOM      4  C   UNL     1      -1.091   2.888   0.072  0.00  0.00    +0.039 A 
ATOM      5  C   UNL     1       0.175   3.461   0.083  0.00  0.00    +0.033 A 
ATOM      6  C   UNL     1       1.292   2.646   0.060  0.00  0.00    +0.042 A 
ATOM      7  C   UNL     1       1.151   1.269   0.027  0.00  0.00    +0.023 A 
ATOM      8  C   UNL     1      -0.106   0.691   0.014  0.00  0.00    +0.048 A 
ATOM      9  C   UNL     1      -1.230   1.494   0.030  0.00  0.00    +0.131 A 
ATOM     10  O   UNL     1      -2.481   0.967   0.019  0.00  0.00    -0.479 OA
ATOM     11 CL   UNL     1       2.877   3.353   0.074  0.00  0.00    -0.084 Cl
ATOM     12  N   UNL     1      -2.233   5.056   0.501  0.00  0.00    -0.282 N 
ATOM     13  C   UNL     1      -3.419   5.708   0.793  0.00  0.00    +0.240 A 
ATOM     14  N   UNL     1      -3.652   6.838   1.397  0.00  0.00    -0.092 NA
ATOM     15  N   UNL     1      -4.921   7.055   1.463  0.00  0.00    -0.021 NA
ATOM     16  N   UNL     1      -5.574   6.085   0.909  0.00  0.00    -0.042 NA
ATOM     17  N   UNL     1      -4.621   5.177   0.449  0.00  0.00    -0.201 N 
ATOM     18  C   UNL     1      -4.778   3.913  -0.256  0.00  0.00    +0.177 C 
ATOM     19  H   UNL     1      -1.251   5.546   0.574  0.00  0.00    +0.155 HD
ENDROOT
BRANCH  18  20
ATOM     20  C   UNL     1      -5.198   4.184  -1.678  0.00  0.00    +0.017 A 
ATOM     21  C   UNL     1      -4.382   4.926  -2.511  0.00  0.00    +0.009 A 
ATOM     22  C   UNL     1      -4.764   5.169  -3.817  0.00  0.00    +0.001 A 
ATOM     23  C   UNL     1      -5.968   4.680  -4.288  0.00  0.00    +0.003 A 
ATOM     24  C   UNL     1      -6.789   3.943  -3.456  0.00  0.00    +0.039 A 
ATOM     25  C   UNL     1      -6.404   3.693  -2.149  0.00  0.00    +0.129 A 
ATOM     26  F   UNL     1      -7.205   2.972  -1.334  0.00  0.00    -0.205 F 
ENDBRANCH  18  20
BRANCH   1  30
ATOM     27  C   UNL     1      -2.749   1.453  -4.881  0.00  0.00    +0.121 A 
ATOM     28  C   UNL     1      -4.025   1.226  -4.385  0.00  0.00    +0.046 A 
ATOM     29  C   UNL     1      -4.260   1.306  -3.026  0.00  0.00    +0.011 A 
ATOM     30  C   UNL     1      -3.226   1.614  -2.161  0.00  0.00    -0.003 A 
ATOM     31  C   UNL     1      -1.956   1.847  -2.654  0.00  0.00    +0.011 A 
ATOM     32  C   UNL     1      -1.714   1.761  -4.011  0.00  0.00    +0.046 A 
BRANCH  27  33
ATOM     33  O   UNL     1      -2.515   1.375  -6.217  0.00  0.00    -0.492 OA
BRANCH  33  35
ATOM     34  C   UNL     1      -1.110   1.490  -8.180  0.00  0.00    +0.048 C 
ATOM     35  C   UNL     1      -1.178   1.622  -6.657  0.00  0.00    +0.225 C 
ENDBRANCH  33  35
ENDBRANCH  27  33
ENDBRANCH   1  30
TORSDOF 4
