REMARK  Name = ZINC39676603
REMARK  9 active torsions:
REMARK  status: ('A' for Active; 'I' for Inactive)
REMARK    1  A    between atoms: C_1  and  O_2
REMARK    2  A    between atoms: O_2  and  C_3
REMARK    3  A    between atoms: C_6  and  C_9
REMARK    4  A    between atoms: C_9  and  C_10
REMARK    5  A    between atoms: C_9  and  N_18
REMARK    6  A    between atoms: C_13  and  O_16
REMARK    7  A    between atoms: O_16  and  C_17
REMARK    8  A    between atoms: C_19  and  C_21
REMARK    9  A    between atoms: C_32  and  C_34
REMARK                            x       y       z     vdW  Elec       q    Type
REMARK                         _______ _______ _______ _____ _____    ______ ____
ROOT
ATOM      1  N   UNL     1       3.376  -4.343   5.342  0.00  0.00    -0.304 N 
ATOM      2  C   UNL     1       4.414  -4.150   4.504  0.00  0.00    +0.219 C 
ATOM      3  O   UNL     1       4.717  -3.026   4.162  0.00  0.00    -0.275 OA
ATOM      4  H   UNL     1       3.135  -5.241   5.616  0.00  0.00    +0.150 HD
ENDROOT
BRANCH   2   5
ATOM      5  C   UNL     1       5.199  -5.330   3.993  0.00  0.00    +0.100 C 
ATOM      6  C   UNL     1       5.740  -5.043   2.574  0.00  0.00    +0.121 C 
ATOM      7  N   UNL     1       7.117  -4.540   2.794  0.00  0.00    -0.300 N 
ATOM      8  C   UNL     1       7.645  -5.381   3.895  0.00  0.00    +0.115 C 
ATOM      9  C   UNL     1       6.452  -5.555   4.856  0.00  0.00    -0.004 C 
ATOM     10  C   UNL     1       6.446  -6.965   5.439  0.00  0.00    -0.010 C 
ATOM     11  C   UNL     1       7.671  -7.145   6.340  0.00  0.00    -0.082 C 
ATOM     12  N   UNL     1       7.640  -6.148   7.417  0.00  0.00    +0.379 N 
ATOM     13  C   UNL     1       7.740  -4.797   6.851  0.00  0.00    -0.082 C 
ATOM     14  C   UNL     1       6.518  -4.518   5.972  0.00  0.00    -0.010 C 
ATOM     15  C   UNL     1       7.746  -3.544   2.140  0.00  0.00    +0.219 C 
ATOM     16  O   UNL     1       8.884  -3.247   2.437  0.00  0.00    -0.275 OA
ATOM     17  H   UNL     1       6.774  -6.233   7.928  0.00  0.00    -0.086 HD
ATOM     18  H   UNL     1       8.414  -6.307   8.043  0.00  0.00    -0.086 HD
BRANCH  15  19
ATOM     19  C   UNL     1       7.037  -2.799   1.039  0.00  0.00    +0.079 C 
ATOM     20  C   UNL     1       6.653  -3.776  -0.077  0.00  0.00    +0.041 C 
ATOM     21  C   UNL     1       6.004  -2.999  -1.225  0.00  0.00    +0.160 C 
ATOM     22  O   UNL     1       6.910  -1.997  -1.692  0.00  0.00    -0.380 OA
ATOM     23  C   UNL     1       7.267  -1.028  -0.705  0.00  0.00    +0.160 C 
ATOM     24  C   UNL     1       7.967  -1.726   0.464  0.00  0.00    +0.041 C 
ENDBRANCH  15  19
ENDBRANCH   2   5
BRANCH   1  25
ATOM     25  C   UNL     1       2.614  -3.195   5.840  0.00  0.00    +0.134 C 
BRANCH  25  29
ATOM     26  C   UNL     1      -1.330  -4.456   6.897  0.00  0.00    +0.120 A 
ATOM     27  C   UNL     1      -1.137  -3.240   6.258  0.00  0.00    +0.046 A 
ATOM     28  C   UNL     1       0.139  -2.834   5.918  0.00  0.00    +0.009 A 
ATOM     29  C   UNL     1       1.223  -3.639   6.213  0.00  0.00    -0.023 A 
ATOM     30  C   UNL     1       1.033  -4.852   6.849  0.00  0.00    +0.009 A 
ATOM     31  C   UNL     1      -0.240  -5.260   7.197  0.00  0.00    +0.046 A 
BRANCH  26  33
ATOM     32  C   UNL     1      -3.659  -3.979   6.893  0.00  0.00    +0.277 C 
ATOM     33  O   UNL     1      -2.584  -4.857   7.233  0.00  0.00    -0.495 OA
ENDBRANCH  26  33
ENDBRANCH  25  29
BRANCH  25  34
ATOM     34  C   UNL     1       3.301  -2.623   7.053  0.00  0.00    -0.023 A 
ATOM     35  C   UNL     1       3.865  -3.470   7.990  0.00  0.00    +0.009 A 
ATOM     36  C   UNL     1       4.495  -2.948   9.103  0.00  0.00    +0.046 A 
ATOM     37  C   UNL     1       4.561  -1.574   9.281  0.00  0.00    +0.120 A 
ATOM     38  C   UNL     1       3.995  -0.727   8.340  0.00  0.00    +0.046 A 
ATOM     39  C   UNL     1       3.370  -1.253   7.225  0.00  0.00    +0.009 A 
BRANCH  37  40
ATOM     40  O   UNL     1       5.180  -1.058  10.375  0.00  0.00    -0.495 OA
ATOM     41  C   UNL     1       5.211   0.366  10.493  0.00  0.00    +0.277 C 
ENDBRANCH  37  40
ENDBRANCH  25  34
ENDBRANCH   1  25
TORSDOF 7
