REMARK  Name = ZINC09582099
REMARK  12 active torsions:
REMARK  status: ('A' for Active; 'I' for Inactive)
REMARK    1  A    between atoms: C_1  and  O_2
REMARK    2  A    between atoms: O_2  and  C_3
REMARK    3  A    between atoms: C_3  and  C_5
REMARK    4  A    between atoms: C_5  and  C_6
REMARK    5  A    between atoms: C_6  and  N_7
REMARK    6  A    between atoms: C_11  and  S_29
REMARK    7  A    between atoms: N_16  and  C_17
REMARK    8  A    between atoms: C_17  and  C_19
REMARK    9  A    between atoms: C_19  and  C_20
REMARK   10  A    between atoms: C_20  and  S_21
REMARK   11  A    between atoms: S_21  and  C_22
REMARK   12  A    between atoms: S_29  and  N_32
REMARK                            x       y       z     vdW  Elec       q    Type
REMARK                         _______ _______ _______ _____ _____    ______ ____
ROOT
ATOM      1  N   UNL     1      -0.754   3.461   1.277  0.00  0.00    -0.321 N 
ATOM      2  C   UNL     1      -1.807   4.140   0.692  0.00  0.00    +0.058 A 
ATOM      3  C   UNL     1      -2.935   3.609   0.048  0.00  0.00    +0.029 A 
ATOM      4  C   UNL     1      -3.895   4.437  -0.484  0.00  0.00    +0.030 A 
ATOM      5  C   UNL     1      -3.782   5.815  -0.401  0.00  0.00    +0.106 A 
ATOM      6  C   UNL     1      -2.679   6.365   0.229  0.00  0.00    +0.045 A 
ATOM      7  C   UNL     1      -1.718   5.538   0.761  0.00  0.00    +0.041 A 
ATOM      8  S   UNL     1      -0.192   5.807   1.626  0.00  0.00    -0.052 S 
ATOM      9  C   UNL     1       0.259   4.150   1.865  0.00  0.00    +0.166 A 
ATOM     10  N   UNL     1       1.340   3.668   2.475  0.00  0.00    -0.156 NA
ENDROOT
BRANCH   5  11
ATOM     11  S   UNL     1      -5.026   6.855  -1.089  0.00  0.00    +0.056 S 
ATOM     12  O   UNL     1      -6.218   6.082  -1.141  0.00  0.00    -0.153 OA
ATOM     13  O   UNL     1      -4.950   8.093  -0.396  0.00  0.00    -0.153 OA
BRANCH  11  14
ATOM     14  N   UNL     1      -4.594   7.163  -2.658  0.00  0.00    -0.204 NA
ATOM     15  H   UNL     1      -5.278   7.322  -3.327  0.00  0.00    +0.144 HD
ATOM     16  H   UNL     1      -3.657   7.184  -2.908  0.00  0.00    +0.144 HD
ENDBRANCH  11  14
ENDBRANCH   5  11
BRANCH  10  17
ATOM     17  C   UNL     1       2.234   4.501   2.997  0.00  0.00    +0.239 C 
ATOM     18  O   UNL     1       2.066   5.702   2.917  0.00  0.00    -0.274 OA
BRANCH  17  19
ATOM     19  C   UNL     1       3.458   3.956   3.688  0.00  0.00    +0.109 C 
BRANCH  19  20
ATOM     20  C   UNL     1       4.317   5.116   4.194  0.00  0.00    +0.083 C 
BRANCH  20  21
ATOM     21  S   UNL     1       5.790   4.460   5.026  0.00  0.00    -0.125 S 
BRANCH  21  22
ATOM     22  C   UNL     1       6.664   5.899   5.544  0.00  0.00    +0.008 A 
ATOM     23  C   UNL     1       6.154   7.161   5.264  0.00  0.00    +0.016 A 
ATOM     24  C   UNL     1       6.839   8.287   5.676  0.00  0.00    +0.021 A 
ATOM     25  C   UNL     1       8.037   8.160   6.358  0.00  0.00    +0.041 A 
ATOM     26  C   UNL     1       8.549   6.904   6.634  0.00  0.00    +0.021 A 
ATOM     27  C   UNL     1       7.866   5.774   6.229  0.00  0.00    +0.016 A 
ATOM     28 CL   UNL     1       8.897   9.578   6.870  0.00  0.00    -0.084 Cl
ENDBRANCH  21  22
ENDBRANCH  20  21
ENDBRANCH  19  20
ENDBRANCH  17  19
ENDBRANCH  10  17
BRANCH   1  29
ATOM     29  C   UNL     1      -0.735   1.996   1.269  0.00  0.00    +0.135 C 
BRANCH  29  30
ATOM     30  C   UNL     1      -0.018   1.503   0.010  0.00  0.00    +0.142 C 
BRANCH  30  31
ATOM     31  C   UNL     1       0.002  -0.004   0.002  0.00  0.00    +0.309 C 
ATOM     32  O   UNL     1      -0.504  -0.620   0.910  0.00  0.00    -0.251 OA
BRANCH  31  34
ATOM     33  C   UNL     1       0.565  -2.112  -0.956  0.00  0.00    +0.280 C 
ATOM     34  O   UNL     1       0.583  -0.662  -1.014  0.00  0.00    -0.468 OA
ENDBRANCH  31  34
ENDBRANCH  30  31
ENDBRANCH  29  30
ENDBRANCH   1  29
TORSDOF 11
