REMARK  Name = ZINC02881708
REMARK  9 active torsions:
REMARK  status: ('A' for Active; 'I' for Inactive)
REMARK    1  A    between atoms: C_1  and  C_2
REMARK    2  A    between atoms: C_4  and  C_27
REMARK    3  A    between atoms: C_6  and  N_8
REMARK    4  A    between atoms: N_8  and  C_9
REMARK    5  A    between atoms: N_8  and  S_23
REMARK    6  A    between atoms: C_9  and  C_11
REMARK    7  A    between atoms: C_9  and  C_12
REMARK    8  A    between atoms: N_14  and  C_15
REMARK    9  A    between atoms: S_23  and  C_26
REMARK                            x       y       z     vdW  Elec       q    Type
REMARK                         _______ _______ _______ _____ _____    ______ ____
ROOT
ATOM      1  C   UNL     1      -2.197  -2.801  -0.064  0.00  0.00    +0.180 C 
ATOM      2  C   UNL     1      -2.773  -2.169  -1.333  0.00  0.00    +0.040 C 
ENDROOT
BRANCH   1   3
ATOM      3  C   UNL     1      -0.734  -2.457   0.049  0.00  0.00    +0.239 C 
ATOM      4  O   UNL     1       0.097  -3.341   0.073  0.00  0.00    -0.273 OA
ATOM      5  N   UNL     1      -0.348  -1.168   0.124  0.00  0.00    -0.284 N 
ATOM      6  H   UNL     1      -1.015  -0.465   0.175  0.00  0.00    +0.155 HD
BRANCH   5   7
ATOM      7  C   UNL     1       1.013  -0.844   0.126  0.00  0.00    +0.035 A 
ATOM      8  C   UNL     1       1.926  -1.679   0.758  0.00  0.00    +0.024 A 
ATOM      9  C   UNL     1       3.269  -1.357   0.759  0.00  0.00    +0.018 A 
ATOM     10  C   UNL     1       3.706  -0.204   0.132  0.00  0.00    +0.036 A 
ATOM     11  C   UNL     1       2.799   0.630  -0.499  0.00  0.00    +0.057 A 
ATOM     12  C   UNL     1       1.454   0.312  -0.503  0.00  0.00    +0.044 A 
ATOM     13 CL   UNL     1       3.351   2.075  -1.286  0.00  0.00    -0.082 Cl
ATOM     14 BR   UNL     1       5.546   0.233   0.136  0.00  0.00    -0.049 Br
ENDBRANCH   5   7
ENDBRANCH   1   3
BRANCH   1  15
ATOM     15  N   UNL     1      -2.353  -4.256  -0.129  0.00  0.00    -0.196 N 
BRANCH  15  21
ATOM     16  C   UNL     1       0.949  -7.495  -1.791  0.00  0.00    +0.044 C 
ATOM     17  C   UNL     1      -0.199  -6.548  -2.030  0.00  0.00    -0.048 A 
ATOM     18  C   UNL     1      -0.707  -6.386  -3.306  0.00  0.00    +0.006 A 
ATOM     19  C   UNL     1      -1.760  -5.518  -3.529  0.00  0.00    -0.048 A 
ATOM     20  C   UNL     1      -2.308  -4.810  -2.478  0.00  0.00    +0.028 A 
ATOM     21  C   UNL     1      -1.801  -4.971  -1.195  0.00  0.00    +0.052 A 
ATOM     22  C   UNL     1      -0.739  -5.840  -0.975  0.00  0.00    +0.028 A 
ATOM     23  C   UNL     1      -2.310  -5.345  -4.922  0.00  0.00    +0.044 C 
ENDBRANCH  15  21
BRANCH  15  24
ATOM     24  S   UNL     1      -3.184  -5.054   1.060  0.00  0.00    +0.043 S 
ATOM     25  O   UNL     1      -2.560  -6.328   1.147  0.00  0.00    -0.155 OA
ATOM     26  O   UNL     1      -3.173  -4.165   2.169  0.00  0.00    -0.155 OA
ATOM     27  C   UNL     1      -4.870  -5.227   0.415  0.00  0.00    +0.218 C 
ENDBRANCH  15  24
ENDBRANCH   1  15
TORSDOF 5
