REMARK  Name = ZINC23188897
REMARK  13 active torsions:
REMARK  status: ('A' for Active; 'I' for Inactive)
REMARK    1  A    between atoms: C_1  and  C_2
REMARK    2  A    between atoms: C_2  and  C_3
REMARK    3  A    between atoms: C_2  and  C_4
REMARK    4  A    between atoms: C_4  and  C_6
REMARK    5  A    between atoms: C_4  and  N_28
REMARK    6  A    between atoms: C_6  and  N_7
REMARK    7  A    between atoms: C_8  and  C_10
REMARK    8  A    between atoms: N_13  and  S_16
REMARK    9  A    between atoms: S_16  and  C_19
REMARK   10  A    between atoms: C_21  and  C_25
REMARK   11  A    between atoms: N_22  and  C_24
REMARK   12  A    between atoms: N_28  and  C_29
REMARK   13  A    between atoms: N_28  and  C_30
REMARK                            x       y       z     vdW  Elec       q    Type
REMARK                         _______ _______ _______ _____ _____    ______ ____
ROOT
ATOM      1  C   UNL     1      -0.390   1.950  -2.701  0.00  0.00    +0.077 C 
ATOM      2  C   UNL     1      -1.874   1.647  -2.918  0.00  0.00    +0.030 C 
ATOM      3  C   UNL     1      -2.484   2.722  -3.823  0.00  0.00    +0.110 C 
ATOM      4  N   UNL     1      -1.696   2.800  -5.061  0.00  0.00    -0.176 NA
ATOM      5  C   UNL     1      -0.244   2.999  -4.963  0.00  0.00    +0.110 C 
ATOM      6  C   UNL     1       0.340   1.921  -4.045  0.00  0.00    +0.030 C 
ENDROOT
BRANCH   1   8
ATOM      7  N   UNL     1      -0.282   0.758  -0.536  0.00  0.00    -0.317 N 
ATOM      8  C   UNL     1       0.205   0.914  -1.783  0.00  0.00    +0.216 C 
ATOM      9  O   UNL     1       1.123   0.220  -2.166  0.00  0.00    -0.276 OA
ATOM     10  H   UNL     1      -1.115   1.387  -0.188  0.00  0.00    +0.149 HD
BRANCH   7  11
ATOM     11  C   UNL     1       0.296  -0.250   0.356  0.00  0.00    +0.089 C 
BRANCH  11  12
ATOM     12  C   UNL     1      -0.434  -0.221   1.700  0.00  0.00    -0.049 C 
BRANCH  12  13
ATOM     13  N   UNL     1      -1.876  -0.393   1.478  0.00  0.00    +0.379 N 
ATOM     14  C   UNL     1      -2.215  -1.811   1.299  0.00  0.00    -0.096 C 
ATOM     15  C   UNL     1      -2.652   0.199   2.576  0.00  0.00    -0.096 C 
ATOM     16  H   UNL     1      -2.141   0.137   0.552  0.00  0.00    -0.082 HD
ENDBRANCH  12  13
BRANCH  12  18
ATOM     17  C   UNL     1       1.603  -1.231   2.736  0.00  0.00    +0.005 C 
ATOM     18  C   UNL     1       0.085  -1.354   2.587  0.00  0.00    -0.029 C 
ATOM     19  C   UNL     1      -0.571  -1.263   3.967  0.00  0.00    +0.005 C 
ENDBRANCH  12  18
ENDBRANCH  11  12
ENDBRANCH   7  11
ENDBRANCH   1   8
BRANCH   4  20
ATOM     20  S   UNL     1      -2.432   2.666  -6.538  0.00  0.00    +0.062 S 
ATOM     21  O   UNL     1      -3.789   3.042  -6.352  0.00  0.00    -0.153 OA
ATOM     22  O   UNL     1      -1.583   3.314  -7.475  0.00  0.00    -0.153 OA
BRANCH  20  23
ATOM     23  C   UNL     1      -2.438   0.956  -6.964  0.00  0.00    +0.124 A 
ATOM     24  C   UNL     1      -3.442   0.034  -6.654  0.00  0.00    +0.061 A 
ATOM     25  C   UNL     1      -3.049  -1.183  -7.170  0.00  0.00    +0.106 A 
ATOM     26  N   UNL     1      -1.830  -0.999  -7.782  0.00  0.00    -0.344 N 
ATOM     27  C   UNL     1      -1.473   0.303  -7.655  0.00  0.00    +0.114 A 
ATOM     28  C   UNL     1      -1.050  -2.036  -8.463  0.00  0.00    +0.149 C 
BRANCH  25  29
ATOM     29  C   UNL     1      -3.794  -2.443  -7.084  0.00  0.00    +0.258 C 
ATOM     30  O   UNL     1      -3.392  -3.429  -7.672  0.00  0.00    -0.269 OA
ATOM     31  N   UNL     1      -4.924  -2.509  -6.352  0.00  0.00    -0.324 N 
ATOM     32  H   UNL     1      -5.483  -3.454  -6.287  0.00  0.00    +0.145 HD
ATOM     33  H   UNL     1      -5.288  -1.617  -5.820  0.00  0.00    +0.145 HD
ENDBRANCH  25  29
ENDBRANCH  20  23
ENDBRANCH   4  20
TORSDOF 8
