REMARK  Name = ZINC21835594
REMARK  6 active torsions:
REMARK  status: ('A' for Active; 'I' for Inactive)
REMARK    1  A    between atoms: C_6  and  C_10
REMARK    2  A    between atoms: C_10  and  N_11
REMARK    3  A    between atoms: N_14  and  C_17
REMARK    4  A    between atoms: C_20  and  S_26
REMARK    5  A    between atoms: C_22  and  N_23
REMARK    6  A    between atoms: S_26  and  N_29
REMARK                            x       y       z     vdW  Elec       q    Type
REMARK                         _______ _______ _______ _____ _____    ______ ____
ROOT
ATOM      1  C   UNL     1       3.924   8.571  -4.945  0.00  0.00    +0.060 A 
ATOM      2  C   UNL     1       4.347   9.872  -5.184  0.00  0.00    +0.027 A 
ATOM      3  C   UNL     1       4.454  10.335  -6.481  0.00  0.00    +0.030 A 
ATOM      4  C   UNL     1       4.140   9.503  -7.541  0.00  0.00    +0.108 A 
ATOM      5  C   UNL     1       3.718   8.208  -7.306  0.00  0.00    +0.063 A 
ATOM      6  C   UNL     1       3.614   7.737  -6.012  0.00  0.00    +0.149 A 
ENDROOT
BRANCH   1  10
ATOM      7  N   UNL     1       4.032   8.279  -0.801  0.00  0.00    -0.294 NA
ATOM      8  C   UNL     1       2.717   8.321  -1.457  0.00  0.00    +0.103 C 
ATOM      9  C   UNL     1       2.868   8.915  -2.859  0.00  0.00    +0.120 C 
ATOM     10  N   UNL     1       3.814   8.100  -3.634  0.00  0.00    -0.326 N 
ATOM     11  C   UNL     1       5.129   8.058  -2.979  0.00  0.00    +0.120 C 
ATOM     12  C   UNL     1       4.978   7.464  -1.576  0.00  0.00    +0.103 C 
BRANCH   7  13
ATOM     13  C   UNL     1       3.917   7.784   0.577  0.00  0.00    +0.139 C 
BRANCH  13  19
ATOM     14  C   UNL     1       1.490  12.096   3.963  0.00  0.00    +0.005 A 
ATOM     15  C   UNL     1       0.311  11.368   3.734  0.00  0.00    +0.018 A 
ATOM     16  C   UNL     1       0.337  10.248   2.981  0.00  0.00    +0.092 A 
ATOM     17  N   UNL     1       1.507   9.804   2.437  0.00  0.00    -0.308 N 
ATOM     18  C   UNL     1       1.812   8.725   1.652  0.00  0.00    +0.115 A 
ATOM     19  C   UNL     1       3.139   8.775   1.404  0.00  0.00    +0.048 A 
ATOM     20  N   UNL     1       3.647   9.849   2.013  0.00  0.00    -0.342 N 
ATOM     21  C   UNL     1       2.675  10.490   2.647  0.00  0.00    +0.115 A 
ATOM     22  C   UNL     1       2.664  11.661   3.431  0.00  0.00    +0.045 A 
ATOM     23  H   UNL     1       4.722  10.070   1.933  0.00  0.00    +0.167 HD
ENDBRANCH  13  19
ENDBRANCH   7  13
ENDBRANCH   1  10
BRANCH   6  24
ATOM     24  N   UNL     1       3.169   6.348  -5.762  0.00  0.00    +0.058 N 
ATOM     25  O   UNL     1       2.987   5.589  -6.697  0.00  0.00    -0.126 OA
ATOM     26  O   UNL     1       2.983   5.964  -4.621  0.00  0.00    -0.126 OA
ENDBRANCH   6  24
BRANCH   4  27
ATOM     27  S   UNL     1       4.278  10.097  -9.194  0.00  0.00    +0.061 S 
ATOM     28  O   UNL     1       3.405   9.303  -9.985  0.00  0.00    -0.153 OA
ATOM     29  O   UNL     1       4.170  11.512  -9.128  0.00  0.00    -0.153 OA
BRANCH  27  30
ATOM     30  N   UNL     1       5.816   9.763  -9.707  0.00  0.00    -0.177 NA
ATOM     31  C   UNL     1       6.849  10.752  -9.490  0.00  0.00    +0.109 C 
ATOM     32  C   UNL     1       6.910  11.720 -10.690  0.00  0.00    +0.017 C 
ATOM     33  C   UNL     1       7.468  11.039 -11.868  0.00  0.00    +0.001 C 
ATOM     34  C   UNL     1       6.633   9.865 -12.370  0.00  0.00    +0.001 C 
ATOM     35  C   UNL     1       7.000   8.623 -11.595  0.00  0.00    +0.017 C 
ATOM     36  C   UNL     1       6.076   8.471 -10.372  0.00  0.00    +0.109 C 
ENDBRANCH  27  30
ENDBRANCH   4  27
TORSDOF 6
