REMARK  Name = ZINC39682192
REMARK  10 active torsions:
REMARK  status: ('A' for Active; 'I' for Inactive)
REMARK    1  A    between atoms: C_1  and  C_2
REMARK    2  A    between atoms: C_4  and  C_7
REMARK    3  A    between atoms: C_7  and  N_8
REMARK    4  A    between atoms: C_9  and  C_11
REMARK    5  A    between atoms: C_22  and  C_24
REMARK    6  A    between atoms: C_24  and  C_26
REMARK    7  A    between atoms: C_24  and  O_29
REMARK    8  A    between atoms: C_26  and  C_27
REMARK    9  A    between atoms: C_26  and  C_28
REMARK   10  A    between atoms: O_29  and  C_30
REMARK                            x       y       z     vdW  Elec       q    Type
REMARK                         _______ _______ _______ _____ _____    ______ ____
ROOT
ATOM      1  C   UNL     1      -4.032  -4.424   3.003  0.00  0.00    +0.100 C 
ATOM      2  C   UNL     1      -4.375  -3.068   3.660  0.00  0.00    +0.121 C 
ATOM      3  N   UNL     1      -5.844  -2.941   3.512  0.00  0.00    -0.297 N 
ATOM      4  C   UNL     1      -6.359  -4.309   3.757  0.00  0.00    +0.115 C 
ATOM      5  C   UNL     1      -5.335  -5.237   3.073  0.00  0.00    -0.004 C 
ATOM      6  C   UNL     1      -5.128  -6.499   3.905  0.00  0.00    -0.010 C 
ATOM      7  C   UNL     1      -6.420  -7.320   3.910  0.00  0.00    -0.082 C 
ATOM      8  N   UNL     1      -6.785  -7.672   2.533  0.00  0.00    +0.379 N 
ATOM      9  C   UNL     1      -7.074  -6.455   1.765  0.00  0.00    -0.082 C 
ATOM     10  C   UNL     1      -5.809  -5.598   1.668  0.00  0.00    -0.010 C 
ATOM     11  C   UNL     1      -6.552  -1.832   3.220  0.00  0.00    +0.257 C 
ATOM     12  O   UNL     1      -7.760  -1.889   3.132  0.00  0.00    -0.272 OA
ATOM     13  H   UNL     1      -6.020  -8.168   2.100  0.00  0.00    -0.086 HD
ATOM     14  H   UNL     1      -7.602  -8.264   2.543  0.00  0.00    -0.086 HD
ENDROOT
BRANCH   1  16
ATOM     15  N   UNL     1      -2.739  -5.071   0.997  0.00  0.00    -0.309 N 
ATOM     16  C   UNL     1      -3.615  -4.223   1.569  0.00  0.00    +0.219 C 
ATOM     17  O   UNL     1      -4.068  -3.296   0.931  0.00  0.00    -0.275 OA
ATOM     18  H   UNL     1      -2.376  -5.812   1.508  0.00  0.00    +0.149 HD
BRANCH  15  19
ATOM     19  C   UNL     1      -2.333  -4.875  -0.397  0.00  0.00    +0.160 C 
BRANCH  19  23
ATOM     20  C   UNL     1       2.276  -6.803  -0.686  0.00  0.00    +0.073 C 
ATOM     21  C   UNL     1       0.783  -6.771  -0.889  0.00  0.00    +0.076 A 
ATOM     22  N   UNL     1      -0.065  -5.834  -0.545  0.00  0.00    -0.248 NA
ATOM     23  C   UNL     1      -1.355  -5.951  -0.792  0.00  0.00    +0.066 A 
ATOM     24  C   UNL     1      -1.760  -7.085  -1.418  0.00  0.00    +0.071 A 
ATOM     25  S   UNL     1      -0.199  -7.927  -1.619  0.00  0.00    -0.080 S 
ENDBRANCH  19  23
ENDBRANCH  15  19
ENDBRANCH   1  16
BRANCH  11  26
ATOM     26  C   UNL     1      -5.842  -0.521   3.002  0.00  0.00    +0.261 C 
BRANCH  26  27
ATOM     27  C   UNL     1      -5.171  -0.081   4.305  0.00  0.00    +0.033 C 
ATOM     28  C   UNL     1      -4.451   1.250   4.084  0.00  0.00    +0.011 C 
ATOM     29  C   UNL     1      -6.233   0.088   5.394  0.00  0.00    +0.011 C 
ENDBRANCH  26  27
BRANCH  26  30
ATOM     30  O   UNL     1      -6.787   0.471   2.595  0.00  0.00    -0.479 OA
BRANCH  30  31
ATOM     31  C   UNL     1      -6.349   1.423   1.730  0.00  0.00    +0.122 A 
ATOM     32  C   UNL     1      -5.063   1.354   1.214  0.00  0.00    +0.045 A 
ATOM     33  C   UNL     1      -4.620   2.322   0.334  0.00  0.00    +0.004 A 
ATOM     34  C   UNL     1      -5.457   3.360  -0.032  0.00  0.00    +0.000 A 
ATOM     35  C   UNL     1      -6.739   3.431   0.480  0.00  0.00    +0.004 A 
ATOM     36  C   UNL     1      -7.189   2.461   1.356  0.00  0.00    +0.045 A 
ENDBRANCH  30  31
ENDBRANCH  26  30
ENDBRANCH  11  26
TORSDOF 7
