REMARK  Name = ZINC30961788
REMARK  12 active torsions:
REMARK  status: ('A' for Active; 'I' for Inactive)
REMARK    1  A    between atoms: C_1  and  C_2
REMARK    2  A    between atoms: C_2  and  C_3
REMARK    3  A    between atoms: C_2  and  C_4
REMARK    4  A    between atoms: C_4  and  C_6
REMARK    5  A    between atoms: C_4  and  N_28
REMARK    6  A    between atoms: N_8  and  N_9
REMARK    7  A    between atoms: C_10  and  C_11
REMARK    8  A    between atoms: C_14  and  O_20
REMARK    9  A    between atoms: C_15  and  N_17
REMARK   10  A    between atoms: O_20  and  C_21
REMARK   11  A    between atoms: C_21  and  C_22
REMARK   12  A    between atoms: C_29  and  C_31
REMARK                            x       y       z     vdW  Elec       q    Type
REMARK                         _______ _______ _______ _____ _____    ______ ____
ROOT
ATOM      1  C   UNL     1      -0.442  -1.538  -1.410  0.00  0.00    +0.253 C 
ATOM      2  O   UNL     1       0.563  -2.171  -1.164  0.00  0.00    -0.272 OA
ATOM      3  N   UNL     1      -0.590  -0.948  -2.613  0.00  0.00    -0.205 N 
ATOM      4  H   UNL     1      -1.523  -0.419  -2.855  0.00  0.00    +0.177 HD
ENDROOT
BRANCH   3   5
ATOM      5  N   UNL     1       0.446  -1.010  -3.555  0.00  0.00    -0.188 NA
ATOM      6  C   UNL     1       0.315  -0.417  -4.702  0.00  0.00    +0.138 C 
BRANCH   6   7
ATOM      7  C   UNL     1      -0.623   0.711  -4.846  0.00  0.00    -0.003 A 
ATOM      8  C   UNL     1      -1.097   1.378  -3.713  0.00  0.00    +0.013 A 
ATOM      9  C   UNL     1      -1.968   2.436  -3.853  0.00  0.00    +0.048 A 
ATOM     10  C   UNL     1      -2.386   2.832  -5.118  0.00  0.00    +0.151 A 
ATOM     11  C   UNL     1      -1.922   2.169  -6.246  0.00  0.00    +0.168 A 
ATOM     12  C   UNL     1      -1.045   1.113  -6.116  0.00  0.00    +0.046 A 
BRANCH  11  13
ATOM     13  N   UNL     1      -2.370   2.596  -7.591  0.00  0.00    +0.060 N 
ATOM     14  O   UNL     1      -1.963   2.015  -8.581  0.00  0.00    -0.126 OA
ATOM     15  O   UNL     1      -3.145   3.528  -7.707  0.00  0.00    -0.126 OA
ENDBRANCH  11  13
BRANCH  10  16
ATOM     16  O   UNL     1      -3.250   3.872  -5.251  0.00  0.00    -0.485 OA
BRANCH  16  17
ATOM     17  C   UNL     1      -3.687   4.510  -4.049  0.00  0.00    +0.264 C 
BRANCH  17  18
ATOM     18  C   UNL     1      -4.634   5.631  -4.392  0.00  0.00    -0.010 A 
ATOM     19  C   UNL     1      -4.145   6.906  -4.610  0.00  0.00    +0.007 A 
ATOM     20  C   UNL     1      -5.012   7.934  -4.929  0.00  0.00    +0.000 A 
ATOM     21  C   UNL     1      -6.370   7.689  -5.020  0.00  0.00    +0.000 A 
ATOM     22  C   UNL     1      -6.859   6.416  -4.796  0.00  0.00    +0.000 A 
ATOM     23  C   UNL     1      -5.991   5.387  -4.482  0.00  0.00    +0.007 A 
ENDBRANCH  17  18
ENDBRANCH  16  17
ENDBRANCH  10  16
ENDBRANCH   6   7
ENDBRANCH   3   5
BRANCH   1  24
ATOM     24  C   UNL     1      -1.526  -1.412  -0.371  0.00  0.00    +0.163 C 
BRANCH  24  25
ATOM     25  N   UNL     1      -1.485  -2.573   0.521  0.00  0.00    -0.300 N 
ATOM     26  C   UNL     1      -2.597  -2.957   1.180  0.00  0.00    +0.245 C 
ATOM     27  O   UNL     1      -3.633  -2.338   1.035  0.00  0.00    -0.270 OA
ATOM     28  H   UNL     1      -0.547  -3.133   0.653  0.00  0.00    +0.150 HD
BRANCH  26  29
ATOM     29  C   UNL     1      -2.555  -4.128   2.081  0.00  0.00    +0.038 A 
ATOM     30  C   UNL     1      -3.704  -4.528   2.765  0.00  0.00    +0.013 A 
ATOM     31  C   UNL     1      -3.660  -5.622   3.603  0.00  0.00    +0.002 A 
ATOM     32  C   UNL     1      -2.479  -6.325   3.767  0.00  0.00    +0.020 A 
ATOM     33  C   UNL     1      -1.335  -5.935   3.091  0.00  0.00    +0.042 A 
ATOM     34  C   UNL     1      -1.368  -4.843   2.246  0.00  0.00    +0.033 A 
ATOM     35 CL   UNL     1       0.141  -6.823   3.302  0.00  0.00    -0.084 Cl
ENDBRANCH  26  29
ENDBRANCH  24  25
BRANCH  24  37
ATOM     36  C   UNL     1       0.116  -0.129   1.008  0.00  0.00    +0.009 C 
ATOM     37  C   UNL     1      -1.306  -0.136   0.443  0.00  0.00    +0.012 C 
ATOM     38  C   UNL     1      -1.502   1.085  -0.459  0.00  0.00    +0.009 C 
ENDBRANCH  24  37
ENDBRANCH   1  24
TORSDOF 10
