REMARK  Name = ZINC22344548
REMARK  17 active torsions:
REMARK  status: ('A' for Active; 'I' for Inactive)
REMARK    1  A    between atoms: C_1  and  C_2
REMARK    2  A    between atoms: C_2  and  C_3
REMARK    3  A    between atoms: C_3  and  C_5
REMARK    4  A    between atoms: C_3  and  N_13
REMARK    5  A    between atoms: C_8  and  C_12
REMARK    6  A    between atoms: C_9  and  C_11
REMARK    7  A    between atoms: C_14  and  C_16
REMARK    8  A    between atoms: C_16  and  N_17
REMARK    9  A    between atoms: N_17  and  C_18
REMARK   10  A    between atoms: N_17  and  S_26
REMARK   11  A    between atoms: C_20  and  C_25
REMARK   12  A    between atoms: C_22  and  C_24
REMARK   13  A    between atoms: S_26  and  C_29
REMARK   14  A    between atoms: C_32  and  O_37
REMARK   15  A    between atoms: C_33  and  O_35
REMARK   16  A    between atoms: O_35  and  C_36
REMARK   17  A    between atoms: O_37  and  C_38
REMARK                            x       y       z     vdW  Elec       q    Type
REMARK                         _______ _______ _______ _____ _____    ______ ____
ROOT
ATOM      1  N   UNL     1       1.553   2.269  -0.001  0.00  0.00    -0.194 N 
ENDROOT
BRANCH   1   2
ATOM      2  C   UNL     1       2.196   2.578   1.200  0.00  0.00    +0.052 A 
ATOM      3  C   UNL     1       3.442   2.031   1.484  0.00  0.00    +0.028 A 
ATOM      4  C   UNL     1       4.077   2.343   2.670  0.00  0.00    -0.048 A 
ATOM      5  C   UNL     1       3.470   3.190   3.579  0.00  0.00    +0.006 A 
ATOM      6  C   UNL     1       2.229   3.732   3.302  0.00  0.00    -0.048 A 
ATOM      7  C   UNL     1       1.590   3.429   2.116  0.00  0.00    +0.028 A 
ATOM      8  C   UNL     1       1.572   4.655   4.296  0.00  0.00    +0.044 C 
ATOM      9  C   UNL     1       5.430   1.755   2.976  0.00  0.00    +0.044 C 
ENDBRANCH   1   2
BRANCH   1  10
ATOM     10  S   UNL     1       0.071   1.531   0.021  0.00  0.00    +0.075 S 
ATOM     11  O   UNL     1      -0.608   1.951  -1.155  0.00  0.00    -0.150 OA
ATOM     12  O   UNL     1      -0.464   1.732   1.322  0.00  0.00    -0.150 OA
BRANCH  10  13
ATOM     13  C   UNL     1       0.348  -0.201  -0.149  0.00  0.00    +0.112 A 
ATOM     14  C   UNL     1       0.382  -0.774  -1.407  0.00  0.00    +0.032 A 
ATOM     15  C   UNL     1       0.605  -2.131  -1.545  0.00  0.00    +0.051 A 
ATOM     16  C   UNL     1       0.784  -2.922  -0.421  0.00  0.00    +0.162 A 
ATOM     17  C   UNL     1       0.744  -2.346   0.845  0.00  0.00    +0.163 A 
ATOM     18  C   UNL     1       0.526  -0.984   0.976  0.00  0.00    +0.078 A 
BRANCH  17  19
ATOM     19  O   UNL     1       0.920  -3.118   1.950  0.00  0.00    -0.491 OA
ATOM     20  C   UNL     1       0.867  -2.458   3.217  0.00  0.00    +0.277 C 
ENDBRANCH  17  19
BRANCH  16  21
ATOM     21  O   UNL     1       0.997  -4.258  -0.556  0.00  0.00    -0.491 OA
ATOM     22  C   UNL     1       1.025  -4.781  -1.886  0.00  0.00    +0.277 C 
ENDBRANCH  16  21
ENDBRANCH  10  13
ENDBRANCH   1  10
BRANCH   1  23
ATOM     23  C   UNL     1       2.190   2.597  -1.278  0.00  0.00    +0.227 C 
BRANCH  23  25
ATOM     24  N   UNL     1       2.359   4.549  -2.788  0.00  0.00    -0.307 N 
ATOM     25  C   UNL     1       1.875   4.024  -1.645  0.00  0.00    +0.233 C 
ATOM     26  O   UNL     1       1.186   4.701  -0.911  0.00  0.00    -0.274 OA
ATOM     27  H   UNL     1       2.983   3.935  -3.454  0.00  0.00    +0.149 HD
BRANCH  24  28
ATOM     28  C   UNL     1       2.052   5.937  -3.144  0.00  0.00    +0.103 C 
BRANCH  28  29
ATOM     29  C   UNL     1       2.145   6.104  -4.639  0.00  0.00    -0.027 A 
ATOM     30  C   UNL     1       3.159   5.481  -5.343  0.00  0.00    +0.006 A 
ATOM     31  C   UNL     1       3.241   5.631  -6.715  0.00  0.00    +0.004 A 
ATOM     32  C   UNL     1       2.314   6.410  -7.382  0.00  0.00    -0.048 A 
ATOM     33  C   UNL     1       1.304   7.037  -6.678  0.00  0.00    -0.047 A 
ATOM     34  C   UNL     1       1.219   6.884  -5.306  0.00  0.00    +0.009 A 
ATOM     35  C   UNL     1       0.294   7.887  -7.405  0.00  0.00    +0.044 C 
ATOM     36  C   UNL     1       2.406   6.577  -8.877  0.00  0.00    +0.044 C 
ENDBRANCH  28  29
BRANCH  28  38
ATOM     37  C   UNL     1       2.875   6.794  -0.947  0.00  0.00    +0.006 C 
ATOM     38  C   UNL     1       3.055   6.871  -2.464  0.00  0.00    +0.024 C 
ENDBRANCH  28  38
ENDBRANCH  24  28
ENDBRANCH  23  25
ENDBRANCH   1  23
TORSDOF 10
