REMARK  Name = ZINC62819158
REMARK  3 active torsions:
REMARK  status: ('A' for Active; 'I' for Inactive)
REMARK    1  A    between atoms: N_11  and  C_12
REMARK    2  A    between atoms: C_17  and  S_18
REMARK    3  A    between atoms: S_18  and  N_21
REMARK                            x       y       z     vdW  Elec       q    Type
REMARK                         _______ _______ _______ _____ _____    ______ ____
ROOT
ATOM      1  C   UNL     1       1.733   4.227  -0.698  0.00  0.00    +0.000 A 
ATOM      2  C   UNL     1       3.109   4.089  -0.677  0.00  0.00    +0.002 A 
ATOM      3  C   UNL     1       3.680   2.836  -0.563  0.00  0.00    +0.023 A 
ATOM      4  C   UNL     1       2.864   1.717  -0.463  0.00  0.00    +0.035 A 
ATOM      5  C   UNL     1       1.486   1.862  -0.463  0.00  0.00    -0.043 A 
ATOM      6  C   UNL     1       0.919   3.112  -0.592  0.00  0.00    +0.003 A 
ATOM      7  C   UNL     1       0.604   0.640  -0.285  0.00  0.00    -0.045 C 
ATOM      8  N   UNL     1       0.707  -0.204  -1.476  0.00  0.00    +0.383 N 
ATOM      9  C   UNL     1       1.829  -1.133  -1.379  0.00  0.00    -0.063 C 
ATOM     10  C   UNL     1       3.184  -0.482  -1.509  0.00  0.00    +0.092 C 
ATOM     11  N   UNL     1       3.420   0.436  -0.381  0.00  0.00    -0.300 N 
ATOM     12  H   UNL     1      -0.147  -0.729  -1.583  0.00  0.00    -0.085 HD
ATOM     13  H   UNL     1       0.835   0.384  -2.287  0.00  0.00    -0.085 HD
ENDROOT
BRANCH  11  14
ATOM     14  C   UNL     1       4.170   0.041   0.730  0.00  0.00    +0.061 A 
ATOM     15  C   UNL     1       3.540  -0.215   1.941  0.00  0.00    +0.025 A 
ATOM     16  C   UNL     1       4.284  -0.605   3.036  0.00  0.00    +0.002 A 
ATOM     17  C   UNL     1       5.657  -0.741   2.929  0.00  0.00    +0.002 A 
ATOM     18  C   UNL     1       6.287  -0.486   1.725  0.00  0.00    +0.030 A 
ATOM     19  C   UNL     1       5.548  -0.101   0.624  0.00  0.00    +0.126 A 
BRANCH  19  20
ATOM     20  S   UNL     1       6.352   0.215  -0.912  0.00  0.00    +0.058 S 
ATOM     21  O   UNL     1       5.655   1.294  -1.520  0.00  0.00    -0.153 OA
ATOM     22  O   UNL     1       7.745   0.266  -0.638  0.00  0.00    -0.153 OA
BRANCH  20  23
ATOM     23  N   UNL     1       6.107  -1.109  -1.875  0.00  0.00    -0.203 NA
ATOM     24  H   UNL     1       5.675  -1.899  -1.514  0.00  0.00    +0.144 HD
ATOM     25  H   UNL     1       6.396  -1.095  -2.801  0.00  0.00    +0.144 HD
ENDBRANCH  20  23
ENDBRANCH  19  20
ENDBRANCH  11  14
TORSDOF 3
