REMARK  Name = ZINC50322407
REMARK  5 active torsions:
REMARK  status: ('A' for Active; 'I' for Inactive)
REMARK    1  A    between atoms: C_1  and  C_2
REMARK    2  A    between atoms: C_2  and  C_3
REMARK    3  A    between atoms: C_3  and  C_4
REMARK    4  A    between atoms: C_5  and  N_24
REMARK    5  A    between atoms: C_6  and  C_10
REMARK                            x       y       z     vdW  Elec       q    Type
REMARK                         _______ _______ _______ _____ _____    ______ ____
ROOT
ATOM      1  C   UNL     1      -0.917  -4.629   4.900  0.00  0.00    +0.057 A 
ATOM      2  C   UNL     1      -1.033  -4.191   3.618  0.00  0.00    +0.078 A 
ATOM      3  C   UNL     1      -1.107  -5.364   2.823  0.00  0.00    +0.168 A 
ATOM      4  N   UNL     1      -1.034  -6.394   3.645  0.00  0.00    -0.167 NA
ATOM      5  N   UNL     1      -0.917  -5.987   4.858  0.00  0.00    -0.279 N 
ATOM      6  H   UNL     1      -0.843  -6.566   5.633  0.00  0.00    +0.189 HD
ENDROOT
BRANCH   3   7
ATOM      7  C   UNL     1      -1.242  -5.422   1.356  0.00  0.00    +0.269 C 
ATOM      8  O   UNL     1      -1.406  -4.399   0.720  0.00  0.00    -0.268 OA
ATOM      9  N   UNL     1      -1.182  -6.609   0.720  0.00  0.00    -0.296 N 
ATOM     10  C   UNL     1      -1.200  -6.674  -0.748  0.00  0.00    +0.108 C 
ATOM     11  C   UNL     1       0.013  -7.483  -1.218  0.00  0.00    +0.023 C 
ATOM     12  C   UNL     1       0.009  -8.851  -0.530  0.00  0.00    -0.005 C 
ATOM     13  C   UNL     1       1.205  -9.667  -1.026  0.00  0.00    +0.004 C 
ATOM     14  C   UNL     1       1.212 -11.034  -0.340  0.00  0.00    +0.000 C 
ATOM     15  C   UNL     1       1.321 -10.842   1.175  0.00  0.00    +0.000 C 
ATOM     16  C   UNL     1       0.124 -10.030   1.671  0.00  0.00    +0.005 C 
ATOM     17  C   UNL     1       0.110  -8.662   0.985  0.00  0.00    +0.010 C 
ATOM     18  C   UNL     1      -1.092  -7.862   1.480  0.00  0.00    +0.112 C 
ENDBRANCH   3   7
BRANCH   2  19
ATOM     19  N   UNL     1      -1.071  -2.861   3.175  0.00  0.00    -0.355 N 
ATOM     20  H   UNL     1      -1.012  -2.135   3.815  0.00  0.00    +0.142 HD
ATOM     21  H   UNL     1      -1.157  -2.667   2.228  0.00  0.00    +0.142 HD
ENDBRANCH   2  19
BRANCH   1  22
ATOM     22  C   UNL     1      -0.802  -3.771   6.133  0.00  0.00    +0.056 C 
BRANCH  22  24
ATOM     23  C   UNL     1      -2.085  -2.508   7.866  0.00  0.00    +0.004 C 
ATOM     24  C   UNL     1      -2.201  -3.380   6.614  0.00  0.00    +0.003 C 
ENDBRANCH  22  24
ENDBRANCH   1  22
TORSDOF 4
