REMARK  Name = ZINC44320837
REMARK  11 active torsions:
REMARK  status: ('A' for Active; 'I' for Inactive)
REMARK    1  A    between atoms: C_1  and  C_2
REMARK    2  A    between atoms: C_4  and  C_39
REMARK    3  A    between atoms: C_6  and  O_8
REMARK    4  A    between atoms: O_8  and  C_9
REMARK    5  A    between atoms: C_14  and  C_15
REMARK    6  A    between atoms: C_15  and  CA_16
REMARK    7  A    between atoms: CA_16  and  C_18
REMARK    8  A    between atoms: CA_16  and  N_21
REMARK    9  A    between atoms: C_22  and  O_24
REMARK   10  A    between atoms: O_24  and  C_25
REMARK   11  A    between atoms: C_25  and  C_26
REMARK                            x       y       z     vdW  Elec       q    Type
REMARK                         _______ _______ _______ _____ _____    ______ ____
ROOT
ATOM      1  CA  UNL     1       1.649  -4.476   4.774  0.00  0.00    +0.193 C 
ENDROOT
BRANCH   1   2
ATOM      2  N   UNL     1       2.141  -4.201   3.421  0.00  0.00    -0.267 N 
ATOM      3  C   UNL     1       3.460  -4.021   3.208  0.00  0.00    +0.401 C 
ATOM      4  O   UNL     1       4.240  -4.087   4.138  0.00  0.00    -0.226 OA
ATOM      5  H   UNL     1       1.519  -4.149   2.680  0.00  0.00    +0.153 HD
BRANCH   3   6
ATOM      6  O   UNL     1       3.913  -3.768   1.966  0.00  0.00    -0.449 OA
BRANCH   6   7
ATOM      7  C   UNL     1       5.322  -3.588   1.813  0.00  0.00    +0.246 C 
BRANCH   7   8
ATOM      8  C   UNL     1       5.644  -3.313   0.343  0.00  0.00    +0.088 C 
ATOM      9  C   UNL     1       5.104  -1.964  -0.064  0.00  0.00    -0.029 A 
ATOM     10  C   UNL     1       3.825  -1.449  -0.093  0.00  0.00    +0.005 A 
ATOM     11  C   UNL     1       3.611  -0.151  -0.520  0.00  0.00    +0.000 A 
ATOM     12  C   UNL     1       4.678   0.634  -0.918  0.00  0.00    +0.001 A 
ATOM     13  C   UNL     1       5.961   0.127  -0.892  0.00  0.00    +0.009 A 
ATOM     14  C   UNL     1       6.185  -1.182  -0.462  0.00  0.00    -0.014 A 
ATOM     15  C   UNL     1       7.437  -1.968  -0.335  0.00  0.00    -0.014 A 
ATOM     16  C   UNL     1       7.138  -3.241   0.143  0.00  0.00    -0.029 A 
ATOM     17  C   UNL     1       8.145  -4.162   0.346  0.00  0.00    +0.005 A 
ATOM     18  C   UNL     1       9.458  -3.823   0.074  0.00  0.00    +0.000 A 
ATOM     19  C   UNL     1       9.765  -2.561  -0.401  0.00  0.00    +0.001 A 
ATOM     20  C   UNL     1       8.765  -1.633  -0.607  0.00  0.00    +0.009 A 
ENDBRANCH   7   8
ENDBRANCH   6   7
ENDBRANCH   3   6
ENDBRANCH   1   2
BRANCH   1  21
ATOM     21  C   UNL     1       1.749  -5.953   5.054  0.00  0.00    +0.376 C 
ATOM     22  O   UNL     1       1.650  -6.755   4.141  0.00  0.00    -0.244 OA
ATOM     23  OXT UNL     1       1.929  -6.347   6.194  0.00  0.00    -0.244 OA
ENDBRANCH   1  21
BRANCH   1  24
ATOM     24  C   UNL     1       0.188  -4.034   4.884  0.00  0.00    +0.072 C 
BRANCH  24  30
ATOM     25  C   UNL     1       0.038  -1.977   3.458  0.00  0.00    +0.132 A 
ATOM     26  C   UNL     1      -0.046  -0.599   3.315  0.00  0.00    +0.046 A 
ATOM     27  C   UNL     1      -0.059   0.210   4.434  0.00  0.00    +0.004 A 
ATOM     28  C   UNL     1       0.012  -0.351   5.696  0.00  0.00    +0.000 A 
ATOM     29  C   UNL     1       0.096  -1.723   5.841  0.00  0.00    +0.007 A 
ATOM     30  C   UNL     1       0.103  -2.538   4.725  0.00  0.00    -0.003 A 
BRANCH  25  31
ATOM     31  O   UNL     1       0.051  -2.776   2.358  0.00  0.00    -0.456 OA
BRANCH  31  37
ATOM     32  C   UNL     1      -4.809  -2.998   2.749  0.00  0.00    +0.044 C 
ATOM     33  C   UNL     1      -3.520  -3.417   2.091  0.00  0.00    -0.047 A 
ATOM     34  C   UNL     1      -3.541  -4.321   1.044  0.00  0.00    +0.007 A 
ATOM     35  C   UNL     1      -2.360  -4.707   0.437  0.00  0.00    -0.047 A 
ATOM     36  C   UNL     1      -1.156  -4.191   0.875  0.00  0.00    +0.049 A 
ATOM     37  C   UNL     1      -1.132  -3.284   1.925  0.00  0.00    +0.129 A 
ATOM     38  C   UNL     1      -2.319  -2.894   2.529  0.00  0.00    +0.049 A 
ATOM     39  C   UNL     1      -2.387  -5.692  -0.704  0.00  0.00    +0.044 C 
ENDBRANCH  31  37
ENDBRANCH  25  31
ENDBRANCH  24  30
ENDBRANCH   1  24
TORSDOF 9
