REMARK  Name = ZINC36142884
REMARK  5 active torsions:
REMARK  status: ('A' for Active; 'I' for Inactive)
REMARK    1  A    between atoms: C_1  and  C_2
REMARK    2  A    between atoms: C_2  and  N_3
REMARK    3  A    between atoms: C_14  and  N_21
REMARK    4  A    between atoms: C_15  and  C_20
REMARK    5  A    between atoms: C_16  and  C_19
REMARK                            x       y       z     vdW  Elec       q    Type
REMARK                         _______ _______ _______ _____ _____    ______ ____
ROOT
ATOM      1  N   UNL     1       0.713  -0.491   1.192  0.00  0.00    +0.380 N 
ATOM      2  C   UNL     1      -0.036  -0.111   2.396  0.00  0.00    -0.075 C 
ATOM      3  C   UNL     1       0.742  -0.543   3.642  0.00  0.00    +0.030 C 
ATOM      4  C   UNL     1       0.934  -2.061   3.614  0.00  0.00    +0.114 C 
ATOM      5  C   UNL     1       1.647  -2.456   2.319  0.00  0.00    +0.030 C 
ATOM      6  C   UNL     1       0.836  -1.952   1.123  0.00  0.00    -0.075 C 
ATOM      7  C   UNL     1       1.791  -2.485   4.815  0.00  0.00    +0.127 C 
ATOM      8  C   UNL     1       1.028  -2.098   6.070  0.00  0.00    +0.170 C 
ATOM      9  O   UNL     1       1.589  -1.637   7.041  0.00  0.00    -0.292 OA
ATOM     10  C   UNL     1      -0.430  -2.311   6.046  0.00  0.00    +0.061 A 
ATOM     11  C   UNL     1      -1.182  -2.222   7.220  0.00  0.00    +0.038 A 
ATOM     12  C   UNL     1      -2.551  -2.419   7.170  0.00  0.00    +0.029 A 
ATOM     13  C   UNL     1      -3.171  -2.703   5.956  0.00  0.00    -0.023 A 
ATOM     14  C   UNL     1      -2.432  -2.794   4.794  0.00  0.00    -0.003 A 
ATOM     15  C   UNL     1      -1.057  -2.604   4.824  0.00  0.00    +0.135 A 
ATOM     16  O   UNL     1      -0.335  -2.707   3.683  0.00  0.00    -0.484 OA
ATOM     17  C   UNL     1      -3.119  -3.101   3.489  0.00  0.00    +0.048 C 
ATOM     18  C   UNL     1      -4.662  -2.912   5.910  0.00  0.00    +0.046 C 
ATOM     19  H   UNL     1       1.632  -0.077   1.226  0.00  0.00    -0.082 HD
ENDROOT
BRANCH  12  20
ATOM     20  N   UNL     1      -3.313  -2.332   8.340  0.00  0.00    -0.358 N 
ATOM     21  H   UNL     1      -2.882  -2.135   9.186  0.00  0.00    +0.142 HD
ATOM     22  H   UNL     1      -4.273  -2.470   8.306  0.00  0.00    +0.142 HD
ENDBRANCH  12  20
BRANCH   1  24
ATOM     23  C   UNL     1      -0.019   1.526   0.010  0.00  0.00    -0.017 C 
ATOM     24  C   UNL     1       0.002  -0.004   0.002  0.00  0.00    -0.082 C 
ENDBRANCH   1  24
TORSDOF 2
