REMARK  Name = ZINC51730210
REMARK  6 active torsions:
REMARK  status: ('A' for Active; 'I' for Inactive)
REMARK    1  A    between atoms: C_1  and  C_2
REMARK    2  A    between atoms: N_6  and  C_11
REMARK    3  A    between atoms: C_7  and  C_10
REMARK    4  A    between atoms: C_14  and  S_18
REMARK    5  A    between atoms: C_16  and  N_17
REMARK    6  A    between atoms: S_18  and  N_21
REMARK                            x       y       z     vdW  Elec       q    Type
REMARK                         _______ _______ _______ _____ _____    ______ ____
ROOT
ATOM      1  C   UNL     1      -1.080  -3.496   1.983  0.00  0.00    +0.051 A 
ATOM      2  C   UNL     1      -0.922  -4.852   1.739  0.00  0.00    +0.027 A 
ATOM      3  C   UNL     1      -1.418  -5.779   2.637  0.00  0.00    +0.030 A 
ATOM      4  C   UNL     1      -2.074  -5.358   3.779  0.00  0.00    +0.107 A 
ATOM      5  C   UNL     1      -2.236  -4.008   4.031  0.00  0.00    +0.053 A 
ATOM      6  C   UNL     1      -1.736  -3.072   3.138  0.00  0.00    +0.048 A 
ENDROOT
BRANCH   1  11
ATOM      7  C   UNL     1      -0.019   1.526   0.010  0.00  0.00    +0.007 C 
ATOM      8  C   UNL     1       0.002  -0.004   0.002  0.00  0.00    -0.011 C 
ATOM      9  C   UNL     1      -1.434  -0.533   0.012  0.00  0.00    +0.022 C 
ATOM     10  C   UNL     1      -1.409  -2.065  -0.031  0.00  0.00    +0.106 C 
ATOM     11  N   UNL     1      -0.577  -2.556   1.075  0.00  0.00    -0.326 N 
ATOM     12  C   UNL     1       0.792  -2.042   1.212  0.00  0.00    +0.071 C 
ATOM     13  C   UNL     1       0.743  -0.511   1.242  0.00  0.00    +0.025 C 
ATOM     14  C   UNL     1       1.409  -2.563   2.511  0.00  0.00    +0.028 C 
ENDBRANCH   1  11
BRANCH   6  15
ATOM     15  N   UNL     1      -1.895  -1.704   3.393  0.00  0.00    -0.356 N 
ATOM     16  H   UNL     1      -1.548  -1.050   2.766  0.00  0.00    +0.142 HD
ATOM     17  H   UNL     1      -2.352  -1.411   4.197  0.00  0.00    +0.142 HD
ENDBRANCH   6  15
BRANCH   4  18
ATOM     18  S   UNL     1      -2.704  -6.545   4.918  0.00  0.00    +0.056 S 
ATOM     19  O   UNL     1      -3.753  -5.906   5.633  0.00  0.00    -0.153 OA
ATOM     20  O   UNL     1      -2.904  -7.746   4.184  0.00  0.00    -0.153 OA
BRANCH  18  21
ATOM     21  N   UNL     1      -1.504  -6.856   6.016  0.00  0.00    -0.204 NA
ATOM     22  H   UNL     1      -0.650  -6.403   5.942  0.00  0.00    +0.144 HD
ATOM     23  H   UNL     1      -1.656  -7.491   6.734  0.00  0.00    +0.144 HD
ENDBRANCH  18  21
ENDBRANCH   4  18
TORSDOF 4
