REMARK  Name = ZINC65490338
REMARK  7 active torsions:
REMARK  status: ('A' for Active; 'I' for Inactive)
REMARK    1  A    between atoms: C_1  and  C_2
REMARK    2  A    between atoms: C_2  and  C_3
REMARK    3  A    between atoms: C_3  and  C_4
REMARK    4  A    between atoms: C_6  and  C_25
REMARK    5  A    between atoms: C_8  and  N_10
REMARK    6  A    between atoms: N_10  and  C_11
REMARK    7  A    between atoms: C_11  and  C_12
REMARK                            x       y       z     vdW  Elec       q    Type
REMARK                         _______ _______ _______ _____ _____    ______ ____
ROOT
ATOM      1  C   UNL     1       1.832  -6.107   0.908  0.00  0.00    +0.119 C 
ENDROOT
BRANCH   1   2
ATOM      2  C   UNL     1       2.458  -6.588   2.218  0.00  0.00    +0.116 C 
ATOM      3  C   UNL     1       2.274  -8.091   2.297  0.00  0.00    -0.003 C 
ATOM      4  C   UNL     1       3.396  -8.853   2.417  0.00  0.00    -0.007 A 
ATOM      5  C   UNL     1       3.305 -10.312   2.498  0.00  0.00    +0.012 A 
ATOM      6  C   UNL     1       4.446 -11.036   2.617  0.00  0.00    +0.039 A 
ATOM      7  C   UNL     1       5.700 -10.418   2.662  0.00  0.00    +0.125 A 
ATOM      8  C   UNL     1       5.850  -9.055   2.590  0.00  0.00    +0.062 A 
ATOM      9  C   UNL     1       4.727  -8.222   2.466  0.00  0.00    +0.043 A 
ATOM     10  N   UNL     1       4.885  -6.899   2.396  0.00  0.00    -0.284 N 
ATOM     11  C   UNL     1       3.873  -6.058   2.279  0.00  0.00    +0.226 C 
ATOM     12  O   UNL     1       4.079  -4.860   2.220  0.00  0.00    -0.275 OA
ATOM     13  F   UNL     1       6.803 -11.189   2.781  0.00  0.00    -0.205 F 
ATOM     14  H   UNL     1       5.784  -6.538   2.434  0.00  0.00    +0.155 HD
ENDBRANCH   1   2
BRANCH   1  15
ATOM     15  N   UNL     1       1.800  -4.642   0.891  0.00  0.00    -0.328 N 
ATOM     16  H   UNL     1       2.149  -4.141   1.645  0.00  0.00    +0.147 HD
BRANCH  15  21
ATOM     17  C   UNL     1       0.739  -2.004  -1.265  0.00  0.00    +0.109 A 
ATOM     18  N   UNL     1       0.256  -2.646  -2.310  0.00  0.00    -0.347 N 
ATOM     19  C   UNL     1       0.255  -3.970  -2.358  0.00  0.00    +0.017 A 
ATOM     20  C   UNL     1       0.769  -4.683  -1.293  0.00  0.00    +0.064 A 
ATOM     21  C   UNL     1       1.274  -3.973  -0.202  0.00  0.00    +0.122 A 
ATOM     22  N   UNL     1       1.244  -2.644  -0.230  0.00  0.00    -0.219 NA
ATOM     23  C   UNL     1      -0.302  -4.690  -3.559  0.00  0.00    +0.063 C 
ATOM     24  H   UNL     1      -0.105  -2.141  -3.056  0.00  0.00    +0.167 HD
BRANCH  17  25
ATOM     25  C   UNL     1       0.718  -0.497  -1.257  0.00  0.00    +0.074 C 
BRANCH  25  27
ATOM     26  C   UNL     1      -0.019   1.526   0.010  0.00  0.00    +0.004 C 
ATOM     27  C   UNL     1       0.002  -0.004   0.002  0.00  0.00    +0.004 C 
ENDBRANCH  25  27
ENDBRANCH  17  25
ENDBRANCH  15  21
ENDBRANCH   1  15
TORSDOF 5
