REMARK  Name = ZINC09520990
REMARK  9 active torsions:
REMARK  status: ('A' for Active; 'I' for Inactive)
REMARK    1  A    between atoms: C_1  and  C_2
REMARK    2  A    between atoms: C_2  and  N_54
REMARK    3  A    between atoms: C_3  and  C_4
REMARK    4  A    between atoms: C_3  and  N_54
REMARK    5  A    between atoms: C_5  and  C_6
REMARK    6  A    between atoms: C_5  and  N_54
REMARK    7  A    between atoms: C_6  and  N_7
REMARK    8  A    between atoms: C_18  and  C_20
REMARK    9  A    between atoms: C_20  and  C_21
REMARK                            x       y       z     vdW  Elec       q    Type
REMARK                         _______ _______ _______ _____ _____    ______ ____
ROOT
ATOM      1  N   UNL     1      -0.702   1.414  -0.310  0.00  0.00    -0.252 N 
ATOM      2  C   UNL     1      -1.986   1.932  -0.307  0.00  0.00    +0.168 A 
ATOM      3  N   UNL     1      -2.369   3.185  -0.389  0.00  0.00    -0.224 NA
ATOM      4  C   UNL     1      -3.669   3.550  -0.374  0.00  0.00    +0.080 A 
ATOM      5  C   UNL     1      -4.211   4.854  -0.455  0.00  0.00    +0.030 A 
ATOM      6  C   UNL     1      -5.566   5.052  -0.425  0.00  0.00    +0.017 A 
ATOM      7  C   UNL     1      -6.453   3.989  -0.316  0.00  0.00    +0.019 A 
ATOM      8  C   UNL     1      -5.957   2.700  -0.235  0.00  0.00    +0.032 A 
ATOM      9  C   UNL     1      -4.600   2.493  -0.264  0.00  0.00    +0.042 A 
ATOM     10  S   UNL     1      -3.545   1.065  -0.197  0.00  0.00    -0.052 S 
ATOM     11 BR   UNL     1      -8.318   4.300  -0.279  0.00  0.00    -0.050 Br
ATOM     12  C   UNL     1       0.358   2.240  -0.413  0.00  0.00    +0.225 C 
ATOM     13  O   UNL     1       0.188   3.437  -0.498  0.00  0.00    -0.275 OA
ENDROOT
BRANCH   1  14
ATOM     14  C   UNL     1      -0.496  -0.033  -0.208  0.00  0.00    +0.097 C 
BRANCH  14  15
ATOM     15  C   UNL     1      -0.369  -0.427   1.265  0.00  0.00    -0.059 C 
BRANCH  15  16
ATOM     16  N   UNL     1      -0.183  -1.891   1.353  0.00  0.00    +0.380 N 
ATOM     17  H   UNL     1      -0.923  -2.354   0.812  0.00  0.00    -0.082 HD
BRANCH  16  19
ATOM     18  C   UNL     1       2.263  -1.642   1.605  0.00  0.00    -0.017 C 
ATOM     19  C   UNL     1       1.130  -2.268   0.790  0.00  0.00    -0.082 C 
ENDBRANCH  16  19
BRANCH  16  20
ATOM     20  C   UNL     1      -0.273  -2.328   2.762  0.00  0.00    -0.082 C 
ATOM     21  C   UNL     1      -0.415  -3.851   2.796  0.00  0.00    -0.017 C 
ENDBRANCH  16  20
ENDBRANCH  15  16
ENDBRANCH  14  15
ENDBRANCH   1  14
BRANCH  12  22
ATOM     22  C   UNL     1       1.755   1.675  -0.423  0.00  0.00    +0.131 C 
BRANCH  22  23
ATOM     23  C   UNL     1       2.751   2.800  -0.546  0.00  0.00    -0.035 A 
ATOM     24  C   UNL     1       3.166   3.220  -1.797  0.00  0.00    +0.008 A 
ATOM     25  C   UNL     1       4.074   4.255  -1.915  0.00  0.00    +0.050 A 
ATOM     26  C   UNL     1       4.581   4.866  -0.780  0.00  0.00    +0.166 A 
ATOM     27  C   UNL     1       4.167   4.439   0.480  0.00  0.00    +0.166 A 
ATOM     28  C   UNL     1       3.252   3.405   0.591  0.00  0.00    +0.053 A 
ATOM     29  O   UNL     1       4.803   5.191   1.425  0.00  0.00    -0.453 OA
ATOM     30  C   UNL     1       5.915   5.804   0.746  0.00  0.00    +0.466 C 
ATOM     31  O   UNL     1       5.476   5.885  -0.623  0.00  0.00    -0.453 OA
ENDBRANCH  22  23
ENDBRANCH  12  22
TORSDOF 7
