REMARK  Name = ZINC58438474
REMARK  6 active torsions:
REMARK  status: ('A' for Active; 'I' for Inactive)
REMARK    1  A    between atoms: C_4  and  O_24
REMARK    2  A    between atoms: C_5  and  C_7
REMARK    3  A    between atoms: C_8  and  C_9
REMARK    4  A    between atoms: N_15  and  C_17
REMARK    5  A    between atoms: C_17  and  C_18
REMARK    6  A    between atoms: O_24  and  C_25
REMARK                            x       y       z     vdW  Elec       q    Type
REMARK                         _______ _______ _______ _____ _____    ______ ____
ROOT
ATOM      1  C   UNL     1       0.125  -4.313  -0.022  0.00  0.00    +0.242 C 
ATOM      2  O   UNL     1       1.191  -4.901  -0.035  0.00  0.00    -0.270 OA
ATOM      3  N   UNL     1      -1.028  -5.010  -0.015  0.00  0.00    -0.265 N 
ATOM      4  C   UNL     1      -1.001  -6.410  -0.023  0.00  0.00    +0.147 A 
ATOM      5  C   UNL     1       0.151  -7.213  -0.032  0.00  0.00    +0.065 A 
ATOM      6  C   UNL     1      -0.245  -8.506  -0.037  0.00  0.00    +0.110 A 
ATOM      7  N   UNL     1      -1.594  -8.526  -0.031  0.00  0.00    -0.265 N 
ATOM      8  N   UNL     1      -2.048  -7.201  -0.016  0.00  0.00    -0.156 NA
ATOM      9  H   UNL     1      -1.878  -4.541  -0.004  0.00  0.00    +0.157 HD
ENDROOT
BRANCH   1  11
ATOM     10  C   UNL     1       1.253  -2.154  -0.021  0.00  0.00    +0.016 C 
ATOM     11  C   UNL     1       0.097  -2.851  -0.014  0.00  0.00    +0.068 C 
BRANCH  10  16
ATOM     12  C   UNL     1      -0.017   1.373   0.010  0.00  0.00    +0.001 A 
ATOM     13  C   UNL     1       1.170   2.089   0.002  0.00  0.00    +0.004 A 
ATOM     14  C   UNL     1       2.384   1.431  -0.013  0.00  0.00    +0.046 A 
ATOM     15  C   UNL     1       2.424   0.045  -0.021  0.00  0.00    +0.134 A 
ATOM     16  C   UNL     1       1.225  -0.685  -0.013  0.00  0.00    +0.017 A 
ATOM     17  C   UNL     1       0.002  -0.004   0.002  0.00  0.00    +0.011 A 
BRANCH  15  18
ATOM     18  O   UNL     1       3.616  -0.603  -0.036  0.00  0.00    -0.434 OA
BRANCH  18  19
ATOM     19  C   UNL     1       4.794   0.207  -0.043  0.00  0.00    +0.541 C 
ATOM     20  F   UNL     1       4.794   1.020  -1.181  0.00  0.00    -0.166 F 
ATOM     21  F   UNL     1       4.816   1.008   1.103  0.00  0.00    -0.166 F 
ENDBRANCH  18  19
ENDBRANCH  15  18
ENDBRANCH  10  16
ENDBRANCH   1  11
BRANCH   7  22
ATOM     22  C   UNL     1      -2.437  -9.725  -0.034  0.00  0.00    +0.178 C 
BRANCH  22  23
ATOM     23  C   UNL     1      -3.387  -9.673   1.135  0.00  0.00    -0.023 A 
ATOM     24  C   UNL     1      -3.031 -10.209   2.363  0.00  0.00    +0.025 A 
ATOM     25  C   UNL     1      -3.929 -10.143   3.412  0.00  0.00    +0.111 A 
ATOM     26  N   UNL     1      -5.111  -9.581   3.254  0.00  0.00    -0.263 NA
ATOM     27  C   UNL     1      -5.483  -9.061   2.100  0.00  0.00    +0.111 A 
ATOM     28  C   UNL     1      -4.636  -9.084   1.008  0.00  0.00    +0.025 A 
ENDBRANCH  22  23
ENDBRANCH   7  22
TORSDOF 6
