REMARK  Name = ZINC35702447
REMARK  7 active torsions:
REMARK  status: ('A' for Active; 'I' for Inactive)
REMARK    1  A    between atoms: C_1  and  C_2
REMARK    2  A    between atoms: C_2  and  C_3
REMARK    3  A    between atoms: C_2  and  C_4
REMARK    4  A    between atoms: C_4  and  N_5
REMARK    5  A    between atoms: N_5  and  C_6
REMARK    6  A    between atoms: C_6  and  C_7
REMARK    7  A    between atoms: C_19  and  C_22
REMARK                            x       y       z     vdW  Elec       q    Type
REMARK                         _______ _______ _______ _____ _____    ______ ____
ROOT
ATOM      1  C   UNL     1      -2.980  -3.546  -0.018  0.00  0.00    +0.199 C 
ATOM      2  O   UNL     1      -1.887  -4.021  -0.243  0.00  0.00    -0.278 OA
ATOM      3  N   UNL     1      -4.083  -4.315  -0.115  0.00  0.00    -0.301 N 
ATOM      4  C   UNL     1      -3.904  -5.718  -0.489  0.00  0.00    +0.109 C 
ATOM      5  C   UNL     1      -3.910  -6.546   0.781  0.00  0.00    +0.038 C 
ATOM      6  C   UNL     1      -5.344  -6.918   1.167  0.00  0.00    +0.108 C 
ATOM      7  N   UNL     1      -6.286  -5.805   0.979  0.00  0.00    -0.312 N 
ATOM      8  C   UNL     1      -5.990  -4.436   1.363  0.00  0.00    +0.125 C 
ATOM      9  C   UNL     1      -5.339  -3.709   0.160  0.00  0.00    +0.126 C 
ATOM     10  C   UNL     1      -7.523  -6.077   0.404  0.00  0.00    +0.144 A 
ATOM     11  C   UNL     1      -7.939  -7.399   0.233  0.00  0.00    +0.047 A 
ATOM     12  C   UNL     1      -9.176  -7.620  -0.343  0.00  0.00    +0.033 A 
ATOM     13  C   UNL     1      -9.935  -6.506  -0.718  0.00  0.00    +0.093 A 
ATOM     14  N   UNL     1      -9.457  -5.286  -0.516  0.00  0.00    -0.147 NA
ATOM     15  N   UNL     1      -8.311  -5.082   0.024  0.00  0.00    -0.134 NA
ENDROOT
BRANCH  13  16
ATOM     16  C   UNL     1     -11.269  -6.689  -1.340  0.00  0.00    +0.002 A 
ATOM     17  C   UNL     1     -11.773  -7.972  -1.548  0.00  0.00    +0.013 A 
ATOM     18  C   UNL     1     -13.014  -8.138  -2.127  0.00  0.00    +0.039 A 
ATOM     19  C   UNL     1     -13.759  -7.031  -2.502  0.00  0.00    +0.123 A 
ATOM     20  C   UNL     1     -13.262  -5.754  -2.297  0.00  0.00    +0.039 A 
ATOM     21  C   UNL     1     -12.024  -5.579  -1.713  0.00  0.00    +0.013 A 
ATOM     22  F   UNL     1     -14.974  -7.198  -3.069  0.00  0.00    -0.205 F 
ENDBRANCH  13  16
BRANCH   1  23
ATOM     23  C   UNL     1      -3.105  -2.095   0.369  0.00  0.00    +0.015 C 
BRANCH  23  24
ATOM     24  N   UNL     1      -1.771  -1.481   0.404  0.00  0.00    +0.385 N 
ATOM     25  H   UNL     1      -1.345  -1.550  -0.508  0.00  0.00    -0.085 HD
ATOM     26  H   UNL     1      -1.197  -1.961   1.080  0.00  0.00    -0.085 HD
BRANCH  24  27
ATOM     27  C   UNL     1      -1.893  -0.066   0.782  0.00  0.00    -0.079 C 
BRANCH  27  29
ATOM     28  C   UNL     1      -0.640   2.073   1.089  0.00  0.00    +0.005 C 
ATOM     29  C   UNL     1      -0.504   0.573   0.818  0.00  0.00    -0.034 C 
ATOM     30  C   UNL     1       0.326  -0.072   1.929  0.00  0.00    +0.005 C 
ENDBRANCH  27  29
ENDBRANCH  24  27
ENDBRANCH  23  24
ENDBRANCH   1  23
TORSDOF 5
