REMARK  Name = ZINC38903805
REMARK  12 active torsions:
REMARK  status: ('A' for Active; 'I' for Inactive)
REMARK    1  A    between atoms: C_1  and  C_2
REMARK    2  A    between atoms: C_8  and  N_15
REMARK    3  A    between atoms: C_11  and  C_13
REMARK    4  A    between atoms: C_11  and  C_14
REMARK    5  A    between atoms: C_16  and  C_18
REMARK    6  A    between atoms: N_23  and  C_25
REMARK    7  A    between atoms: C_25  and  C_26
REMARK    8  A    between atoms: C_28  and  C_31
REMARK    9  A    between atoms: C_34  and  C_37
REMARK   10  A    between atoms: C_37  and  C_38
REMARK   11  A    between atoms: C_37  and  C_39
REMARK   12  A    between atoms: C_37  and  C_40
REMARK                            x       y       z     vdW  Elec       q    Type
REMARK                         _______ _______ _______ _____ _____    ______ ____
ROOT
ATOM      1  C   UNL     1       1.482  -0.395   5.111  0.00  0.00    +0.058 C 
ATOM      2  C   UNL     1       1.973  -1.394   6.163  0.00  0.00    +0.009 C 
ATOM      3  C   UNL     1       2.871  -0.664   7.166  0.00  0.00    -0.018 C 
ATOM      4  C   UNL     1       2.092   0.498   7.788  0.00  0.00    -0.078 C 
ATOM      5  N   UNL     1       1.674   1.430   6.734  0.00  0.00    +0.386 N 
ATOM      6  C   UNL     1       0.755   0.757   5.808  0.00  0.00    -0.065 C 
ATOM      7  H   UNL     1       2.486   1.750   6.228  0.00  0.00    -0.081 HD
ENDROOT
BRANCH   1   9
ATOM      8  N   UNL     1       0.960  -2.140   3.437  0.00  0.00    -0.308 N 
ATOM      9  C   UNL     1       0.536  -1.087   4.163  0.00  0.00    +0.215 C 
ATOM     10  O   UNL     1      -0.607  -0.696   4.054  0.00  0.00    -0.276 OA
ATOM     11  H   UNL     1       1.874  -2.452   3.524  0.00  0.00    +0.149 HD
BRANCH   8  19
ATOM     12  C   UNL     1      -0.018   1.503   0.010  0.00  0.00    +0.044 C 
ATOM     13  C   UNL     1       0.002  -0.004   0.002  0.00  0.00    -0.050 A 
ATOM     14  C   UNL     1       0.006  -0.689  -1.199  0.00  0.00    +0.007 A 
ATOM     15  C   UNL     1       0.026  -2.069  -1.206  0.00  0.00    +0.046 A 
ATOM     16  C   UNL     1       0.042  -2.774  -0.006  0.00  0.00    +0.126 A 
ATOM     17  C   UNL     1       0.035  -2.086   1.194  0.00  0.00    +0.015 A 
ATOM     18  C   UNL     1       0.023  -0.701   1.194  0.00  0.00    +0.012 A 
ATOM     19  C   UNL     1       0.041  -2.812   2.515  0.00  0.00    +0.110 C 
ATOM     20  C   UNL     1       0.497  -4.258   2.308  0.00  0.00    +0.074 C 
ATOM     21  C   UNL     1      -0.290  -4.847   1.130  0.00  0.00    +0.107 C 
ATOM     22  O   UNL     1       0.068  -4.132  -0.053  0.00  0.00    -0.486 OA
ATOM     23  C   UNL     1      -1.791  -4.699   1.387  0.00  0.00    +0.055 C 
ATOM     24  C   UNL     1       0.061  -6.327   0.963  0.00  0.00    +0.055 C 
ENDBRANCH   8  19
ENDBRANCH   1   9
BRANCH   5  25
ATOM     25  C   UNL     1       0.995   2.582   7.343  0.00  0.00    +0.022 C 
BRANCH  25  26
ATOM     26  C   UNL     1       1.975   3.351   8.192  0.00  0.00    +0.211 A 
ATOM     27  N   UNL     1       2.723   4.337   7.786  0.00  0.00    -0.193 NA
ATOM     28  C   UNL     1       3.477   4.792   8.803  0.00  0.00    +0.202 A 
ATOM     29  N   UNL     1       3.206   4.087   9.873  0.00  0.00    -0.056 NA
ATOM     30  O   UNL     1       2.218   3.141   9.492  0.00  0.00    -0.340 OA
BRANCH  28  31
ATOM     31  C   UNL     1       4.454   5.907   8.725  0.00  0.00    +0.022 A 
ATOM     32  C   UNL     1       4.648   6.584   7.523  0.00  0.00    +0.012 A 
ATOM     33  C   UNL     1       5.557   7.620   7.456  0.00  0.00    +0.005 A 
ATOM     34  C   UNL     1       6.276   7.986   8.580  0.00  0.00    -0.042 A 
ATOM     35  C   UNL     1       6.087   7.317   9.776  0.00  0.00    +0.005 A 
ATOM     36  C   UNL     1       5.176   6.284   9.855  0.00  0.00    +0.012 A 
BRANCH  34  37
ATOM     37  C   UNL     1       7.268   9.117   8.500  0.00  0.00    -0.013 C 
ATOM     38  C   UNL     1       6.546  10.401   8.086  0.00  0.00    +0.015 C 
ATOM     39  C   UNL     1       7.923   9.318   9.869  0.00  0.00    +0.015 C 
ATOM     40  C   UNL     1       8.344   8.780   7.465  0.00  0.00    +0.015 C 
ENDBRANCH  34  37
ENDBRANCH  28  31
ENDBRANCH  25  26
ENDBRANCH   5  25
TORSDOF 6
