REMARK  Name = ZINC53168565
REMARK  3 active torsions:
REMARK  status: ('A' for Active; 'I' for Inactive)
REMARK    1  A    between atoms: C_5  and  S_8
REMARK    2  A    between atoms: C_6  and  N_7
REMARK    3  A    between atoms: S_8  and  C_9
REMARK                            x       y       z     vdW  Elec       q    Type
REMARK                         _______ _______ _______ _____ _____    ______ ____
ROOT
ATOM      1  C   UNL     1      -0.017   1.382   0.010  0.00  0.00    +0.027 A 
ATOM      2  C   UNL     1       1.171   2.091   0.002  0.00  0.00    +0.043 A 
ATOM      3  C   UNL     1       2.382   1.421  -0.013  0.00  0.00    +0.160 A 
ATOM      4  C   UNL     1       2.409   0.035  -0.022  0.00  0.00    +0.174 A 
ATOM      5  C   UNL     1       1.221  -0.682  -0.014  0.00  0.00    +0.073 A 
ATOM      6  C   UNL     1       0.002  -0.004   0.002  0.00  0.00    +0.041 A 
ATOM      7  F   UNL     1       3.592  -0.617  -0.038  0.00  0.00    -0.201 F 
ATOM      8  F   UNL     1       3.539   2.118  -0.021  0.00  0.00    -0.202 F 
ENDROOT
BRANCH   6   9
ATOM      9  N   UNL     1      -1.201  -0.722   0.010  0.00  0.00    -0.357 N 
ATOM     10  H   UNL     1      -2.048  -0.250   0.021  0.00  0.00    +0.142 HD
ATOM     11  H   UNL     1      -1.186  -1.692   0.005  0.00  0.00    +0.142 HD
ENDBRANCH   6   9
BRANCH   5  12
ATOM     12  S   UNL     1       1.251  -2.444  -0.025  0.00  0.00    -0.063 S 
BRANCH  12  13
ATOM     13  C   UNL     1       1.276  -2.880   1.682  0.00  0.00    +0.130 A 
ATOM     14  C   UNL     1       1.310  -4.220   2.076  0.00  0.00    +0.118 A 
ATOM     15  C   UNL     1       1.329  -4.517   3.449  0.00  0.00    +0.182 A 
ATOM     16  N   UNL     1       1.360  -5.859   3.557  0.00  0.00    -0.216 NA
ATOM     17  H   UNL     1       1.325  -5.569   0.462  0.00  0.00    +0.167 HD
ATOM     18  C   UNL     1       1.361  -6.397   2.369  0.00  0.00    +0.199 A 
ATOM     19  N   UNL     1       1.331  -5.433   1.422  0.00  0.00    -0.341 N 
ATOM     20  N   UNL     1       1.315  -3.506   4.324  0.00  0.00    -0.214 NA
ATOM     21  C   UNL     1       1.283  -2.260   3.906  0.00  0.00    +0.224 A 
ATOM     22  N   UNL     1       1.270  -1.941   2.625  0.00  0.00    -0.227 NA
ENDBRANCH  12  13
ENDBRANCH   5  12
TORSDOF 3
