REMARK  Name = ZINC12907762
REMARK  10 active torsions:
REMARK  status: ('A' for Active; 'I' for Inactive)
REMARK    1  A    between atoms: C_1  and  C_2
REMARK    2  A    between atoms: C_2  and  C_4
REMARK    3  A    between atoms: C_2  and  N_52
REMARK    4  A    between atoms: C_6  and  O_12
REMARK    5  A    between atoms: C_9  and  O_10
REMARK    6  A    between atoms: O_10  and  C_11
REMARK    7  A    between atoms: O_12  and  C_13
REMARK    8  A    between atoms: C_14  and  C_15
REMARK    9  A    between atoms: C_14  and  N_52
REMARK   10  A    between atoms: C_21  and  C_26
REMARK                            x       y       z     vdW  Elec       q    Type
REMARK                         _______ _______ _______ _____ _____    ______ ____
ROOT
ATOM      1  C   UNL     1      -3.898  -0.847   3.088  0.00  0.00    +0.094 A 
ATOM      2  N   UNL     1      -2.696  -0.250   3.290  0.00  0.00    -0.312 N 
ATOM      3  H   UNL     1      -2.213  -0.420   4.114  0.00  0.00    +0.170 HD
ATOM      4  C   UNL     1      -2.160   0.574   2.370  0.00  0.00    +0.260 A 
ATOM      5  O   UNL     1      -1.079   1.103   2.567  0.00  0.00    -0.267 OA
ATOM      6  C   UNL     1      -2.879   0.820   1.157  0.00  0.00    +0.080 A 
ATOM      7  C   UNL     1      -2.514   1.661   0.023  0.00  0.00    +0.005 A 
ATOM      8  C   UNL     1      -3.367   1.744  -1.027  0.00  0.00    +0.056 A 
ATOM      9  S   UNL     1      -4.714   0.679  -0.550  0.00  0.00    -0.076 S 
ATOM     10  C   UNL     1      -4.112   0.159   1.036  0.00  0.00    +0.116 A 
ATOM     11  N   UNL     1      -4.577  -0.642   1.991  0.00  0.00    -0.229 NA
ENDROOT
BRANCH   7  12
ATOM     12  C   UNL     1      -1.238   2.414   0.021  0.00  0.00    +0.002 A 
ATOM     13  C   UNL     1      -1.248   3.808   0.035  0.00  0.00    +0.010 A 
ATOM     14  C   UNL     1      -0.057   4.505   0.027  0.00  0.00    +0.001 A 
ATOM     15  C   UNL     1       1.146   3.823   0.011  0.00  0.00    +0.001 A 
ATOM     16  C   UNL     1       1.164   2.440   0.004  0.00  0.00    +0.020 A 
ATOM     17  C   UNL     1      -0.021   1.732   0.012  0.00  0.00    +0.049 A 
ATOM     18 CL   UNL     1       0.002  -0.004   0.002  0.00  0.00    -0.083 Cl
ENDBRANCH   7  12
BRANCH   1  19
ATOM     19  C   UNL     1      -4.458  -1.761   4.146  0.00  0.00    -0.006 C 
BRANCH  19  20
ATOM     20  N   UNL     1      -5.763  -2.281   3.694  0.00  0.00    +0.388 N 
ATOM     21  H   UNL     1      -6.405  -1.496   3.537  0.00  0.00    -0.084 HD
ATOM     22  H   UNL     1      -5.635  -2.800   2.817  0.00  0.00    -0.084 HD
BRANCH  20  24
ATOM     23  C   UNL     1      -5.777  -4.593   4.520  0.00  0.00    -0.009 C 
ATOM     24  C   UNL     1      -6.336  -3.182   4.713  0.00  0.00    -0.040 C 
BRANCH  24  25
ATOM     25  C   UNL     1      -7.835  -3.210   4.561  0.00  0.00    -0.017 A 
ATOM     26  C   UNL     1      -8.411  -2.915   3.340  0.00  0.00    +0.051 A 
ATOM     27  C   UNL     1      -9.790  -2.942   3.200  0.00  0.00    +0.121 A 
ATOM     28  C   UNL     1     -10.592  -3.264   4.285  0.00  0.00    +0.049 A 
ATOM     29  C   UNL     1     -10.016  -3.559   5.506  0.00  0.00    +0.049 A 
ATOM     30  C   UNL     1      -8.636  -3.538   5.644  0.00  0.00    +0.122 A 
BRANCH  30  31
ATOM     31  O   UNL     1      -8.068  -3.833   6.844  0.00  0.00    -0.495 OA
ATOM     32  C   UNL     1      -8.953  -4.162   7.917  0.00  0.00    +0.277 C 
ENDBRANCH  30  31
BRANCH  27  33
ATOM     33  O   UNL     1     -10.357  -2.652   1.999  0.00  0.00    -0.495 OA
ATOM     34  C   UNL     1     -11.784  -2.699   1.926  0.00  0.00    +0.277 C 
ENDBRANCH  27  33
ENDBRANCH  24  25
ENDBRANCH  20  24
ENDBRANCH  19  20
ENDBRANCH   1  19
TORSDOF 7
