REMARK  Name = ZINC36755591
REMARK  5 active torsions:
REMARK  status: ('A' for Active; 'I' for Inactive)
REMARK    1  A    between atoms: C_1  and  C_2
REMARK    2  A    between atoms: C_2  and  C_3
REMARK    3  A    between atoms: C_2  and  C_4
REMARK    4  A    between atoms: C_2  and  C_5
REMARK    5  A    between atoms: C_11  and  C_13
REMARK                            x       y       z     vdW  Elec       q    Type
REMARK                         _______ _______ _______ _____ _____    ______ ____
ROOT
ATOM      1  C   UNL     1       0.707  -0.490  -1.238  0.00  0.00    +0.054 A 
ATOM      2  C   UNL     1       1.210   0.411  -2.132  0.00  0.00    +0.094 A 
ATOM      3  C   UNL     1       1.865  -0.064  -3.284  0.00  0.00    +0.252 A 
ATOM      4  O   UNL     1       2.326   0.715  -4.102  0.00  0.00    -0.268 OA
ATOM      5  N   UNL     1       1.975  -1.397  -3.465  0.00  0.00    -0.307 N 
ATOM      6  H   UNL     1       2.424  -1.747  -4.250  0.00  0.00    +0.170 HD
ATOM      7  C   UNL     1       1.453  -2.252  -2.534  0.00  0.00    +0.148 A 
ATOM      8  N   UNL     1       0.844  -1.795  -1.455  0.00  0.00    -0.233 NA
ENDROOT
BRANCH   7   9
ATOM      9  C   UNL     1       1.575  -3.699  -2.735  0.00  0.00    +0.056 A 
ATOM     10  C   UNL     1       2.176  -4.389  -3.777  0.00  0.00    +0.034 A 
ATOM     11  C   UNL     1       2.132  -5.761  -3.689  0.00  0.00    +0.026 A 
ATOM     12  C   UNL     1       1.522  -6.333  -2.621  0.00  0.00    +0.061 A 
ATOM     13  S   UNL     1       0.996  -5.030  -1.700  0.00  0.00    -0.092 S 
ATOM     14 BR   UNL     1       2.910  -6.835  -5.037  0.00  0.00    -0.050 Br
ENDBRANCH   7   9
BRANCH   1  16
ATOM     15  C   UNL     1      -0.019   1.526   0.010  0.00  0.00    +0.017 C 
ATOM     16  C   UNL     1       0.002  -0.004   0.002  0.00  0.00    +0.005 C 
ATOM     17  C   UNL     1       0.742  -0.511   1.242  0.00  0.00    +0.017 C 
ATOM     18  C   UNL     1      -1.433  -0.534   0.013  0.00  0.00    +0.017 C 
ENDBRANCH   1  16
TORSDOF 2
