REMARK  Name = ZINC65074844
REMARK  8 active torsions:
REMARK  status: ('A' for Active; 'I' for Inactive)
REMARK    1  A    between atoms: C_1  and  C_2
REMARK    2  A    between atoms: C_7  and  C_8
REMARK    3  A    between atoms: C_8  and  N_9
REMARK    4  A    between atoms: N_18  and  S_21
REMARK    5  A    between atoms: S_21  and  C_24
REMARK    6  A    between atoms: C_27  and  C_30
REMARK    7  A    between atoms: C_30  and  C_31
REMARK    8  A    between atoms: C_30  and  C_32
REMARK                            x       y       z     vdW  Elec       q    Type
REMARK                         _______ _______ _______ _____ _____    ______ ____
ROOT
ATOM      1  N   UNL     1      -1.338   0.477   2.823  0.00  0.00    -0.329 N 
ATOM      2  C   UNL     1      -1.583   1.178   3.974  0.00  0.00    +0.089 C 
ATOM      3  N   UNL     1      -0.596   1.442   4.743  0.00  0.00    -0.374 N 
ATOM      4  C   UNL     1      -0.720   2.171   6.001  0.00  0.00    +0.129 C 
ATOM      5  C   UNL     1      -2.057   2.913   6.049  0.00  0.00    +0.102 C 
ATOM      6  N   UNL     1      -3.127   1.971   5.679  0.00  0.00    -0.303 NA
ATOM      7  C   UNL     1      -2.996   1.601   4.261  0.00  0.00    +0.075 C 
ATOM      8  C   UNL     1      -3.951   0.444   3.953  0.00  0.00    +0.047 C 
ATOM      9  C   UNL     1      -5.384   0.869   4.286  0.00  0.00    +0.111 C 
ATOM     10  N   UNL     1      -5.690   2.111   3.562  0.00  0.00    -0.176 NA
ATOM     11  C   UNL     1      -4.784   3.258   3.712  0.00  0.00    +0.111 C 
ATOM     12  C   UNL     1      -3.357   2.805   3.386  0.00  0.00    +0.047 C 
ATOM     13  H   UNL     1      -2.067   0.266   2.219  0.00  0.00    +0.147 HD
ATOM     14  H   UNL     1      -3.111   1.155   6.272  0.00  0.00    +0.123 HD
ATOM     15  H   UNL     1       0.286   1.140   4.475  0.00  0.00    +0.161 HD
ENDROOT
BRANCH  10  16
ATOM     16  S   UNL     1      -7.030   2.215   2.595  0.00  0.00    +0.061 S 
ATOM     17  O   UNL     1      -6.767   3.240   1.646  0.00  0.00    -0.153 OA
ATOM     18  O   UNL     1      -7.358   0.887   2.211  0.00  0.00    -0.153 OA
BRANCH  16  19
ATOM     19  C   UNL     1      -8.356   2.790   3.602  0.00  0.00    +0.105 A 
ATOM     20  C   UNL     1      -9.157   1.885   4.273  0.00  0.00    +0.029 A 
ATOM     21  C   UNL     1     -10.198   2.337   5.064  0.00  0.00    +0.006 A 
ATOM     22  C   UNL     1     -10.437   3.693   5.184  0.00  0.00    -0.045 A 
ATOM     23  C   UNL     1      -9.636   4.598   4.513  0.00  0.00    +0.006 A 
ATOM     24  C   UNL     1      -8.592   4.147   3.726  0.00  0.00    +0.029 A 
BRANCH  22  25
ATOM     25  C   UNL     1     -11.572   4.184   6.044  0.00  0.00    +0.013 C 
ATOM     26  C   UNL     1     -11.019   5.081   7.154  0.00  0.00    +0.012 C 
ATOM     27  C   UNL     1     -12.554   4.983   5.186  0.00  0.00    +0.012 C 
ENDBRANCH  22  25
ENDBRANCH  16  19
ENDBRANCH  10  16
BRANCH   1  28
ATOM     28  C   UNL     1       0.025   0.045   2.504  0.00  0.00    +0.138 C 
BRANCH  28  35
ATOM     29  C   UNL     1      -0.018   1.503   0.010  0.00  0.00    +0.044 C 
ATOM     30  C   UNL     1       0.002  -0.004   0.002  0.00  0.00    -0.046 A 
ATOM     31  C   UNL     1       0.006  -0.689  -1.199  0.00  0.00    +0.003 A 
ATOM     32  C   UNL     1       0.025  -2.071  -1.207  0.00  0.00    +0.000 A 
ATOM     33  C   UNL     1       0.040  -2.768  -0.013  0.00  0.00    +0.000 A 
ATOM     34  C   UNL     1       0.037  -2.084   1.188  0.00  0.00    +0.005 A 
ATOM     35  C   UNL     1       0.023  -0.702   1.195  0.00  0.00    -0.027 A 
ENDBRANCH  28  35
ENDBRANCH   1  28
TORSDOF 5
