REMARK  Name = ZINC65453405
REMARK  9 active torsions:
REMARK  status: ('A' for Active; 'I' for Inactive)
REMARK    1  A    between atoms: C_1  and  C_2
REMARK    2  A    between atoms: C_2  and  C_3
REMARK    3  A    between atoms: C_5  and  C_10
REMARK    4  A    between atoms: C_7  and  C_9
REMARK    5  A    between atoms: C_12  and  C_26
REMARK    6  A    between atoms: N_16  and  C_17
REMARK    7  A    between atoms: C_17  and  C_18
REMARK    8  A    between atoms: C_18  and  S_19
REMARK    9  A    between atoms: S_19  and  C_20
REMARK                            x       y       z     vdW  Elec       q    Type
REMARK                         _______ _______ _______ _____ _____    ______ ____
ROOT
ATOM      1  C   UNL     1       0.831  -1.542  -4.694  0.00  0.00    +0.128 C 
ATOM      2  C   UNL     1       1.185  -0.370  -5.630  0.00  0.00    +0.108 C 
ATOM      3  N   UNL     1      -0.073  -0.031  -6.338  0.00  0.00    -0.295 NA
ATOM      4  C   UNL     1      -0.880  -1.277  -6.277  0.00  0.00    +0.169 C 
ATOM      5  N   UNL     1      -0.609  -1.812  -4.917  0.00  0.00    -0.279 NA
ATOM      6  H   UNL     1      -0.550   0.732  -5.881  0.00  0.00    +0.124 HD
ENDROOT
BRANCH   1   9
ATOM      7  C   UNL     1       0.707  -0.490  -1.238  0.00  0.00    +0.084 A 
ATOM      8  N   UNL     1       0.141  -0.740  -2.387  0.00  0.00    -0.346 N 
ATOM      9  C   UNL     1       1.073  -1.153  -3.259  0.00  0.00    +0.056 A 
ATOM     10  H   UNL     1       2.695  -0.629  -0.646  0.00  0.00    +0.167 HD
ATOM     11  C   UNL     1       2.262  -1.159  -2.626  0.00  0.00    +0.035 A 
ATOM     12  N   UNL     1       2.031  -0.734  -1.346  0.00  0.00    -0.347 N 
ATOM     13  C   UNL     1       3.591  -1.553  -3.217  0.00  0.00    +0.065 C 
ATOM     14  H   UNL     1      -0.805  -0.643  -2.579  0.00  0.00    +0.167 HD
BRANCH   7  16
ATOM     15  C   UNL     1      -0.019   1.526   0.010  0.00  0.00    +0.012 C 
ATOM     16  C   UNL     1       0.002  -0.004   0.002  0.00  0.00    +0.069 C 
ENDBRANCH   7  16
ENDBRANCH   1   9
BRANCH   2  17
ATOM     17  C   UNL     1       1.667   0.810  -4.827  0.00  0.00    -0.029 A 
ATOM     18  C   UNL     1       0.755   1.638  -4.199  0.00  0.00    +0.005 A 
ATOM     19  C   UNL     1       1.197   2.721  -3.462  0.00  0.00    +0.000 A 
ATOM     20  C   UNL     1       2.552   2.976  -3.353  0.00  0.00    +0.000 A 
ATOM     21  C   UNL     1       3.463   2.148  -3.981  0.00  0.00    +0.000 A 
ATOM     22  C   UNL     1       3.021   1.063  -4.714  0.00  0.00    +0.005 A 
ENDBRANCH   2  17
BRANCH   5  23
ATOM     23  C   UNL     1      -0.891  -3.252  -4.850  0.00  0.00    +0.097 C 
BRANCH  23  24
ATOM     24  C   UNL     1      -2.405  -3.475  -4.834  0.00  0.00    +0.093 C 
BRANCH  24  25
ATOM     25  S   UNL     1      -2.753  -5.253  -4.751  0.00  0.00    -0.083 S 
BRANCH  25  26
ATOM     26  C   UNL     1      -4.513  -5.343  -4.740  0.00  0.00    +0.209 A 
ATOM     27  H   UNL     1      -7.462  -4.333  -4.772  0.00  0.00    +0.190 HD
ATOM     28  N   UNL     1      -5.235  -6.467  -4.686  0.00  0.00    -0.210 NA
ATOM     29  C   UNL     1      -6.510  -6.175  -4.693  0.00  0.00    +0.217 A 
ATOM     30  N   UNL     1      -6.635  -4.838  -4.753  0.00  0.00    -0.264 N 
ATOM     31  N   UNL     1      -5.331  -4.317  -4.777  0.00  0.00    -0.146 NA
ENDBRANCH  25  26
ENDBRANCH  24  25
ENDBRANCH  23  24
ENDBRANCH   5  23
TORSDOF 7
