REMARK  Name = ZINC50014765
REMARK  4 active torsions:
REMARK  status: ('A' for Active; 'I' for Inactive)
REMARK    1  A    between atoms: C_1  and  N_2
REMARK    2  A    between atoms: N_2  and  C_3
REMARK    3  A    between atoms: C_8  and  N_9
REMARK    4  A    between atoms: C_10  and  C_12
REMARK                            x       y       z     vdW  Elec       q    Type
REMARK                         _______ _______ _______ _____ _____    ______ ____
ROOT
ATOM      1  C   UNL     1       0.166   1.451   0.001  0.00  0.00    +0.138 C 
ATOM      2  N   UNL     1       0.090  -0.013  -0.004  0.00  0.00    -0.268 N 
ATOM      3  C   UNL     1      -0.102  -0.673  -1.163  0.00  0.00    +0.270 C 
ATOM      4  O   UNL     1      -0.256  -1.879  -1.157  0.00  0.00    -0.268 OA
ENDROOT
BRANCH   3   5
ATOM      5  C   UNL     1      -0.124   0.069  -2.443  0.00  0.00    +0.134 A 
ATOM      6  C   UNL     1      -1.352   0.317  -3.099  0.00  0.00    +0.013 A 
ATOM      7  C   UNL     1      -2.576  -0.121  -2.577  0.00  0.00    +0.011 A 
ATOM      8  C   UNL     1      -3.728   0.147  -3.253  0.00  0.00    +0.001 A 
ATOM      9  C   UNL     1      -3.710   0.849  -4.457  0.00  0.00    +0.001 A 
ATOM     10  C   UNL     1      -2.538   1.290  -4.994  0.00  0.00    +0.008 A 
ATOM     11  C   UNL     1      -1.333   1.032  -4.324  0.00  0.00    -0.014 A 
ATOM     12  C   UNL     1      -0.091   1.461  -4.825  0.00  0.00    +0.028 A 
ATOM     13  C   UNL     1       1.041   1.172  -4.117  0.00  0.00    +0.112 A 
ATOM     14  N   UNL     1       1.003   0.509  -2.975  0.00  0.00    -0.250 NA
ENDBRANCH   3   5
BRANCH   2  15
ATOM     15  C   UNL     1       0.218  -0.725   1.194  0.00  0.00    +0.057 A 
ATOM     16  C   UNL     1      -0.907  -1.023   1.949  0.00  0.00    +0.025 A 
ATOM     17  C   UNL     1      -0.779  -1.726   3.133  0.00  0.00    +0.002 A 
ATOM     18  C   UNL     1       0.469  -2.134   3.568  0.00  0.00    +0.002 A 
ATOM     19  C   UNL     1       1.595  -1.841   2.822  0.00  0.00    +0.024 A 
ATOM     20  C   UNL     1       1.476  -1.141   1.631  0.00  0.00    +0.046 A 
BRANCH  20  21
ATOM     21  N   UNL     1       2.613  -0.850   0.871  0.00  0.00    -0.357 N 
ATOM     22  H   UNL     1       2.529  -0.357   0.040  0.00  0.00    +0.142 HD
ATOM     23  H   UNL     1       3.487  -1.140   1.176  0.00  0.00    +0.142 HD
ENDBRANCH  20  21
ENDBRANCH   2  15
TORSDOF 3
