REMARK  Name = ZINC16835026
REMARK  7 active torsions:
REMARK  status: ('A' for Active; 'I' for Inactive)
REMARK    1  A    between atoms: C_1  and  C_2
REMARK    2  A    between atoms: C_7  and  N_8
REMARK    3  A    between atoms: C_18  and  S_19
REMARK    4  A    between atoms: S_19  and  C_20
REMARK    5  A    between atoms: C_20  and  C_22
REMARK    6  A    between atoms: C_20  and  C_23
REMARK    7  A    between atoms: N_25  and  C_26
REMARK                            x       y       z     vdW  Elec       q    Type
REMARK                         _______ _______ _______ _____ _____    ______ ____
ROOT
ATOM      1  N   UNL     1      -2.457   3.824   0.046  0.00  0.00    -0.255 N 
ATOM      2  C   UNL     1      -3.051   4.164  -1.121  0.00  0.00    +0.267 A 
ATOM      3  O   UNL     1      -2.543   3.884  -2.192  0.00  0.00    -0.267 OA
ATOM      4  C   UNL     1      -4.333   4.877  -1.050  0.00  0.00    +0.065 A 
ATOM      5  C   UNL     1      -5.023   5.265  -2.198  0.00  0.00    +0.017 A 
ATOM      6  C   UNL     1      -6.210   5.931  -2.081  0.00  0.00    +0.021 A 
ATOM      7  C   UNL     1      -6.738   6.229  -0.829  0.00  0.00    +0.043 A 
ATOM      8  C   UNL     1      -6.077   5.857   0.321  0.00  0.00    +0.048 A 
ATOM      9  C   UNL     1      -4.861   5.175   0.227  0.00  0.00    +0.080 A 
ATOM     10  N   UNL     1      -4.177   4.790   1.330  0.00  0.00    -0.223 NA
ATOM     11  C   UNL     1      -3.038   4.150   1.241  0.00  0.00    +0.177 A 
ATOM     12 CL   UNL     1      -8.248   7.077  -0.715  0.00  0.00    -0.083 Cl
ENDROOT
BRANCH   1  19
ATOM     13  C   UNL     1      -0.056   5.352   0.032  0.00  0.00    +0.046 C 
ATOM     14  C   UNL     1      -0.041   3.845   0.023  0.00  0.00    -0.026 A 
ATOM     15  C   UNL     1       1.161   3.165   0.008  0.00  0.00    +0.005 A 
ATOM     16  C   UNL     1       1.176   1.783   0.000  0.00  0.00    +0.000 A 
ATOM     17  C   UNL     1      -0.013   1.076   0.008  0.00  0.00    +0.002 A 
ATOM     18  C   UNL     1      -1.218   1.749   0.017  0.00  0.00    +0.026 A 
ATOM     19  C   UNL     1      -1.236   3.138   0.031  0.00  0.00    +0.055 A 
ENDBRANCH   1  19
BRANCH  11  20
ATOM     20  S   UNL     1      -2.214   3.687   2.729  0.00  0.00    -0.075 S 
BRANCH  20  21
ATOM     21  C   UNL     1      -3.380   4.342   3.949  0.00  0.00    +0.137 C 
ATOM     22  C   UNL     1      -3.426   5.868   3.843  0.00  0.00    +0.029 C 
BRANCH  21  23
ATOM     23  C   UNL     1      -2.932   3.948   5.333  0.00  0.00    +0.226 C 
ATOM     24  O   UNL     1      -1.762   3.710   5.547  0.00  0.00    -0.275 OA
ATOM     25  N   UNL     1      -3.831   3.861   6.333  0.00  0.00    -0.310 N 
ATOM     26  H   UNL     1      -4.767   4.053   6.162  0.00  0.00    +0.149 HD
BRANCH  25  27
ATOM     27  C   UNL     1      -3.396   3.479   7.679  0.00  0.00    +0.095 C 
ATOM     28  C   UNL     1      -2.889   4.724   8.425  0.00  0.00    +0.046 C 
ATOM     29  C   UNL     1      -2.732   4.358   9.928  0.00  0.00    +0.168 C 
ATOM     30  S   UNL     1      -4.245   3.338  10.186  0.00  0.00    -0.029 S 
ATOM     31  O   UNL     1      -5.296   4.177  10.645  0.00  0.00    -0.174 OA
ATOM     32  O   UNL     1      -3.900   2.178  10.931  0.00  0.00    -0.174 OA
ATOM     33  C   UNL     1      -4.585   2.852   8.445  0.00  0.00    +0.188 C 
ENDBRANCH  25  27
ENDBRANCH  21  23
ENDBRANCH  20  21
ENDBRANCH  11  20
TORSDOF 5
