REMARK  Name = ZINC00376848
REMARK  5 active torsions:
REMARK  status: ('A' for Active; 'I' for Inactive)
REMARK    1  A    between atoms: C_1  and  C_2
REMARK    2  A    between atoms: C_2  and  C_4
REMARK    3  A    between atoms: C_7  and  N_10
REMARK    4  A    between atoms: C_11  and  C_13
REMARK    5  A    between atoms: C_13  and  C_14
REMARK                            x       y       z     vdW  Elec       q    Type
REMARK                         _______ _______ _______ _____ _____    ______ ____
ROOT
ATOM      1  N   UNL     1      -4.931   4.251   0.048  0.00  0.00    -0.285 N 
ATOM      2  C   UNL     1      -6.087   3.565  -0.052  0.00  0.00    +0.221 C 
ATOM      3  O   UNL     1      -6.074   2.353  -0.059  0.00  0.00    -0.275 OA
ATOM      4  H   UNL     1      -4.945   5.217   0.131  0.00  0.00    +0.155 HD
ENDROOT
BRANCH   1   8
ATOM      5  C   UNL     1      -1.299   2.221   0.002  0.00  0.00    +0.017 A 
ATOM      6  C   UNL     1      -1.446   3.380   0.775  0.00  0.00    +0.013 A 
ATOM      7  C   UNL     1      -2.643   4.049   0.782  0.00  0.00    +0.024 A 
ATOM      8  C   UNL     1      -3.715   3.571   0.033  0.00  0.00    +0.033 A 
ATOM      9  C   UNL     1      -3.575   2.416  -0.732  0.00  0.00    +0.024 A 
ATOM     10  C   UNL     1      -2.380   1.745  -0.751  0.00  0.00    +0.013 A 
BRANCH   5  12
ATOM     11  C   UNL     1       1.144   2.020   0.797  0.00  0.00    +0.091 C 
ATOM     12  C   UNL     1      -0.017   1.505  -0.014  0.00  0.00    +0.160 C 
ATOM     13  O   UNL     1       0.105   0.496  -0.676  0.00  0.00    -0.292 OA
ENDBRANCH   5  12
ENDBRANCH   1   8
BRANCH   2  14
ATOM     14  C   UNL     1      -7.395   4.306  -0.155  0.00  0.00    +0.144 C 
BRANCH  14  15
ATOM     15  C   UNL     1      -8.544   3.300  -0.257  0.00  0.00    +0.220 C 
ATOM     16  C   UNL     1      -9.866   4.046  -0.487  0.00  0.00    +0.274 C 
ATOM     17  O   UNL     1     -10.918   3.079  -0.564  0.00  0.00    -0.485 OA
ATOM     18  C   UNL     1     -10.927   2.106   0.388  0.00  0.00    +0.162 A 
ATOM     19  C   UNL     1     -12.081   1.365   0.595  0.00  0.00    +0.049 A 
ATOM     20  C   UNL     1     -12.104   0.372   1.555  0.00  0.00    +0.004 A 
ATOM     21  C   UNL     1     -10.976   0.114   2.313  0.00  0.00    +0.004 A 
ATOM     22  C   UNL     1      -9.823   0.849   2.113  0.00  0.00    +0.049 A 
ATOM     23  C   UNL     1      -9.794   1.848   1.151  0.00  0.00    +0.162 A 
ATOM     24  O   UNL     1      -8.652   2.566   0.967  0.00  0.00    -0.481 OA
ENDBRANCH  14  15
ENDBRANCH   2  14
TORSDOF 4
