REMARK  Name = ZINC55893440
REMARK  6 active torsions:
REMARK  status: ('A' for Active; 'I' for Inactive)
REMARK    1  A    between atoms: C_1  and  C_2
REMARK    2  A    between atoms: C_13  and  C_15
REMARK    3  A    between atoms: C_15  and  N_16
REMARK    4  A    between atoms: N_16  and  C_17
REMARK    5  A    between atoms: C_20  and  O_24
REMARK    6  A    between atoms: O_24  and  C_25
REMARK                            x       y       z     vdW  Elec       q    Type
REMARK                         _______ _______ _______ _____ _____    ______ ____
ROOT
ATOM      1  C   UNL     1      -0.334   1.519   0.357  0.00  0.00    +0.028 C 
ATOM      2  C   UNL     1      -0.129   0.021   0.126  0.00  0.00    +0.079 C 
ATOM      3  C   UNL     1      -1.456  -0.723   0.330  0.00  0.00    +0.027 C 
ATOM      4  C   UNL     1      -1.243  -2.205   0.025  0.00  0.00    +0.039 C 
ATOM      5  C   UNL     1      -0.062  -2.737   0.792  0.00  0.00    -0.026 A 
ATOM      6  C   UNL     1       0.042  -4.103   1.001  0.00  0.00    +0.005 A 
ATOM      7  C   UNL     1       1.115  -4.622   1.699  0.00  0.00    +0.000 A 
ATOM      8  C   UNL     1       2.095  -3.780   2.193  0.00  0.00    +0.002 A 
ATOM      9  C   UNL     1       1.999  -2.418   1.989  0.00  0.00    +0.024 A 
ATOM     10  C   UNL     1       0.918  -1.893   1.289  0.00  0.00    +0.040 A 
ATOM     11  N   UNL     1       0.836  -0.507   1.100  0.00  0.00    -0.267 N 
ATOM     12  C   UNL     1       1.629   0.329   1.800  0.00  0.00    +0.237 C 
ATOM     13  O   UNL     1       2.311  -0.100   2.706  0.00  0.00    -0.274 OA
ENDROOT
BRANCH  12  14
ATOM     14  C   UNL     1       1.667   1.796   1.457  0.00  0.00    +0.198 C 
BRANCH  14  15
ATOM     15  N   UNL     1       2.726   2.451   2.228  0.00  0.00    -0.335 N 
ATOM     16  H   UNL     1       3.268   1.933   2.843  0.00  0.00    +0.147 HD
BRANCH  15  17
ATOM     17  C   UNL     1       2.954   3.823   2.079  0.00  0.00    +0.033 A 
ATOM     18  C   UNL     1       2.173   4.565   1.202  0.00  0.00    +0.065 A 
ATOM     19  C   UNL     1       2.399   5.922   1.055  0.00  0.00    +0.169 A 
ATOM     20  C   UNL     1       3.406   6.542   1.782  0.00  0.00    +0.190 A 
ATOM     21  C   UNL     1       4.187   5.800   2.658  0.00  0.00    +0.169 A 
ATOM     22  C   UNL     1       3.958   4.444   2.810  0.00  0.00    +0.065 A 
ATOM     23  F   UNL     1       5.168   6.402   3.365  0.00  0.00    -0.201 F 
ATOM     24  F   UNL     1       1.639   6.644   0.202  0.00  0.00    -0.201 F 
BRANCH  20  25
ATOM     25  O   UNL     1       3.629   7.876   1.636  0.00  0.00    -0.490 OA
ATOM     26  C   UNL     1       2.909   8.753   2.505  0.00  0.00    +0.277 C 
ENDBRANCH  20  25
ENDBRANCH  15  17
ENDBRANCH  14  15
ENDBRANCH  12  14
TORSDOF 4
