REMARK  Name = ZINC45247569
REMARK  8 active torsions:
REMARK  status: ('A' for Active; 'I' for Inactive)
REMARK    1  A    between atoms: C_4  and  N_7
REMARK    2  A    between atoms: N_7  and  C_8
REMARK    3  A    between atoms: C_8  and  C_9
REMARK    4  A    between atoms: C_11  and  C_13
REMARK    5  A    between atoms: C_13  and  O_14
REMARK    6  A    between atoms: O_14  and  C_15
REMARK    7  A    between atoms: C_15  and  C_17
REMARK    8  A    between atoms: C_22  and  N_23
REMARK                            x       y       z     vdW  Elec       q    Type
REMARK                         _______ _______ _______ _____ _____    ______ ____
ROOT
ATOM      1  C   UNL     1       5.671  -6.420   0.230  0.00  0.00    +0.080 A 
ATOM      2  C   UNL     1       4.402  -6.986   0.115  0.00  0.00    +0.017 A 
ATOM      3  C   UNL     1       4.204  -8.324   0.401  0.00  0.00    +0.013 A 
ATOM      4  C   UNL     1       5.269  -9.122   0.808  0.00  0.00    +0.035 A 
ATOM      5  C   UNL     1       6.556  -8.568   0.929  0.00  0.00    +0.054 A 
ATOM      6  C   UNL     1       6.760  -7.213   0.634  0.00  0.00    +0.050 A 
ATOM      7  C   UNL     1       7.686  -9.409   1.360  0.00  0.00    +0.196 C 
ATOM      8  O   UNL     1       8.797  -8.928   1.465  0.00  0.00    -0.287 OA
ATOM      9  C   UNL     1       7.468 -10.839   1.666  0.00  0.00    +0.033 A 
ATOM     10  C   UNL     1       8.530 -11.639   2.075  0.00  0.00    +0.012 A 
ATOM     11  C   UNL     1       8.317 -12.976   2.360  0.00  0.00    +0.001 A 
ATOM     12  C   UNL     1       7.053 -13.525   2.241  0.00  0.00    +0.001 A 
ATOM     13  C   UNL     1       5.985 -12.744   1.836  0.00  0.00    +0.012 A 
ATOM     14  C   UNL     1       6.182 -11.396   1.546  0.00  0.00    +0.033 A 
ATOM     15  C   UNL     1       5.049 -10.554   1.114  0.00  0.00    +0.195 C 
ATOM     16  O   UNL     1       3.938 -11.034   1.010  0.00  0.00    -0.287 OA
ENDROOT
BRANCH   6  17
ATOM     17  N   UNL     1       8.019  -6.660   0.744  0.00  0.00    -0.357 N 
ATOM     18  H   UNL     1       8.122  -5.743   1.043  0.00  0.00    +0.142 HD
ATOM     19  H   UNL     1       8.802  -7.189   0.523  0.00  0.00    +0.142 HD
ENDBRANCH   6  17
BRANCH   1  20
ATOM     20  C   UNL     1       5.872  -4.991  -0.078  0.00  0.00    +0.341 C 
ATOM     21  O   UNL     1       6.992  -4.521  -0.074  0.00  0.00    -0.245 OA
BRANCH  20  22
ATOM     22  O   UNL     1       4.814  -4.208  -0.365  0.00  0.00    -0.452 OA
BRANCH  22  23
ATOM     23  C   UNL     1       5.082  -2.834  -0.654  0.00  0.00    +0.328 C 
BRANCH  23  25
ATOM     24  N   UNL     1       3.797  -0.807  -1.250  0.00  0.00    -0.255 N 
ATOM     25  C   UNL     1       3.788  -2.121  -0.948  0.00  0.00    +0.258 C 
ATOM     26  O   UNL     1       2.739  -2.728  -0.914  0.00  0.00    -0.271 OA
BRANCH  24  30
ATOM     27  C   UNL     1       0.202   1.236  -1.754  0.00  0.00    +0.000 A 
ATOM     28  C   UNL     1       1.084   1.121  -2.813  0.00  0.00    +0.002 A 
ATOM     29  C   UNL     1       2.276   0.444  -2.649  0.00  0.00    +0.023 A 
ATOM     30  C   UNL     1       2.590  -0.120  -1.419  0.00  0.00    +0.037 A 
ATOM     31  C   UNL     1       1.702  -0.002  -0.358  0.00  0.00    +0.023 A 
ATOM     32  C   UNL     1       0.510   0.676  -0.528  0.00  0.00    +0.002 A 
ENDBRANCH  24  30
BRANCH  24  33
ATOM     33  C   UNL     1       5.070  -0.098  -1.400  0.00  0.00    +0.232 C 
BRANCH  33  34
ATOM     34  C   UNL     1       5.483   0.450  -0.097  0.00  0.00    +0.082 C 
ATOM     35  N   UNL     1       5.802   0.872   0.908  0.00  0.00    -0.195 NA
ENDBRANCH  33  34
ENDBRANCH  24  33
ENDBRANCH  23  25
ENDBRANCH  22  23
ENDBRANCH  20  22
ENDBRANCH   1  20
TORSDOF 8
