REMARK  Name = ZINC32843972
REMARK  9 active torsions:
REMARK  status: ('A' for Active; 'I' for Inactive)
REMARK    1  A    between atoms: C_1  and  C_2
REMARK    2  A    between atoms: N_4  and  C_5
REMARK    3  A    between atoms: C_5  and  C_6
REMARK    4  A    between atoms: C_9  and  S_11
REMARK    5  A    between atoms: S_11  and  N_14
REMARK    6  A    between atoms: N_14  and  C_15
REMARK    7  A    between atoms: C_15  and  C_17
REMARK    8  A    between atoms: C_15  and  C_24
REMARK    9  A    between atoms: N_28  and  C_29
REMARK                            x       y       z     vdW  Elec       q    Type
REMARK                         _______ _______ _______ _____ _____    ______ ____
ROOT
ATOM      1  N   UNL     1      -3.471   1.633   0.915  0.00  0.00    -0.175 NA
ATOM      2  H   UNL     1      -3.377   2.707   1.131  0.00  0.00    +0.149 HD
ENDROOT
BRANCH   1   3
ATOM      3  S   UNL     1      -4.537   0.721   1.795  0.00  0.00    +0.066 S 
ATOM      4  O   UNL     1      -5.302   1.630   2.575  0.00  0.00    -0.153 OA
ATOM      5  O   UNL     1      -5.135  -0.194   0.886  0.00  0.00    -0.153 OA
BRANCH   3   9
ATOM      6  C   UNL     1      -2.131  -2.034   4.316  0.00  0.00    +0.009 A 
ATOM      7  C   UNL     1      -2.454  -0.855   4.901  0.00  0.00    +0.015 A 
ATOM      8  C   UNL     1      -3.201   0.064   4.189  0.00  0.00    +0.037 A 
ATOM      9  C   UNL     1      -3.590  -0.241   2.927  0.00  0.00    +0.143 A 
ATOM     10  S   UNL     1      -2.899  -1.873   2.712  0.00  0.00    -0.072 S 
BRANCH   6  11
ATOM     11  C   UNL     1      -1.337  -3.186   4.876  0.00  0.00    +0.146 C 
BRANCH  11  15
ATOM     12  C   UNL     1      -2.678  -6.195   6.826  0.00  0.00    +0.109 C 
ATOM     13  C   UNL     1      -1.748  -5.233   6.131  0.00  0.00    +0.210 C 
ATOM     14  O   UNL     1      -0.557  -5.460   6.095  0.00  0.00    -0.276 OA
ATOM     15  N   UNL     1      -2.240  -4.121   5.551  0.00  0.00    -0.311 N 
ATOM     16  H   UNL     1      -3.320  -3.915   5.584  0.00  0.00    +0.149 HD
ENDBRANCH  11  15
ENDBRANCH   6  11
ENDBRANCH   3   9
ENDBRANCH   1   3
BRANCH   1  17
ATOM     17  C   UNL     1      -2.514   0.979   0.019  0.00  0.00    +0.170 C 
BRANCH  17  18
ATOM     18  C   UNL     1      -1.219   1.750   0.017  0.00  0.00    -0.022 A 
ATOM     19  C   UNL     1      -0.013   1.076   0.008  0.00  0.00    +0.007 A 
ATOM     20  C   UNL     1       1.175   1.783   0.000  0.00  0.00    +0.020 A 
ATOM     21  C   UNL     1       1.156   3.166   0.008  0.00  0.00    +0.041 A 
ATOM     22  C   UNL     1      -0.052   3.841   0.023  0.00  0.00    +0.020 A 
ATOM     23  C   UNL     1      -1.239   3.133   0.031  0.00  0.00    +0.007 A 
ATOM     24 CL   UNL     1       2.647   4.055  -0.002  0.00  0.00    -0.084 Cl
ENDBRANCH  17  18
BRANCH  17  25
ATOM     25  C   UNL     1      -3.078   0.942  -1.378  0.00  0.00    +0.110 A 
ATOM     26  N   UNL     1      -3.670   1.933  -1.986  0.00  0.00    -0.348 N 
ATOM     27  C   UNL     1      -4.040   1.542  -3.214  0.00  0.00    +0.102 A 
ATOM     28  C   UNL     1      -3.670   0.256  -3.370  0.00  0.00    +0.104 A 
ATOM     29  N   UNL     1      -3.060  -0.125  -2.206  0.00  0.00    -0.337 N 
ATOM     30  C   UNL     1      -2.493  -1.444  -1.913  0.00  0.00    +0.150 C 
ATOM     31  H   UNL     1      -3.791   2.899  -1.473  0.00  0.00    +0.166 HD
ENDBRANCH  17  25
ENDBRANCH   1  17
TORSDOF 7
