REMARK  Name = ZINC12425781
REMARK  8 active torsions:
REMARK  status: ('A' for Active; 'I' for Inactive)
REMARK    1  A    between atoms: C_4  and  N_7
REMARK    2  A    between atoms: N_8  and  C_9
REMARK    3  A    between atoms: C_12  and  N_15
REMARK    4  A    between atoms: C_16  and  C_18
REMARK    5  A    between atoms: C_18  and  O_19
REMARK    6  A    between atoms: O_19  and  C_20
REMARK    7  A    between atoms: C_20  and  C_22
REMARK    8  A    between atoms: C_22  and  C_23
REMARK                            x       y       z     vdW  Elec       q    Type
REMARK                         _______ _______ _______ _____ _____    ______ ____
ROOT
ATOM      1  N   UNL     1       4.802   1.553  -0.035  0.00  0.00    -0.283 N 
ATOM      2  C   UNL     1       3.565   2.054   0.150  0.00  0.00    +0.255 C 
ATOM      3  O   UNL     1       3.412   3.246   0.315  0.00  0.00    -0.272 OA
ATOM      4  H   UNL     1       4.933   0.593  -0.091  0.00  0.00    +0.155 HD
ENDROOT
BRANCH   1   8
ATOM      5  C   UNL     1       8.064   4.125  -0.369  0.00  0.00    +0.086 A 
ATOM      6  C   UNL     1       8.218   2.872   0.234  0.00  0.00    +0.031 A 
ATOM      7  C   UNL     1       7.138   2.025   0.342  0.00  0.00    +0.025 A 
ATOM      8  C   UNL     1       5.894   2.414  -0.147  0.00  0.00    +0.034 A 
ATOM      9  C   UNL     1       5.739   3.658  -0.751  0.00  0.00    +0.025 A 
ATOM     10  C   UNL     1       6.813   4.512  -0.859  0.00  0.00    +0.031 A 
BRANCH   5  12
ATOM     11  N   UNL     1       8.990   6.122  -1.034  0.00  0.00    -0.149 NA
ATOM     12  N   UNL     1       9.133   4.967  -0.478  0.00  0.00    -0.149 NA
BRANCH  11  16
ATOM     13  C   UNL     1      12.228   8.674  -1.367  0.00  0.00    +0.000 A 
ATOM     14  C   UNL     1      10.993   9.063  -1.853  0.00  0.00    +0.002 A 
ATOM     15  C   UNL     1       9.908   8.217  -1.746  0.00  0.00    +0.029 A 
ATOM     16  C   UNL     1      10.060   6.965  -1.145  0.00  0.00    +0.086 A 
ATOM     17  C   UNL     1      11.310   6.581  -0.651  0.00  0.00    +0.029 A 
ATOM     18  C   UNL     1      12.386   7.436  -0.769  0.00  0.00    +0.002 A 
ENDBRANCH  11  16
ENDBRANCH   5  12
ENDBRANCH   1   8
BRANCH   2  19
ATOM     19  C   UNL     1       2.371   1.134   0.151  0.00  0.00    +0.328 C 
BRANCH  19  20
ATOM     20  O   UNL     1       1.163   1.909   0.367  0.00  0.00    -0.455 OA
BRANCH  20  21
ATOM     21  C   UNL     1       0.003   1.234   0.396  0.00  0.00    +0.309 C 
ATOM     22  O   UNL     1      -0.002   0.035   0.245  0.00  0.00    -0.251 OA
BRANCH  21  23
ATOM     23  C   UNL     1      -1.294   1.972   0.611  0.00  0.00    +0.144 C 
BRANCH  23  24
ATOM     24  C   UNL     1      -2.456   0.977   0.594  0.00  0.00    +0.148 C 
ATOM     25  C   UNL     1      -3.761   1.720   0.711  0.00  0.00    +0.231 C 
ATOM     26  O   UNL     1      -4.390   1.945  -0.302  0.00  0.00    -0.274 OA
ATOM     27  N   UNL     1      -4.256   2.142   1.870  0.00  0.00    -0.284 N 
ATOM     28  C   UNL     1      -3.742   1.880   3.136  0.00  0.00    +0.047 A 
ATOM     29  C   UNL     1      -4.149   2.666   4.210  0.00  0.00    +0.024 A 
ATOM     30  C   UNL     1      -3.645   2.434   5.474  0.00  0.00    +0.002 A 
ATOM     31  C   UNL     1      -2.732   1.417   5.689  0.00  0.00    +0.001 A 
ATOM     32  C   UNL     1      -2.322   0.625   4.632  0.00  0.00    +0.016 A 
ATOM     33  C   UNL     1      -2.826   0.854   3.362  0.00  0.00    +0.030 A 
ATOM     34  S   UNL     1      -2.311  -0.157   2.009  0.00  0.00    -0.110 S 
ATOM     35  H   UNL     1      -5.058   2.687   1.829  0.00  0.00    +0.155 HD
ENDBRANCH  23  24
ENDBRANCH  21  23
ENDBRANCH  20  21
ENDBRANCH  19  20
ENDBRANCH   2  19
TORSDOF 8
