REMARK  Name = ZINC58501061
REMARK  2 active torsions:
REMARK  status: ('A' for Active; 'I' for Inactive)
REMARK    1  A    between atoms: C_4  and  C_7
REMARK    2  A    between atoms: C_17  and  C_19
REMARK                            x       y       z     vdW  Elec       q    Type
REMARK                         _______ _______ _______ _____ _____    ______ ____
ROOT
ATOM      1  C   UNL     1       3.526  -0.570  -0.189  0.00  0.00    +0.137 C 
ATOM      2  C   UNL     1       3.620  -0.924   1.294  0.00  0.00    -0.012 A 
ATOM      3  C   UNL     1       4.015  -0.014   2.273  0.00  0.00    +0.013 A 
ATOM      4  C   UNL     1       4.072  -0.397   3.569  0.00  0.00    +0.046 A 
ATOM      5  S   UNL     1       3.560  -2.106   3.471  0.00  0.00    -0.101 S 
ATOM      6  C   UNL     1       3.312  -2.181   1.716  0.00  0.00    -0.003 A 
ATOM      7  C   UNL     1       2.873  -3.346   0.890  0.00  0.00    +0.062 C 
ATOM      8  C   UNL     1       2.422  -2.831  -0.486  0.00  0.00    +0.114 C 
ATOM      9  N   UNL     1       3.391  -1.823  -0.944  0.00  0.00    -0.290 N 
ATOM     10  C   UNL     1       4.145  -2.046  -2.039  0.00  0.00    +0.224 C 
ATOM     11  O   UNL     1       5.013  -1.257  -2.348  0.00  0.00    -0.275 OA
ENDROOT
BRANCH  10  12
ATOM     12  C   UNL     1       3.909  -3.274  -2.878  0.00  0.00    +0.116 C 
ATOM     13  C   UNL     1       4.302  -4.519  -2.082  0.00  0.00    +0.113 C 
ATOM     14  C   UNL     1       5.799  -4.588  -1.945  0.00  0.00    +0.218 C 
ATOM     15  O   UNL     1       6.288  -5.027  -0.926  0.00  0.00    -0.275 OA
ATOM     16  N   UNL     1       6.602  -4.168  -2.940  0.00  0.00    -0.285 N 
ATOM     17  C   UNL     1       6.057  -3.642  -4.116  0.00  0.00    +0.037 A 
ATOM     18  C   UNL     1       4.743  -3.194  -4.131  0.00  0.00    -0.014 A 
ATOM     19  C   UNL     1       4.204  -2.676  -5.291  0.00  0.00    +0.006 A 
ATOM     20  C   UNL     1       4.973  -2.604  -6.439  0.00  0.00    +0.000 A 
ATOM     21  C   UNL     1       6.282  -3.050  -6.428  0.00  0.00    +0.002 A 
ATOM     22  C   UNL     1       6.826  -3.567  -5.269  0.00  0.00    +0.023 A 
ATOM     23  H   UNL     1       7.565  -4.230  -2.841  0.00  0.00    +0.155 HD
ENDBRANCH  10  12
BRANCH   1  27
ATOM     24  C   UNL     1       0.109   1.903  -0.867  0.00  0.00    +0.000 A 
ATOM     25  C   UNL     1      -0.036   0.681  -0.237  0.00  0.00    +0.000 A 
ATOM     26  C   UNL     1       1.069  -0.119  -0.018  0.00  0.00    +0.006 A 
ATOM     27  C   UNL     1       2.320   0.302  -0.429  0.00  0.00    -0.023 A 
ATOM     28  C   UNL     1       2.466   1.524  -1.059  0.00  0.00    +0.006 A 
ATOM     29  C   UNL     1       1.360   2.325  -1.277  0.00  0.00    +0.000 A 
ENDBRANCH   1  27
TORSDOF 2
