REMARK  Name = ZINC38971075
REMARK  6 active torsions:
REMARK  status: ('A' for Active; 'I' for Inactive)
REMARK    1  A    between atoms: C_1  and  C_2
REMARK    2  A    between atoms: C_4  and  C_32
REMARK    3  A    between atoms: C_6  and  N_8
REMARK    4  A    between atoms: N_8  and  C_9
REMARK    5  A    between atoms: N_12  and  S_13
REMARK    6  A    between atoms: S_13  and  C_16
REMARK                            x       y       z     vdW  Elec       q    Type
REMARK                         _______ _______ _______ _____ _____    ______ ____
ROOT
ATOM      1  C   UNL     1       0.159  -2.076   3.662  0.00  0.00    +0.237 C 
ATOM      2  C   UNL     1      -0.836  -2.686   4.623  0.00  0.00    +0.192 C 
ATOM      3  N   UNL     1      -2.102  -2.722   4.328  0.00  0.00    -0.110 NA
ATOM      4  N   UNL     1      -0.393  -3.191   5.786  0.00  0.00    -0.226 NA
ATOM      5  C   UNL     1       0.883  -3.167   6.107  0.00  0.00    +0.089 A 
ATOM      6  C   UNL     1       1.316  -3.709   7.344  0.00  0.00    +0.030 A 
ATOM      7  C   UNL     1       2.624  -3.687   7.679  0.00  0.00    +0.002 A 
ATOM      8  C   UNL     1       3.613  -3.139   6.845  0.00  0.00    +0.002 A 
ATOM      9  C   UNL     1       3.309  -2.596   5.645  0.00  0.00    +0.027 A 
ATOM     10  C   UNL     1       1.906  -2.582   5.206  0.00  0.00    +0.063 A 
ATOM     11  N   UNL     1       1.576  -2.068   4.055  0.00  0.00    -0.359 N 
ATOM     12  H   UNL     1       2.251  -1.688   3.470  0.00  0.00    +0.162 HD
ENDROOT
BRANCH   3  13
ATOM     13  S   UNL     1      -3.181  -3.393   5.390  0.00  0.00    +0.102 S 
ATOM     14  O   UNL     1      -2.877  -4.779   5.457  0.00  0.00    -0.146 OA
ATOM     15  O   UNL     1      -3.192  -2.558   6.540  0.00  0.00    -0.146 OA
BRANCH  13  16
ATOM     16  C   UNL     1      -4.780  -3.263   4.660  0.00  0.00    +0.132 A 
ATOM     17  C   UNL     1      -5.475  -4.406   4.311  0.00  0.00    +0.050 A 
ATOM     18  C   UNL     1      -6.730  -4.305   3.738  0.00  0.00    +0.043 A 
ATOM     19  C   UNL     1      -7.289  -3.059   3.513  0.00  0.00    +0.021 A 
ATOM     20  C   UNL     1      -6.594  -1.917   3.862  0.00  0.00    +0.023 A 
ATOM     21  C   UNL     1      -5.341  -2.018   4.440  0.00  0.00    +0.068 A 
ATOM     22 CL   UNL     1      -4.471  -0.583   4.885  0.00  0.00    -0.082 Cl
ATOM     23 CL   UNL     1      -7.603  -5.740   3.300  0.00  0.00    -0.083 Cl
ENDBRANCH  13  16
ENDBRANCH   3  13
BRANCH   1  24
ATOM     24  N   UNL     1       0.051  -2.796   2.390  0.00  0.00    -0.318 N 
ATOM     25  H   UNL     1       0.097  -3.765   2.377  0.00  0.00    +0.148 HD
BRANCH  24  31
ATOM     26  C   UNL     1      -0.061   1.497   0.001  0.00  0.00    +0.044 C 
ATOM     27  C   UNL     1      -0.177  -0.006   0.010  0.00  0.00    -0.048 A 
ATOM     28  C   UNL     1      -0.450  -0.685  -1.163  0.00  0.00    +0.006 A 
ATOM     29  C   UNL     1      -0.557  -2.064  -1.159  0.00  0.00    -0.048 A 
ATOM     30  C   UNL     1      -0.392  -2.767   0.018  0.00  0.00    +0.026 A 
ATOM     31  C   UNL     1      -0.117  -2.088   1.198  0.00  0.00    +0.029 A 
ATOM     32  C   UNL     1      -0.004  -0.704   1.190  0.00  0.00    +0.026 A 
ATOM     33  C   UNL     1      -0.856  -2.799  -2.440  0.00  0.00    +0.044 C 
ENDBRANCH  24  31
ENDBRANCH   1  24
TORSDOF 4
