REMARK  Name = ZINC04156927
REMARK  14 active torsions:
REMARK  status: ('A' for Active; 'I' for Inactive)
REMARK    1  A    between atoms: C_1  and  C_2
REMARK    2  A    between atoms: C_9  and  C_20
REMARK    3  A    between atoms: C_10  and  N_11
REMARK    4  A    between atoms: N_11  and  C_12
REMARK    5  A    between atoms: C_12  and  C_13
REMARK    6  A    between atoms: C_12  and  C_14
REMARK    7  A    between atoms: C_12  and  C_15
REMARK    8  A    between atoms: C_15  and  C_16
REMARK    9  A    between atoms: C_16  and  C_17
REMARK   10  A    between atoms: C_16  and  C_18
REMARK   11  A    between atoms: C_16  and  C_19
REMARK   12  A    between atoms: C_24  and  O_26
REMARK   13  A    between atoms: O_26  and  S_27
REMARK   14  A    between atoms: S_27  and  C_30
REMARK                            x       y       z     vdW  Elec       q    Type
REMARK                         _______ _______ _______ _____ _____    ______ ____
ROOT
ATOM      1  C   UNL     1      -0.898   1.280  -4.558  0.00  0.00    +0.044 C 
ATOM      2  C   UNL     1      -0.612  -0.004  -3.824  0.00  0.00    -0.046 A 
ATOM      3  C   UNL     1      -1.145  -1.218  -4.293  0.00  0.00    +0.021 A 
ATOM      4  C   UNL     1      -0.893  -2.370  -3.640  0.00  0.00    +0.094 A 
ATOM      5  N   UNL     1      -0.117  -2.377  -2.513  0.00  0.00    -0.289 N 
ATOM      6  C   UNL     1       0.419  -1.205  -2.030  0.00  0.00    +0.117 A 
ATOM      7  C   UNL     1       0.166   0.006  -2.709  0.00  0.00    +0.048 A 
ATOM      8  N   UNL     1       1.121  -1.479  -0.943  0.00  0.00    -0.338 N 
ATOM      9  C   UNL     1       1.062  -2.801  -0.698  0.00  0.00    +0.087 A 
ATOM     10  C   UNL     1       0.286  -3.382  -1.678  0.00  0.00    +0.129 A 
ATOM     11  H   UNL     1       1.603  -0.829  -0.407  0.00  0.00    +0.167 HD
ENDROOT
BRANCH   9  12
ATOM     12  C   UNL     1       1.716  -3.507   0.428  0.00  0.00    +0.005 A 
ATOM     13  C   UNL     1       2.376  -4.717   0.207  0.00  0.00    +0.010 A 
ATOM     14  C   UNL     1       2.985  -5.372   1.258  0.00  0.00    +0.004 A 
ATOM     15  C   UNL     1       2.944  -4.834   2.531  0.00  0.00    +0.048 A 
ATOM     16  C   UNL     1       2.290  -3.631   2.760  0.00  0.00    +0.157 A 
ATOM     17  C   UNL     1       1.681  -2.963   1.711  0.00  0.00    +0.058 A 
BRANCH  16  18
ATOM     18  O   UNL     1       2.251  -3.107   4.013  0.00  0.00    -0.342 OA
BRANCH  18  19
ATOM     19  S   UNL     1       3.414  -2.178   4.331  0.00  0.00    +0.151 S 
ATOM     20  O   UNL     1       3.336  -1.891   5.721  0.00  0.00    -0.131 OA
ATOM     21  O   UNL     1       4.569  -2.755   3.736  0.00  0.00    -0.131 OA
BRANCH  19  22
ATOM     22  C   UNL     1       3.116  -0.661   3.486  0.00  0.00    +0.128 A 
ATOM     23  C   UNL     1       3.587  -0.484   2.198  0.00  0.00    +0.032 A 
ATOM     24  C   UNL     1       3.353   0.706   1.534  0.00  0.00    +0.022 A 
ATOM     25  C   UNL     1       2.648   1.719   2.159  0.00  0.00    +0.041 A 
ATOM     26  C   UNL     1       2.177   1.541   3.447  0.00  0.00    +0.022 A 
ATOM     27  C   UNL     1       2.407   0.348   4.108  0.00  0.00    +0.032 A 
ATOM     28 CL   UNL     1       2.355   3.214   1.326  0.00  0.00    -0.084 Cl
ENDBRANCH  19  22
ENDBRANCH  18  19
ENDBRANCH  16  18
ENDBRANCH   9  12
BRANCH  10  29
ATOM     29  N   UNL     1      -0.029  -4.737  -1.795  0.00  0.00    -0.323 N 
ATOM     30  H   UNL     1       0.193  -5.350  -1.077  0.00  0.00    +0.148 HD
BRANCH  29  31
ATOM     31  C   UNL     1      -0.695  -5.232  -3.002  0.00  0.00    +0.028 C 
ATOM     32  C   UNL     1      -2.104  -4.644  -3.085  0.00  0.00    +0.031 C 
ATOM     33  C   UNL     1       0.107  -4.811  -4.236  0.00  0.00    +0.031 C 
BRANCH  31  34
ATOM     34  C   UNL     1      -0.781  -6.759  -2.947  0.00  0.00    +0.031 C 
BRANCH  34  35
ATOM     35  C   UNL     1       0.509  -7.321  -2.347  0.00  0.00    -0.036 C 
ATOM     36  C   UNL     1       0.333  -7.505  -0.838  0.00  0.00    +0.010 C 
ATOM     37  C   UNL     1       0.825  -8.672  -2.992  0.00  0.00    +0.010 C 
ATOM     38  C   UNL     1       1.661  -6.349  -2.611  0.00  0.00    +0.010 C 
ENDBRANCH  34  35
ENDBRANCH  31  34
ENDBRANCH  29  31
ENDBRANCH  10  29
TORSDOF 8
