REMARK  Name = ZINC36220460
REMARK  10 active torsions:
REMARK  status: ('A' for Active; 'I' for Inactive)
REMARK    1  A    between atoms: C_1  and  C_2
REMARK    2  A    between atoms: C_7  and  C_8
REMARK    3  A    between atoms: C_8  and  N_9
REMARK    4  A    between atoms: C_10  and  C_29
REMARK    5  A    between atoms: C_12  and  C_17
REMARK    6  A    between atoms: C_20  and  N_23
REMARK    7  A    between atoms: C_24  and  C_26
REMARK    8  A    between atoms: C_26  and  C_27
REMARK    9  A    between atoms: C_26  and  C_28
REMARK   10  A    between atoms: N_31  and  C_32
REMARK                            x       y       z     vdW  Elec       q    Type
REMARK                         _______ _______ _______ _____ _____    ______ ____
ROOT
ATOM      1  N   UNL     1      -2.874   0.151   2.584  0.00  0.00    -0.248 N 
ATOM      2  C   UNL     1      -3.380   1.521   2.366  0.00  0.00    +0.211 C 
ATOM      3  C   UNL     1      -4.455   1.652   3.470  0.00  0.00    +0.238 C 
ATOM      4  O   UNL     1      -4.805   0.276   3.714  0.00  0.00    -0.440 OA
ATOM      5  C   UNL     1      -3.751  -0.488   3.382  0.00  0.00    +0.405 C 
ATOM      6  O   UNL     1      -3.603  -1.632   3.763  0.00  0.00    -0.226 OA
ENDROOT
BRANCH   3   7
ATOM      7  C   UNL     1      -5.646   2.431   2.972  0.00  0.00    -0.005 A 
ATOM      8  C   UNL     1      -6.655   1.783   2.283  0.00  0.00    +0.009 A 
ATOM      9  C   UNL     1      -7.747   2.493   1.826  0.00  0.00    +0.024 A 
ATOM     10  C   UNL     1      -7.832   3.860   2.058  0.00  0.00    +0.033 A 
ATOM     11  C   UNL     1      -6.817   4.507   2.751  0.00  0.00    +0.024 A 
ATOM     12  C   UNL     1      -5.730   3.790   3.210  0.00  0.00    +0.009 A 
BRANCH  10  13
ATOM     13  N   UNL     1      -8.937   4.582   1.596  0.00  0.00    -0.285 N 
ATOM     14  C   UNL     1     -10.152   4.000   1.549  0.00  0.00    +0.220 C 
ATOM     15  O   UNL     1     -10.306   2.882   1.993  0.00  0.00    -0.275 OA
ATOM     16  H   UNL     1      -8.829   5.503   1.308  0.00  0.00    +0.155 HD
BRANCH  14  17
ATOM     17  C   UNL     1     -11.319   4.738   0.945  0.00  0.00    +0.069 C 
ATOM     18  C   UNL     1     -12.570   3.860   1.016  0.00  0.00    +0.017 C 
ATOM     19  C   UNL     1     -11.560   6.034   1.722  0.00  0.00    +0.017 C 
ENDBRANCH  14  17
ENDBRANCH  10  13
ENDBRANCH   3   7
BRANCH   2  20
ATOM     20  C   UNL     1      -3.993   1.654   0.995  0.00  0.00    +0.242 C 
ATOM     21  O   UNL     1      -4.326   0.663   0.381  0.00  0.00    -0.273 OA
ATOM     22  N   UNL     1      -4.172   2.875   0.453  0.00  0.00    -0.284 N 
ATOM     23  H   UNL     1      -3.846   3.663   0.915  0.00  0.00    +0.155 HD
BRANCH  22  24
ATOM     24  C   UNL     1      -4.827   3.006  -0.776  0.00  0.00    +0.033 A 
ATOM     25  C   UNL     1      -5.646   4.102  -1.015  0.00  0.00    +0.023 A 
ATOM     26  C   UNL     1      -6.291   4.228  -2.230  0.00  0.00    +0.002 A 
ATOM     27  C   UNL     1      -6.124   3.264  -3.207  0.00  0.00    +0.000 A 
ATOM     28  C   UNL     1      -5.310   2.171  -2.972  0.00  0.00    +0.002 A 
ATOM     29  C   UNL     1      -4.656   2.042  -1.762  0.00  0.00    +0.023 A 
ENDBRANCH  22  24
ENDBRANCH   2  20
BRANCH   1  30
ATOM     30  C   UNL     1      -1.643  -0.414   2.027  0.00  0.00    +0.147 C 
BRANCH  30  37
ATOM     31  C   UNL     1      -2.861  -3.007   1.655  0.00  0.00    +0.044 C 
ATOM     32  C   UNL     1      -2.492  -2.169   0.458  0.00  0.00    -0.046 A 
ATOM     33  C   UNL     1      -2.743  -2.639  -0.818  0.00  0.00    +0.003 A 
ATOM     34  C   UNL     1      -2.405  -1.870  -1.916  0.00  0.00    +0.000 A 
ATOM     35  C   UNL     1      -1.818  -0.631  -1.738  0.00  0.00    +0.000 A 
ATOM     36  C   UNL     1      -1.568  -0.161  -0.462  0.00  0.00    +0.005 A 
ATOM     37  C   UNL     1      -1.910  -0.928   0.636  0.00  0.00    -0.027 A 
ENDBRANCH  30  37
ENDBRANCH   1  30
TORSDOF 7
