REMARK  Name = ZINC39676541
REMARK  9 active torsions:
REMARK  status: ('A' for Active; 'I' for Inactive)
REMARK    1  A    between atoms: C_1  and  C_2
REMARK    2  A    between atoms: C_6  and  C_15
REMARK    3  A    between atoms: N_17  and  C_18
REMARK    4  A    between atoms: C_18  and  C_19
REMARK    5  A    between atoms: C_18  and  C_27
REMARK    6  A    between atoms: C_22  and  O_25
REMARK    7  A    between atoms: O_25  and  C_26
REMARK    8  A    between atoms: C_30  and  O_33
REMARK    9  A    between atoms: O_33  and  C_34
REMARK                            x       y       z     vdW  Elec       q    Type
REMARK                         _______ _______ _______ _____ _____    ______ ____
ROOT
ATOM      1  C   UNL     1      -3.384  -0.505  -2.313  0.00  0.00    +0.219 C 
ATOM      2  O   UNL     1      -2.816  -1.064  -3.227  0.00  0.00    -0.275 OA
ATOM      3  N   UNL     1      -4.064   0.636  -2.539  0.00  0.00    -0.304 N 
ATOM      4  H   UNL     1      -4.518   1.083  -1.808  0.00  0.00    +0.150 HD
ENDROOT
BRANCH   1  10
ATOM      5  C   UNL     1      -0.046  -3.600  -2.124  0.00  0.00    +0.109 C 
ATOM      6  C   UNL     1      -1.396  -4.065  -1.641  0.00  0.00    +0.212 C 
ATOM      7  O   UNL     1      -1.747  -5.210  -1.829  0.00  0.00    -0.276 OA
ATOM      8  N   UNL     1      -2.214  -3.207  -0.999  0.00  0.00    -0.300 N 
ATOM      9  C   UNL     1      -1.968  -1.780  -0.685  0.00  0.00    +0.121 C 
ATOM     10  C   UNL     1      -3.328  -1.086  -0.923  0.00  0.00    +0.100 C 
ATOM     11  C   UNL     1      -4.371  -2.205  -0.766  0.00  0.00    -0.004 C 
ATOM     12  C   UNL     1      -3.567  -3.475  -0.455  0.00  0.00    +0.115 C 
ATOM     13  C   UNL     1      -5.152  -2.386  -2.064  0.00  0.00    -0.010 C 
ATOM     14  C   UNL     1      -6.221  -3.464  -1.865  0.00  0.00    -0.082 C 
ATOM     15  N   UNL     1      -7.125  -3.064  -0.780  0.00  0.00    +0.379 N 
ATOM     16  C   UNL     1      -6.383  -2.982   0.484  0.00  0.00    -0.082 C 
ATOM     17  C   UNL     1      -5.320  -1.884   0.385  0.00  0.00    -0.010 C 
ATOM     18  H   UNL     1      -7.526  -2.163  -0.992  0.00  0.00    -0.086 HD
ATOM     19  H   UNL     1      -7.864  -3.746  -0.691  0.00  0.00    -0.086 HD
ENDBRANCH   1  10
BRANCH   3  20
ATOM     20  C   UNL     1      -4.119   1.201  -3.889  0.00  0.00    +0.134 C 
BRANCH  20  21
ATOM     21  C   UNL     1      -5.237   0.550  -4.662  0.00  0.00    -0.023 A 
ATOM     22  C   UNL     1      -6.443   0.285  -4.038  0.00  0.00    +0.009 A 
ATOM     23  C   UNL     1      -7.470  -0.311  -4.744  0.00  0.00    +0.046 A 
ATOM     24  C   UNL     1      -7.291  -0.645  -6.079  0.00  0.00    +0.120 A 
ATOM     25  C   UNL     1      -6.081  -0.377  -6.702  0.00  0.00    +0.046 A 
ATOM     26  C   UNL     1      -5.059   0.224  -5.993  0.00  0.00    +0.009 A 
BRANCH  24  27
ATOM     27  O   UNL     1      -8.300  -1.232  -6.775  0.00  0.00    -0.495 OA
ATOM     28  C   UNL     1      -8.044  -1.547  -8.145  0.00  0.00    +0.277 C 
ENDBRANCH  24  27
ENDBRANCH  20  21
BRANCH  20  29
ATOM     29  C   UNL     1      -4.365   2.685  -3.804  0.00  0.00    -0.023 A 
ATOM     30  C   UNL     1      -5.250   3.185  -2.866  0.00  0.00    +0.009 A 
ATOM     31  C   UNL     1      -5.477   4.545  -2.785  0.00  0.00    +0.046 A 
ATOM     32  C   UNL     1      -4.816   5.410  -3.646  0.00  0.00    +0.120 A 
ATOM     33  C   UNL     1      -3.929   4.906  -4.585  0.00  0.00    +0.046 A 
ATOM     34  C   UNL     1      -3.701   3.546  -4.658  0.00  0.00    +0.009 A 
BRANCH  32  35
ATOM     35  O   UNL     1      -5.039   6.748  -3.569  0.00  0.00    -0.495 OA
ATOM     36  C   UNL     1      -4.324   7.579  -4.486  0.00  0.00    +0.277 C 
ENDBRANCH  32  35
ENDBRANCH  20  29
ENDBRANCH   3  20
TORSDOF 6
