REMARK  Name = ZINC44877744
REMARK  10 active torsions:
REMARK  status: ('A' for Active; 'I' for Inactive)
REMARK    1  A    between atoms: C_1  and  C_2
REMARK    2  A    between atoms: N_7  and  C_9
REMARK    3  A    between atoms: C_9  and  C_10
REMARK    4  A    between atoms: C_13  and  C_16
REMARK    5  A    between atoms: C_16  and  N_17
REMARK    6  A    between atoms: C_18  and  C_20
REMARK    7  A    between atoms: C_20  and  N_21
REMARK    8  A    between atoms: N_21  and  C_22
REMARK    9  A    between atoms: N_21  and  S_29
REMARK   10  A    between atoms: S_29  and  C_32
REMARK                            x       y       z     vdW  Elec       q    Type
REMARK                         _______ _______ _______ _____ _____    ______ ____
ROOT
ATOM      1  N   UNL     1       2.182 -11.239   2.490  0.00  0.00    -0.310 N 
ATOM      2  C   UNL     1       1.250 -11.871   1.749  0.00  0.00    +0.232 C 
ATOM      3  O   UNL     1       1.168 -13.081   1.780  0.00  0.00    -0.274 OA
ATOM      4  H   UNL     1       2.247 -10.272   2.465  0.00  0.00    +0.149 HD
ENDROOT
BRANCH   1   5
ATOM      5  C   UNL     1       3.095 -12.014   3.333  0.00  0.00    +0.139 C 
BRANCH   5   9
ATOM      6  C   UNL     1       5.748  -9.359   5.373  0.00  0.00    -0.064 A 
ATOM      7  C   UNL     1       4.543  -9.712   5.952  0.00  0.00    +0.002 A 
ATOM      8  C   UNL     1       3.685 -10.571   5.292  0.00  0.00    +0.005 A 
ATOM      9  C   UNL     1       4.031 -11.076   4.053  0.00  0.00    -0.030 A 
ATOM     10  C   UNL     1       5.235 -10.723   3.474  0.00  0.00    +0.005 A 
ATOM     11  C   UNL     1       6.092  -9.860   4.132  0.00  0.00    +0.002 A 
BRANCH   6  12
ATOM     12  C   UNL     1       6.684  -8.422   6.093  0.00  0.00    -0.043 C 
BRANCH  12  18
ATOM     13  C   UNL     1       7.681  -3.720   7.020  0.00  0.00    +0.005 C 
ATOM     14  C   UNL     1       6.819  -4.673   6.190  0.00  0.00    -0.031 C 
ATOM     15  C   UNL     1       7.058  -4.413   4.700  0.00  0.00    -0.001 C 
ATOM     16  C   UNL     1       6.251  -5.423   3.879  0.00  0.00    -0.018 C 
ATOM     17  C   UNL     1       6.650  -6.841   4.292  0.00  0.00    -0.078 C 
ATOM     18  N   UNL     1       6.373  -7.036   5.720  0.00  0.00    +0.383 N 
ATOM     19  C   UNL     1       7.196  -6.119   6.518  0.00  0.00    -0.075 C 
ATOM     20  H   UNL     1       5.397  -6.852   5.900  0.00  0.00    -0.081 HD
ENDBRANCH  12  18
ENDBRANCH   6  12
ENDBRANCH   5   9
ENDBRANCH   1   5
BRANCH   2  21
ATOM     21  C   UNL     1       0.310 -11.075   0.881  0.00  0.00    +0.227 C 
BRANCH  21  22
ATOM     22  N   UNL     1      -0.600 -11.986   0.182  0.00  0.00    -0.194 N 
BRANCH  22  23
ATOM     23  C   UNL     1      -1.768 -12.427   0.811  0.00  0.00    +0.052 A 
ATOM     24  C   UNL     1      -1.905 -13.762   1.166  0.00  0.00    +0.027 A 
ATOM     25  C   UNL     1      -3.059 -14.195   1.788  0.00  0.00    +0.040 A 
ATOM     26  C   UNL     1      -4.080 -13.299   2.057  0.00  0.00    +0.124 A 
ATOM     27  C   UNL     1      -3.946 -11.967   1.704  0.00  0.00    +0.040 A 
ATOM     28  C   UNL     1      -2.791 -11.528   1.087  0.00  0.00    +0.027 A 
ATOM     29  F   UNL     1      -5.209 -13.726   2.665  0.00  0.00    -0.205 F 
ENDBRANCH  22  23
BRANCH  22  30
ATOM     30  S   UNL     1      -0.244 -12.493  -1.354  0.00  0.00    +0.075 S 
ATOM     31  O   UNL     1      -1.454 -12.994  -1.906  0.00  0.00    -0.150 OA
ATOM     32  O   UNL     1       0.498 -11.447  -1.966  0.00  0.00    -0.150 OA
BRANCH  30  33
ATOM     33  C   UNL     1       0.850 -13.867  -1.208  0.00  0.00    +0.109 A 
ATOM     34  C   UNL     1       2.205 -13.657  -1.037  0.00  0.00    +0.029 A 
ATOM     35  C   UNL     1       3.063 -14.735  -0.923  0.00  0.00    +0.002 A 
ATOM     36  C   UNL     1       2.565 -16.023  -0.979  0.00  0.00    +0.000 A 
ATOM     37  C   UNL     1       1.210 -16.234  -1.149  0.00  0.00    +0.002 A 
ATOM     38  C   UNL     1       0.351 -15.156  -1.259  0.00  0.00    +0.029 A 
ENDBRANCH  30  33
ENDBRANCH  22  30
ENDBRANCH  21  22
ENDBRANCH   2  21
TORSDOF 9
