REMARK  Name = ZINC12453759
REMARK  8 active torsions:
REMARK  status: ('A' for Active; 'I' for Inactive)
REMARK    1  A    between atoms: C_3  and  N_18
REMARK    2  A    between atoms: C_6  and  C_7
REMARK    3  A    between atoms: C_13  and  C_16
REMARK    4  A    between atoms: C_16  and  O_17
REMARK    5  A    between atoms: C_21  and  N_69
REMARK    6  A    between atoms: C_24  and  C_25
REMARK    7  A    between atoms: C_24  and  N_69
REMARK    8  A    between atoms: C_25  and  C_26
REMARK                            x       y       z     vdW  Elec       q    Type
REMARK                         _______ _______ _______ _____ _____    ______ ____
ROOT
ATOM      1  C   UNL     1      -6.279   3.965  -3.686  0.00  0.00    +0.015 A 
ATOM      2  C   UNL     1      -5.393   3.486  -2.747  0.00  0.00    +0.024 A 
ATOM      3  C   UNL     1      -4.187   2.921  -3.151  0.00  0.00    +0.030 A 
ATOM      4  C   UNL     1      -3.869   2.842  -4.504  0.00  0.00    +0.024 A 
ATOM      5  C   UNL     1      -4.753   3.314  -5.448  0.00  0.00    +0.015 A 
ATOM      6  C   UNL     1      -5.965   3.883  -5.046  0.00  0.00    +0.037 A 
ENDROOT
BRANCH   6   7
ATOM      7  C   UNL     1      -6.911   4.395  -6.055  0.00  0.00    +0.247 C 
ATOM      8  O   UNL     1      -7.552   5.404  -5.830  0.00  0.00    -0.270 OA
ATOM      9  N   UNL     1      -7.066   3.745  -7.226  0.00  0.00    -0.297 N 
ATOM     10  C   UNL     1      -6.392   2.461  -7.463  0.00  0.00    +0.108 C 
ATOM     11  C   UNL     1      -7.439   1.428  -7.894  0.00  0.00    +0.019 C 
ATOM     12  C   UNL     1      -8.213   1.965  -9.100  0.00  0.00    +0.009 C 
ATOM     13  C   UNL     1      -8.940   3.254  -8.709  0.00  0.00    +0.032 C 
ATOM     14  C   UNL     1      -7.915   4.305  -8.286  0.00  0.00    +0.113 C 
BRANCH  13  15
ATOM     15  C   UNL     1      -9.741   3.771  -9.905  0.00  0.00    +0.160 C 
BRANCH  15  16
ATOM     16  O   UNL     1     -10.510   4.908  -9.508  0.00  0.00    -0.395 OA
ATOM     17  H   UNL     1     -11.044   5.289 -10.218  0.00  0.00    +0.209 HD
ENDBRANCH  15  16
ENDBRANCH  13  15
ENDBRANCH   6   7
BRANCH   3  18
ATOM     18  N   UNL     1      -3.295   2.438  -2.200  0.00  0.00    -0.330 N 
ATOM     19  C   UNL     1      -2.093   1.886  -2.838  0.00  0.00    +0.103 C 
ATOM     20  C   UNL     1      -1.203   1.235  -1.776  0.00  0.00    +0.003 C 
ATOM     21  C   UNL     1      -0.813   2.284  -0.731  0.00  0.00    -0.069 C 
ATOM     22  C   UNL     1      -2.084   2.877  -0.116  0.00  0.00    +0.003 C 
ATOM     23  C   UNL     1      -2.948   3.481  -1.226  0.00  0.00    +0.103 C 
BRANCH  21  24
ATOM     24  N   UNL     1      -0.008   1.641   0.324  0.00  0.00    +0.381 N 
ATOM     25  H   UNL     1       0.577   0.908  -0.095  0.00  0.00    -0.086 HD
ATOM     26  H   UNL     1      -0.635   1.222   1.021  0.00  0.00    -0.086 HD
BRANCH  24  27
ATOM     27  C   UNL     1       0.858   2.636   0.985  0.00  0.00    -0.078 C 
BRANCH  27  28
ATOM     28  C   UNL     1       1.680   1.942   2.073  0.00  0.00    +0.011 C 
BRANCH  28  29
ATOM     29  C   UNL     1       2.568   2.952   2.753  0.00  0.00    -0.075 C 
ATOM     30  C   UNL     1       2.138   3.500   3.844  0.00  0.00    -0.028 C 
ATOM     31  C   UNL     1       2.903   4.527   4.627  0.00  0.00    +0.027 C 
ATOM     32  C   UNL     1       4.377   4.513   4.215  0.00  0.00    +0.004 C 
ATOM     33  C   UNL     1       4.454   4.569   2.684  0.00  0.00    +0.005 C 
ATOM     34  C   UNL     1       3.897   3.255   2.127  0.00  0.00    +0.030 C 
ENDBRANCH  28  29
ENDBRANCH  27  28
ENDBRANCH  24  27
ENDBRANCH  21  24
ENDBRANCH   3  18
TORSDOF 8
