REMARK  Name = ZINC08788783
REMARK  4 active torsions:
REMARK  status: ('A' for Active; 'I' for Inactive)
REMARK    1  A    between atoms: C_1  and  O_2
REMARK    2  A    between atoms: O_2  and  C_3
REMARK    3  A    between atoms: C_6  and  C_9
REMARK    4  A    between atoms: C_9  and  C_11
REMARK                            x       y       z     vdW  Elec       q    Type
REMARK                         _______ _______ _______ _____ _____    ______ ____
ROOT
ATOM      1  C   UNL     1      -0.561  -0.519   1.306  0.00  0.00    +0.080 C 
ATOM      2  C   UNL     1       0.002  -0.461  -0.122  0.00  0.00    +0.071 C 
ATOM      3  C   UNL     1       1.315  -1.192  -0.236  0.00  0.00    -0.012 A 
ATOM      4  C   UNL     1       1.673  -2.521  -0.187  0.00  0.00    +0.006 A 
ATOM      5  C   UNL     1       3.003  -2.889  -0.278  0.00  0.00    +0.000 A 
ATOM      6  C   UNL     1       3.974  -1.921  -0.454  0.00  0.00    +0.002 A 
ATOM      7  C   UNL     1       3.617  -0.593  -0.571  0.00  0.00    +0.023 A 
ATOM      8  C   UNL     1       2.278  -0.218  -0.481  0.00  0.00    +0.038 A 
ATOM      9  N   UNL     1       1.670   1.028  -0.638  0.00  0.00    -0.285 N 
ATOM     10  C   UNL     1       0.332   0.962  -0.481  0.00  0.00    +0.227 C 
ATOM     11  O   UNL     1      -0.429   1.900  -0.582  0.00  0.00    -0.275 OA
ATOM     12  C   UNL     1      -1.048  -1.099  -1.018  0.00  0.00    -0.046 C 
ATOM     13  C   UNL     1      -1.798  -0.074  -1.885  0.00  0.00    -0.016 C 
ATOM     14  C   UNL     1      -3.224  -0.700  -1.957  0.00  0.00    -0.020 C 
ATOM     15  C   UNL     1      -3.383  -1.188  -0.488  0.00  0.00    -0.076 C 
ATOM     16  C   UNL     1      -1.681  -1.566   1.251  0.00  0.00    +0.052 C 
ATOM     17  C   UNL     1      -2.824  -1.137   2.134  0.00  0.00    -0.026 A 
ATOM     18  C   UNL     1      -3.595   0.003   2.207  0.00  0.00    +0.004 A 
ATOM     19  C   UNL     1      -4.614   0.101   3.136  0.00  0.00    +0.002 A 
ATOM     20  C   UNL     1      -4.841  -0.937   4.021  0.00  0.00    +0.022 A 
ATOM     21  C   UNL     1      -4.048  -2.065   3.983  0.00  0.00    +0.062 A 
ATOM     22  C   UNL     1      -3.023  -2.170   3.044  0.00  0.00    +0.054 A 
ATOM     23  N   UNL     1      -2.072  -3.173   2.849  0.00  0.00    -0.285 N 
ATOM     24  C   UNL     1      -1.238  -2.888   1.831  0.00  0.00    +0.212 C 
ATOM     25  O   UNL     1      -0.327  -3.592   1.454  0.00  0.00    -0.277 OA
ATOM     26 CL   UNL     1      -4.325  -3.359   5.108  0.00  0.00    -0.082 Cl
ATOM     27  H   UNL     1       2.150   1.847  -0.836  0.00  0.00    +0.155 HD
ATOM     28  H   UNL     1      -2.018  -3.982   3.381  0.00  0.00    +0.155 HD
ATOM     29  N   UNL     1      -2.042  -1.758  -0.176  0.00  0.00    +0.395 N 
ATOM     30  H   UNL     1      -2.052  -2.764  -0.382  0.00  0.00    -0.079 HD
ENDROOT
BRANCH   1  31
ATOM     31  C   UNL     1       0.496  -0.876   2.312  0.00  0.00    +0.167 C 
ATOM     32  O   UNL     1       1.263  -1.789   2.089  0.00  0.00    -0.292 OA
BRANCH  31  36
ATOM     33  C   UNL     1       0.795   1.305   5.931  0.00  0.00    +0.120 A 
ATOM     34  C   UNL     1       1.754   0.348   5.617  0.00  0.00    +0.046 A 
ATOM     35  C   UNL     1       1.662  -0.361   4.447  0.00  0.00    +0.015 A 
ATOM     36  C   UNL     1       0.600  -0.120   3.567  0.00  0.00    +0.018 A 
ATOM     37  C   UNL     1      -0.360   0.849   3.885  0.00  0.00    +0.015 A 
ATOM     38  C   UNL     1      -0.262   1.548   5.061  0.00  0.00    +0.046 A 
BRANCH  33  40
ATOM     39  C   UNL     1      -0.128   2.970   7.351  0.00  0.00    +0.277 C 
ATOM     40  O   UNL     1       0.891   2.003   7.090  0.00  0.00    -0.495 OA
ENDBRANCH  33  40
ENDBRANCH  31  36
ENDBRANCH   1  31
TORSDOF 3
