REMARK  Name = ZINC28120696
REMARK  16 active torsions:
REMARK  status: ('A' for Active; 'I' for Inactive)
REMARK    1  A    between atoms: C_1  and  C_2
REMARK    2  A    between atoms: C_2  and  C_3
REMARK    3  A    between atoms: C_8  and  C_27
REMARK    4  A    between atoms: C_9  and  C_25
REMARK    5  A    between atoms: C_12  and  C_15
REMARK    6  A    between atoms: C_13  and  O_14
REMARK    7  A    between atoms: C_15  and  N_16
REMARK    8  A    between atoms: N_16  and  C_17
REMARK    9  A    between atoms: N_16  and  C_21
REMARK   10  A    between atoms: C_17  and  C_18
REMARK   11  A    between atoms: C_18  and  C_19
REMARK   12  A    between atoms: C_18  and  C_20
REMARK   13  A    between atoms: C_21  and  C_22
REMARK   14  A    between atoms: C_22  and  C_23
REMARK   15  A    between atoms: C_22  and  C_24
REMARK   16  A    between atoms: C_25  and  C_26
REMARK                            x       y       z     vdW  Elec       q    Type
REMARK                         _______ _______ _______ _____ _____    ______ ____
ROOT
ATOM      1  C   UNL     1       6.012   0.544  -0.594  0.00  0.00    -0.005 A 
ATOM      2  C   UNL     1       5.146   1.600  -0.555  0.00  0.00    +0.022 A 
ATOM      3  C   UNL     1       3.788   1.373  -0.334  0.00  0.00    +0.065 A 
ATOM      4  C   UNL     1       2.824   2.489  -0.286  0.00  0.00    +0.202 A 
ATOM      5  O   UNL     1       3.178   3.645  -0.437  0.00  0.00    -0.286 OA
ATOM      6  C   UNL     1       1.413   2.136  -0.048  0.00  0.00    +0.092 A 
ATOM      7  C   UNL     1       1.085   0.824   0.112  0.00  0.00    +0.119 A 
ATOM      8  O   UNL     1       1.992  -0.153   0.060  0.00  0.00    -0.458 OA
ATOM      9  C   UNL     1       3.305   0.065  -0.153  0.00  0.00    +0.144 A 
ATOM     10  C   UNL     1       4.198  -0.997  -0.196  0.00  0.00    +0.021 A 
ATOM     11  C   UNL     1       5.544  -0.756  -0.415  0.00  0.00    +0.125 A 
ENDROOT
BRANCH   6  12
ATOM     12  C   UNL     1       0.374   3.184   0.011  0.00  0.00    +0.116 A 
ATOM     13  N   UNL     1      -0.921   3.053   0.201  0.00  0.00    -0.239 NA
ATOM     14  C   UNL     1      -1.758   4.109   0.235  0.00  0.00    +0.079 A 
ATOM     15  C   UNL     1      -3.160   4.107   0.434  0.00  0.00    +0.029 A 
ATOM     16  C   UNL     1      -3.865   5.270   0.434  0.00  0.00    +0.002 A 
ATOM     17  C   UNL     1      -3.247   6.497   0.240  0.00  0.00    +0.001 A 
ATOM     18  C   UNL     1      -1.879   6.543   0.043  0.00  0.00    +0.017 A 
ATOM     19  C   UNL     1      -1.157   5.375   0.041  0.00  0.00    +0.040 A 
ATOM     20  S   UNL     1       0.556   4.953  -0.167  0.00  0.00    -0.067 S 
ENDBRANCH   6  12
BRANCH   1  22
ATOM     21  C   UNL     1       7.789   0.626  -2.321  0.00  0.00    +0.009 C 
ATOM     22  C   UNL     1       7.481   0.787  -0.831  0.00  0.00    +0.035 C 
ENDBRANCH   1  22
BRANCH  11  23
ATOM     23  O   UNL     1       6.415  -1.796  -0.457  0.00  0.00    -0.506 OA
ATOM     24  H   UNL     1       6.051  -2.824  -0.317  0.00  0.00    +0.292 HD
ENDBRANCH  11  23
BRANCH   7  25
ATOM     25  C   UNL     1      -0.357   0.461   0.355  0.00  0.00    +0.072 C 
ATOM     26  C   UNL     1      -1.056   0.218  -0.984  0.00  0.00    +0.012 C 
ENDBRANCH   7  25
BRANCH  10  27
ATOM     27  C   UNL     1       3.705  -2.407  -0.004  0.00  0.00    -0.036 C 
BRANCH  27  28
ATOM     28  N   UNL     1       3.341  -2.981  -1.306  0.00  0.00    +0.383 N 
ATOM     29  H   UNL     1       4.195  -2.843  -1.986  0.00  0.00    -0.081 HD
BRANCH  28  30
ATOM     30  C   UNL     1       3.083  -4.422  -1.193  0.00  0.00    -0.075 C 
BRANCH  30  31
ATOM     31  C   UNL     1       4.411  -5.170  -1.060  0.00  0.00    -0.034 C 
ATOM     32  C   UNL     1       4.138  -6.659  -0.833  0.00  0.00    +0.005 C 
ATOM     33  C   UNL     1       5.228  -4.991  -2.341  0.00  0.00    +0.005 C 
ENDBRANCH  30  31
ENDBRANCH  28  30
BRANCH  28  34
ATOM     34  C   UNL     1       2.186  -2.282  -1.885  0.00  0.00    -0.075 C 
BRANCH  34  35
ATOM     35  C   UNL     1       2.077  -2.624  -3.373  0.00  0.00    -0.034 C 
ATOM     36  C   UNL     1       0.797  -2.010  -3.944  0.00  0.00    +0.005 C 
ATOM     37  C   UNL     1       3.289  -2.059  -4.116  0.00  0.00    +0.005 C 
ENDBRANCH  34  35
ENDBRANCH  28  34
ENDBRANCH  27  28
ENDBRANCH  10  27
TORSDOF 10
