REMARK  Name = ZINC09841735
REMARK  4 active torsions:
REMARK  status: ('A' for Active; 'I' for Inactive)
REMARK    1  A    between atoms: C_2  and  C_3
REMARK    2  A    between atoms: C_3  and  N_4
REMARK    3  A    between atoms: C_8  and  C_10
REMARK    4  A    between atoms: C_10  and  N_11
REMARK                            x       y       z     vdW  Elec       q    Type
REMARK                         _______ _______ _______ _____ _____    ______ ____
ROOT
ATOM      1  N   UNL     1      -4.761  -5.848  -3.724  0.00  0.00    -0.215 N 
ATOM      2  C   UNL     1      -4.940  -7.022  -3.084  0.00  0.00    +0.251 C 
ATOM      3  O   UNL     1      -4.123  -7.636  -2.431  0.00  0.00    -0.272 OA
ATOM      4  C   UNL     1      -6.374  -7.410  -3.352  0.00  0.00    +0.139 C 
ATOM      5  C   UNL     1      -7.159  -7.533  -2.055  0.00  0.00    +0.040 C 
ATOM      6  C   UNL     1      -8.556  -8.096  -2.333  0.00  0.00    +0.008 C 
ATOM      7  C   UNL     1      -8.423  -9.563  -2.767  0.00  0.00    +0.043 C 
ATOM      8  C   UNL     1      -7.362  -9.655  -3.815  0.00  0.00    -0.005 A 
ATOM      9  C   UNL     1      -6.420  -8.720  -4.121  0.00  0.00    -0.005 A 
ATOM     10  C   UNL     1      -5.536  -9.042  -5.151  0.00  0.00    +0.014 A 
ATOM     11  C   UNL     1      -5.640 -10.231  -5.787  0.00  0.00    +0.046 A 
ATOM     12  S   UNL     1      -7.027 -10.979  -4.944  0.00  0.00    -0.101 S 
ATOM     13  N   UNL     1      -6.893  -6.321  -4.185  0.00  0.00    -0.281 N 
ATOM     14  C   UNL     1      -5.878  -5.450  -4.346  0.00  0.00    +0.310 C 
ATOM     15  O   UNL     1      -5.965  -4.420  -4.986  0.00  0.00    -0.252 OA
ATOM     16  H   UNL     1      -7.790  -6.242  -4.545  0.00  0.00    +0.152 HD
ENDROOT
BRANCH   1  17
ATOM     17  C   UNL     1      -3.502  -5.098  -3.732  0.00  0.00    +0.214 C 
BRANCH  17  22
ATOM     18  N   UNL     1      -1.318  -1.700  -1.126  0.00  0.00    -0.296 N 
ATOM     19  C   UNL     1      -2.386  -2.498  -1.322  0.00  0.00    +0.306 C 
ATOM     20  O   UNL     1      -3.328  -2.451  -0.556  0.00  0.00    -0.252 OA
ATOM     21  N   UNL     1      -2.409  -3.349  -2.367  0.00  0.00    -0.239 N 
ATOM     22  C   UNL     1      -3.477  -4.147  -2.563  0.00  0.00    +0.238 C 
ATOM     23  O   UNL     1      -4.417  -4.100  -1.799  0.00  0.00    -0.274 OA
ATOM     24  H   UNL     1      -0.566  -1.737  -1.737  0.00  0.00    +0.151 HD
ATOM     25  H   UNL     1      -1.657  -3.386  -2.978  0.00  0.00    +0.159 HD
BRANCH  18  26
ATOM     26  C   UNL     1      -1.293  -0.775   0.010  0.00  0.00    +0.132 C 
BRANCH  26  28
ATOM     27  C   UNL     1      -0.016   1.306   0.009  0.00  0.00    +0.005 C 
ATOM     28  C   UNL     1       0.002  -0.004   0.002  0.00  0.00    -0.016 C 
ENDBRANCH  26  28
ENDBRANCH  18  26
ENDBRANCH  17  22
ENDBRANCH   1  17
TORSDOF 4
