REMARK  Name = ZINC12462438
REMARK  8 active torsions:
REMARK  status: ('A' for Active; 'I' for Inactive)
REMARK    1  A    between atoms: C_1  and  C_2
REMARK    2  A    between atoms: C_5  and  C_11
REMARK    3  A    between atoms: C_7  and  N_8
REMARK    4  A    between atoms: C_16  and  C_21
REMARK    5  A    between atoms: C_27  and  C_37
REMARK    6  A    between atoms: C_28  and  C_29
REMARK    7  A    between atoms: C_29  and  O_31
REMARK    8  A    between atoms: O_31  and  C_32
REMARK                            x       y       z     vdW  Elec       q    Type
REMARK                         _______ _______ _______ _____ _____    ______ ____
ROOT
ATOM      1  C   UNL     1       1.081  -2.311   0.506  0.00  0.00    +0.092 C 
ATOM      2  C   UNL     1       0.935  -0.822   0.321  0.00  0.00    +0.024 C 
ATOM      3  C   UNL     1       1.836   0.031   0.854  0.00  0.00    +0.016 C 
ATOM      4  C   UNL     1       1.687   1.523   0.687  0.00  0.00    +0.060 C 
ATOM      5  C   UNL     1       0.995   1.824  -0.644  0.00  0.00    +0.039 C 
ATOM      6  C   UNL     1      -0.368   1.123  -0.654  0.00  0.00    +0.088 C 
ATOM      7  C   UNL     1      -0.164  -0.348  -0.418  0.00  0.00    +0.162 C 
ATOM      8  O   UNL     1      -0.962  -1.142  -0.875  0.00  0.00    -0.292 OA
ATOM      9  N   UNL     1       2.910  -0.444   1.558  0.00  0.00    -0.321 N 
ATOM     10  C   UNL     1       3.315  -1.742   1.420  0.00  0.00    +0.016 C 
ATOM     11  C   UNL     1       2.479  -2.668   0.920  0.00  0.00    +0.065 C 
ATOM     12  C   UNL     1       4.710  -2.138   1.832  0.00  0.00    +0.061 C 
ATOM     13  H   UNL     1       3.456   0.221   2.243  0.00  0.00    +0.152 HD
ENDROOT
BRANCH   1  18
ATOM     14  C   UNL     1      -2.615  -4.087   4.578  0.00  0.00    +0.046 C 
ATOM     15  C   UNL     1      -1.651  -3.624   3.516  0.00  0.00    -0.020 A 
ATOM     16  C   UNL     1      -0.680  -2.690   3.824  0.00  0.00    +0.006 A 
ATOM     17  C   UNL     1       0.206  -2.268   2.851  0.00  0.00    +0.005 A 
ATOM     18  C   UNL     1       0.117  -2.775   1.568  0.00  0.00    -0.033 A 
ATOM     19  C   UNL     1      -0.853  -3.710   1.260  0.00  0.00    +0.037 A 
ATOM     20  C   UNL     1      -1.737  -4.135   2.235  0.00  0.00    +0.129 A 
BRANCH  20  21
ATOM     21  N   UNL     1      -2.777  -5.136   1.905  0.00  0.00    +0.057 N 
ATOM     22  O   UNL     1      -2.929  -5.498   0.752  0.00  0.00    -0.126 OA
ATOM     23  O   UNL     1      -3.479  -5.597   2.786  0.00  0.00    -0.126 OA
ENDBRANCH  20  21
ENDBRANCH   1  18
BRANCH   5  24
ATOM     24  C   UNL     1       0.800   3.311  -0.789  0.00  0.00    -0.006 A 
ATOM     25  C   UNL     1       1.260   4.142  -1.757  0.00  0.00    +0.011 A 
ATOM     26  C   UNL     1       0.953   5.488  -1.685  0.00  0.00    +0.008 A 
ATOM     27  C   UNL     1       0.203   5.937  -0.650  0.00  0.00    +0.045 A 
ATOM     28  S   UNL     1      -0.101   4.435   0.265  0.00  0.00    -0.101 S 
ENDBRANCH   5  24
BRANCH  11  29
ATOM     29  C   UNL     1       2.925  -4.003   0.781  0.00  0.00    +0.338 C 
ATOM     30  O   UNL     1       4.056  -4.304   1.113  0.00  0.00    -0.245 OA
BRANCH  29  31
ATOM     31  O   UNL     1       2.095  -4.942   0.280  0.00  0.00    -0.458 OA
BRANCH  31  32
ATOM     32  C   UNL     1       2.612  -6.270   0.168  0.00  0.00    +0.177 C 
ATOM     33  C   UNL     1       3.228  -6.481  -1.231  0.00  0.00    +0.044 C 
ATOM     34  C   UNL     1       2.863  -7.944  -1.590  0.00  0.00    +0.004 C 
ATOM     35  C   UNL     1       1.432  -8.090  -1.015  0.00  0.00    +0.004 C 
ATOM     36  C   UNL     1       1.471  -7.293   0.305  0.00  0.00    +0.044 C 
ENDBRANCH  31  32
ENDBRANCH  29  31
ENDBRANCH  11  29
TORSDOF 6
