REMARK  Name = ZINC36206429
REMARK  10 active torsions:
REMARK  status: ('A' for Active; 'I' for Inactive)
REMARK    1  A    between atoms: C_2  and  C_3
REMARK    2  A    between atoms: C_3  and  N_4
REMARK    3  A    between atoms: N_4  and  C_5
REMARK    4  A    between atoms: N_4  and  C_24
REMARK    5  A    between atoms: C_5  and  C_6
REMARK    6  A    between atoms: C_12  and  C_17
REMARK    7  A    between atoms: C_24  and  C_25
REMARK    8  A    between atoms: C_25  and  C_27
REMARK    9  A    between atoms: C_25  and  O_34
REMARK   10  A    between atoms: C_27  and  C_28
REMARK                            x       y       z     vdW  Elec       q    Type
REMARK                         _______ _______ _______ _____ _____    ______ ____
ROOT
ATOM      1  C   UNL     1      -0.752  -3.497  -2.886  0.00  0.00    +0.094 A 
ATOM      2  N   UNL     1      -0.147  -4.695  -3.093  0.00  0.00    -0.312 N 
ATOM      3  H   UNL     1       0.488  -5.026  -2.439  0.00  0.00    +0.170 HD
ATOM      4  C   UNL     1      -0.413  -5.432  -4.187  0.00  0.00    +0.260 A 
ATOM      5  O   UNL     1       0.138  -6.506  -4.358  0.00  0.00    -0.267 OA
ATOM      6  C   UNL     1      -1.353  -4.936  -5.146  0.00  0.00    +0.080 A 
ATOM      7  C   UNL     1      -1.803  -5.541  -6.394  0.00  0.00    +0.004 A 
ATOM      8  C   UNL     1      -2.712  -4.878  -7.149  0.00  0.00    +0.056 A 
ATOM      9  S   UNL     1      -3.017  -3.390  -6.215  0.00  0.00    -0.076 S 
ATOM     10  C   UNL     1      -1.927  -3.690  -4.848  0.00  0.00    +0.116 A 
ATOM     11  N   UNL     1      -1.618  -3.021  -3.740  0.00  0.00    -0.229 NA
ENDROOT
BRANCH   7  12
ATOM     12  C   UNL     1      -1.276  -6.856  -6.830  0.00  0.00    -0.015 A 
ATOM     13  C   UNL     1       0.099  -7.088  -6.846  0.00  0.00    +0.008 A 
ATOM     14  C   UNL     1       0.584  -8.315  -7.252  0.00  0.00    +0.002 A 
ATOM     15  C   UNL     1      -0.290  -9.313  -7.643  0.00  0.00    +0.020 A 
ATOM     16  C   UNL     1      -1.655  -9.089  -7.630  0.00  0.00    +0.042 A 
ATOM     17  C   UNL     1      -2.153  -7.867  -7.219  0.00  0.00    +0.028 A 
ATOM     18 CL   UNL     1      -2.745 -10.347  -8.123  0.00  0.00    -0.084 Cl
ENDBRANCH   7  12
BRANCH   1  19
ATOM     19  C   UNL     1      -0.423  -2.706  -1.646  0.00  0.00    -0.003 C 
BRANCH  19  20
ATOM     20  N   UNL     1      -1.303  -1.532  -1.566  0.00  0.00    +0.388 N 
ATOM     21  H   UNL     1      -1.248  -1.011  -2.428  0.00  0.00    -0.081 HD
BRANCH  20  22
ATOM     22  C   UNL     1      -0.880  -0.678  -0.449  0.00  0.00    -0.051 C 
BRANCH  22  24
ATOM     23  C   UNL     1       0.775   1.098  -0.716  0.00  0.00    +0.002 C 
ATOM     24  C   UNL     1       0.524  -0.188  -0.696  0.00  0.00    -0.053 C 
ENDBRANCH  22  24
ENDBRANCH  20  22
BRANCH  20  25
ATOM     25  C   UNL     1      -2.688  -1.973  -1.348  0.00  0.00    -0.046 C 
BRANCH  25  26
ATOM     26  C   UNL     1      -3.628  -0.770  -1.454  0.00  0.00    +0.102 C 
BRANCH  26  27
ATOM     27  O   UNL     1      -3.409   0.104  -0.345  0.00  0.00    -0.393 OA
ATOM     28  H   UNL     1      -3.567  -0.306   0.517  0.00  0.00    +0.210 HD
ENDBRANCH  26  27
BRANCH  26  29
ATOM     29  C   UNL     1      -5.079  -1.255  -1.442  0.00  0.00    +0.064 C 
BRANCH  29  30
ATOM     30  C   UNL     1      -6.001  -0.085  -1.669  0.00  0.00    -0.045 A 
ATOM     31  C   UNL     1      -6.473   0.642  -0.593  0.00  0.00    +0.004 A 
ATOM     32  C   UNL     1      -7.319   1.716  -0.801  0.00  0.00    +0.000 A 
ATOM     33  C   UNL     1      -7.693   2.062  -2.086  0.00  0.00    +0.000 A 
ATOM     34  C   UNL     1      -7.220   1.335  -3.163  0.00  0.00    +0.000 A 
ATOM     35  C   UNL     1      -6.371   0.265  -2.955  0.00  0.00    +0.004 A 
ENDBRANCH  29  30
ENDBRANCH  26  29
ENDBRANCH  25  26
ENDBRANCH  20  25
ENDBRANCH  19  20
ENDBRANCH   1  19
TORSDOF 10
