REMARK  Name = ZINC65550618
REMARK  6 active torsions:
REMARK  status: ('A' for Active; 'I' for Inactive)
REMARK    1  A    between atoms: C_1  and  C_2
REMARK    2  A    between atoms: C_2  and  C_4
REMARK    3  A    between atoms: C_2  and  O_22
REMARK    4  A    between atoms: N_6  and  C_7
REMARK    5  A    between atoms: C_10  and  C_13
REMARK    6  A    between atoms: O_22  and  C_23
REMARK                            x       y       z     vdW  Elec       q    Type
REMARK                         _______ _______ _______ _____ _____    ______ ____
ROOT
ATOM      1  C   UNL     1       0.371  -0.694   3.926  0.00  0.00    +0.034 A 
ATOM      2  C   UNL     1       1.655  -1.180   4.137  0.00  0.00    +0.024 A 
ATOM      3  C   UNL     1       1.964  -1.819   5.322  0.00  0.00    +0.009 A 
ATOM      4  C   UNL     1       0.996  -1.975   6.298  0.00  0.00    -0.005 A 
ATOM      5  C   UNL     1      -0.283  -1.492   6.090  0.00  0.00    +0.009 A 
ATOM      6  C   UNL     1      -0.596  -0.847   4.910  0.00  0.00    +0.024 A 
ENDROOT
BRANCH   4   7
ATOM      7  C   UNL     1       1.336  -2.673   7.590  0.00  0.00    +0.206 C 
ATOM      8  N   UNL     1       2.334  -3.722   7.348  0.00  0.00    -0.360 N 
ATOM      9  C   UNL     1       1.799  -4.857   7.697  0.00  0.00    +0.060 A 
ATOM     10  C   UNL     1       2.296  -6.240   7.687  0.00  0.00    +0.027 A 
ATOM     11  C   UNL     1       1.497  -7.236   8.118  0.00  0.00    +0.002 A 
ATOM     12  C   UNL     1       0.189  -7.012   8.584  0.00  0.00    +0.002 A 
ATOM     13  C   UNL     1      -0.364  -5.783   8.633  0.00  0.00    +0.027 A 
ATOM     14  C   UNL     1       0.415  -4.619   8.189  0.00  0.00    +0.060 A 
ATOM     15  N   UNL     1       0.147  -3.347   8.126  0.00  0.00    -0.360 N 
ATOM     16  H   UNL     1       3.227  -3.594   6.993  0.00  0.00    +0.162 HD
ATOM     17  H   UNL     1      -0.685  -2.922   8.386  0.00  0.00    +0.162 HD
ENDBRANCH   4   7
BRANCH   1  20
ATOM     18  C   UNL     1      -0.826   0.973   2.723  0.00  0.00    +0.258 C 
ATOM     19  O   UNL     1      -1.268   1.397   3.770  0.00  0.00    -0.271 OA
ATOM     20  N   UNL     1       0.056  -0.046   2.727  0.00  0.00    -0.282 N 
ATOM     21  H   UNL     1       0.471  -0.331   1.898  0.00  0.00    +0.155 HD
BRANCH  18  23
ATOM     22  C   UNL     1      -2.041   0.550   0.603  0.00  0.00    +0.062 C 
ATOM     23  C   UNL     1      -1.264   1.586   1.418  0.00  0.00    +0.256 C 
BRANCH  23  24
ATOM     24  O   UNL     1      -2.102   2.713   1.679  0.00  0.00    -0.480 OA
BRANCH  24  25
ATOM     25  C   UNL     1      -2.170   3.669   0.714  0.00  0.00    +0.122 A 
ATOM     26  C   UNL     1      -2.868   4.845   0.949  0.00  0.00    +0.045 A 
ATOM     27  C   UNL     1      -2.934   5.814  -0.033  0.00  0.00    +0.004 A 
ATOM     28  C   UNL     1      -2.306   5.613  -1.248  0.00  0.00    +0.000 A 
ATOM     29  C   UNL     1      -1.611   4.442  -1.485  0.00  0.00    +0.004 A 
ATOM     30  C   UNL     1      -1.536   3.472  -0.504  0.00  0.00    +0.045 A 
ENDBRANCH  24  25
ENDBRANCH  23  24
ENDBRANCH  18  23
ENDBRANCH   1  20
TORSDOF 5
