REMARK  Name = ZINC39659841
REMARK  5 active torsions:
REMARK  status: ('A' for Active; 'I' for Inactive)
REMARK    1  A    between atoms: C_3  and  O_8
REMARK    2  A    between atoms: O_8  and  C_9
REMARK    3  A    between atoms: C_9  and  C_10
REMARK    4  A    between atoms: C_14  and  C_23
REMARK    5  A    between atoms: N_25  and  C_26
REMARK                            x       y       z     vdW  Elec       q    Type
REMARK                         _______ _______ _______ _____ _____    ______ ____
ROOT
ATOM      1  C   UNL     1       6.033   2.392  -0.011  0.00  0.00    +0.253 C 
ATOM      2  O   UNL     1       5.886   3.595  -0.054  0.00  0.00    -0.272 OA
ATOM      3  N   UNL     1       7.272   1.863  -0.058  0.00  0.00    -0.297 N 
ATOM      4  C   UNL     1       7.650   0.430  -0.025  0.00  0.00    +0.121 C 
ATOM      5  C   UNL     1       8.815   0.310  -1.033  0.00  0.00    +0.100 C 
ATOM      6  C   UNL     1       9.412   1.726  -1.112  0.00  0.00    -0.004 C 
ATOM      7  C   UNL     1       8.564   2.583  -0.161  0.00  0.00    +0.115 C 
ATOM      8  C   UNL     1       9.306   2.265  -2.535  0.00  0.00    -0.010 C 
ATOM      9  C   UNL     1       9.958   3.649  -2.601  0.00  0.00    -0.082 C 
ATOM     10  N   UNL     1      11.366   3.549  -2.198  0.00  0.00    +0.379 N 
ATOM     11  C   UNL     1      11.456   3.118  -0.798  0.00  0.00    -0.082 C 
ATOM     12  C   UNL     1      10.868   1.711  -0.655  0.00  0.00    -0.010 C 
ATOM     13  H   UNL     1      11.835   2.877  -2.787  0.00  0.00    -0.086 HD
ATOM     14  H   UNL     1      11.809   4.450  -2.301  0.00  0.00    -0.086 HD
ENDROOT
BRANCH   5  15
ATOM     15  C   UNL     1       9.844  -0.669  -0.530  0.00  0.00    +0.218 C 
ATOM     16  O   UNL     1      10.021  -0.804   0.662  0.00  0.00    -0.275 OA
ATOM     17  N   UNL     1      10.568  -1.394  -1.406  0.00  0.00    -0.312 N 
ATOM     18  H   UNL     1      10.426  -1.286  -2.359  0.00  0.00    +0.149 HD
BRANCH  17  19
ATOM     19  C   UNL     1      11.569  -2.346  -0.917  0.00  0.00    +0.073 C 
ATOM     20  C   UNL     1      12.887  -1.613  -0.660  0.00  0.00    +0.022 C 
ATOM     21  C   UNL     1      13.796  -2.488   0.206  0.00  0.00    +0.002 C 
ATOM     22  C   UNL     1      12.978  -3.103   1.344  0.00  0.00    +0.000 C 
ATOM     23  C   UNL     1      12.889  -4.618   1.146  0.00  0.00    +0.000 C 
ATOM     24  C   UNL     1      11.880  -4.928   0.038  0.00  0.00    +0.000 C 
ATOM     25  C   UNL     1      12.509  -4.625  -1.323  0.00  0.00    +0.002 C 
ATOM     26  C   UNL     1      11.789  -3.438  -1.966  0.00  0.00    +0.022 C 
ENDBRANCH  17  19
ENDBRANCH   5  15
BRANCH   1  27
ATOM     27  C   UNL     1       4.832   1.489   0.094  0.00  0.00    +0.324 C 
BRANCH  27  28
ATOM     28  O   UNL     1       3.642   2.280   0.128  0.00  0.00    -0.483 OA
BRANCH  28  31
ATOM     29  C   UNL     1       0.067   1.643   0.355  0.00  0.00    +0.005 A 
ATOM     30  C   UNL     1       1.267   2.321   0.259  0.00  0.00    +0.046 A 
ATOM     31  C   UNL     1       2.461   1.615   0.222  0.00  0.00    +0.123 A 
ATOM     32  C   UNL     1       2.447   0.229   0.281  0.00  0.00    +0.065 A 
ATOM     33  C   UNL     1       1.244  -0.445   0.377  0.00  0.00    +0.044 A 
ATOM     34  C   UNL     1       0.055   0.262   0.413  0.00  0.00    +0.020 A 
ATOM     35 CL   UNL     1       1.225  -2.179   0.450  0.00  0.00    -0.083 Cl
ENDBRANCH  28  31
ENDBRANCH  27  28
ENDBRANCH   1  27
TORSDOF 5
