REMARK  Name = ZINC39674105
REMARK  8 active torsions:
REMARK  status: ('A' for Active; 'I' for Inactive)
REMARK    1  A    between atoms: C_1  and  C_2
REMARK    2  A    between atoms: C_3  and  C_8
REMARK    3  A    between atoms: C_4  and  C_7
REMARK    4  A    between atoms: C_12  and  C_21
REMARK    5  A    between atoms: N_23  and  C_24
REMARK    6  A    between atoms: C_24  and  C_25
REMARK    7  A    between atoms: C_25  and  C_26
REMARK    8  A    between atoms: C_34  and  C_36
REMARK                            x       y       z     vdW  Elec       q    Type
REMARK                         _______ _______ _______ _____ _____    ______ ____
ROOT
ATOM      1  C   UNL     1      -0.007  -0.433  -2.583  0.00  0.00    +0.252 C 
ATOM      2  O   UNL     1       1.041  -0.238  -3.167  0.00  0.00    -0.270 OA
ATOM      3  N   UNL     1      -1.179  -0.248  -3.222  0.00  0.00    -0.296 N 
ATOM      4  C   UNL     1      -2.547  -0.426  -2.681  0.00  0.00    +0.121 C 
ATOM      5  C   UNL     1      -3.361   0.741  -3.283  0.00  0.00    +0.100 C 
ATOM      6  C   UNL     1      -2.598   1.133  -4.560  0.00  0.00    -0.004 C 
ATOM      7  C   UNL     1      -1.391   0.185  -4.624  0.00  0.00    +0.115 C 
ATOM      8  C   UNL     1      -3.487   0.942  -5.785  0.00  0.00    -0.010 C 
ATOM      9  C   UNL     1      -2.727   1.393  -7.036  0.00  0.00    -0.082 C 
ATOM     10  N   UNL     1      -2.346   2.804  -6.898  0.00  0.00    +0.379 N 
ATOM     11  C   UNL     1      -1.418   2.964  -5.772  0.00  0.00    -0.082 C 
ATOM     12  C   UNL     1      -2.122   2.579  -4.468  0.00  0.00    -0.010 C 
ATOM     13  H   UNL     1      -1.900   3.115  -7.747  0.00  0.00    -0.086 HD
ATOM     14  H   UNL     1      -3.172   3.359  -6.732  0.00  0.00    -0.086 HD
ENDROOT
BRANCH   1  17
ATOM     15  C   UNL     1      -0.022   1.499   0.015  0.00  0.00    +0.070 C 
ATOM     16  C   UNL     1      -0.004  -0.008   0.007  0.00  0.00    +0.093 A 
ATOM     17  C   UNL     1       0.004  -0.871  -1.176  0.00  0.00    +0.101 A 
ATOM     18  C   UNL     1       0.022  -2.160  -0.724  0.00  0.00    +0.147 A 
ATOM     19  O   UNL     1       0.026  -2.130   0.611  0.00  0.00    -0.359 OA
ATOM     20  N   UNL     1       0.015  -0.786   1.049  0.00  0.00    -0.083 NA
ATOM     21  C   UNL     1       0.035  -3.398  -1.582  0.00  0.00    +0.090 C 
ENDBRANCH   1  17
BRANCH   5  22
ATOM     22  C   UNL     1      -3.407   1.900  -2.320  0.00  0.00    +0.218 C 
ATOM     23  O   UNL     1      -2.530   2.036  -1.493  0.00  0.00    -0.275 OA
ATOM     24  N   UNL     1      -4.422   2.784  -2.378  0.00  0.00    -0.315 N 
ATOM     25  H   UNL     1      -5.123   2.675  -3.040  0.00  0.00    +0.149 HD
BRANCH  24  26
ATOM     26  C   UNL     1      -4.467   3.910  -1.443  0.00  0.00    +0.109 C 
BRANCH  26  27
ATOM     27  C   UNL     1      -5.713   4.755  -1.721  0.00  0.00    +0.056 C 
BRANCH  27  28
ATOM     28  C   UNL     1      -5.759   5.913  -0.758  0.00  0.00    -0.018 A 
ATOM     29  C   UNL     1      -5.171   7.239  -0.962  0.00  0.00    +0.003 A 
ATOM     30  C   UNL     1      -4.445   7.830  -1.998  0.00  0.00    +0.010 A 
ATOM     31  C   UNL     1      -4.027   9.126  -1.880  0.00  0.00    +0.001 A 
ATOM     32  C   UNL     1      -4.317   9.859  -0.738  0.00  0.00    +0.002 A 
ATOM     33  C   UNL     1      -5.032   9.296   0.297  0.00  0.00    +0.026 A 
ATOM     34  C   UNL     1      -5.468   7.979   0.198  0.00  0.00    +0.047 A 
ATOM     35  N   UNL     1      -6.183   7.152   1.034  0.00  0.00    -0.358 N 
ATOM     36  C   UNL     1      -6.352   5.928   0.446  0.00  0.00    +0.017 A 
ATOM     37  H   UNL     1      -6.521   7.401   1.909  0.00  0.00    +0.166 HD
ATOM     38  C   UNL     1      -7.090   4.767   1.061  0.00  0.00    +0.063 C 
ENDBRANCH  27  28
ENDBRANCH  26  27
ENDBRANCH  24  26
ENDBRANCH   5  22
TORSDOF 5
