REMARK  Name = ZINC05608116
REMARK  9 active torsions:
REMARK  status: ('A' for Active; 'I' for Inactive)
REMARK    1  A    between atoms: C_1  and  C_2
REMARK    2  A    between atoms: C_5  and  C_9
REMARK    3  A    between atoms: C_7  and  C_8
REMARK    4  A    between atoms: C_10  and  C_32
REMARK    5  A    between atoms: N_16  and  C_19
REMARK    6  A    between atoms: C_19  and  C_20
REMARK    7  A    between atoms: C_20  and  O_22
REMARK    8  A    between atoms: O_22  and  C_23
REMARK    9  A    between atoms: C_28  and  C_31
REMARK                            x       y       z     vdW  Elec       q    Type
REMARK                         _______ _______ _______ _____ _____    ______ ____
ROOT
ATOM      1  C   UNL     1      -3.128  -4.612   6.527  0.00  0.00    +0.007 A 
ATOM      2  C   UNL     1      -4.200  -5.423   6.693  0.00  0.00    -0.003 A 
ATOM      3  S   UNL     1      -5.461  -4.649   5.700  0.00  0.00    -0.073 S 
ATOM      4  C   UNL     1      -4.529  -3.268   5.090  0.00  0.00    +0.116 A 
ATOM      5  C   UNL     1      -3.262  -3.439   5.672  0.00  0.00    +0.080 A 
ATOM      6  C   UNL     1      -2.289  -2.443   5.341  0.00  0.00    +0.263 A 
ATOM      7  O   UNL     1      -1.160  -2.506   5.797  0.00  0.00    -0.267 OA
ATOM      8  N   UNL     1      -2.639  -1.436   4.520  0.00  0.00    -0.288 N 
ATOM      9  C   UNL     1      -3.893  -1.347   4.008  0.00  0.00    +0.203 A 
ATOM     10  N   UNL     1      -4.801  -2.244   4.286  0.00  0.00    -0.230 NA
ATOM     11  C   UNL     1      -4.303  -6.679   7.520  0.00  0.00    +0.052 C 
ENDROOT
BRANCH   1  16
ATOM     12  C   UNL     1       1.862  -5.774   9.154  0.00  0.00    +0.044 C 
ATOM     13  C   UNL     1       0.556  -5.470   8.467  0.00  0.00    -0.048 A 
ATOM     14  C   UNL     1      -0.149  -4.327   8.801  0.00  0.00    +0.004 A 
ATOM     15  C   UNL     1      -1.345  -4.043   8.175  0.00  0.00    +0.009 A 
ATOM     16  C   UNL     1      -1.843  -4.911   7.203  0.00  0.00    -0.016 A 
ATOM     17  C   UNL     1      -1.131  -6.063   6.875  0.00  0.00    +0.012 A 
ATOM     18  C   UNL     1       0.067  -6.334   7.504  0.00  0.00    -0.047 A 
ATOM     19  C   UNL     1       0.841  -7.577   7.146  0.00  0.00    +0.044 C 
ENDBRANCH   1  16
BRANCH   8  20
ATOM     20  C   UNL     1      -1.649  -0.412   4.177  0.00  0.00    +0.246 C 
BRANCH  20  21
ATOM     21  C   UNL     1      -0.900  -0.832   2.939  0.00  0.00    +0.327 C 
ATOM     22  O   UNL     1      -1.166  -1.879   2.398  0.00  0.00    -0.249 OA
BRANCH  21  23
ATOM     23  O   UNL     1       0.062  -0.043   2.436  0.00  0.00    -0.460 OA
BRANCH  23  24
ATOM     24  C   UNL     1       0.742  -0.511   1.242  0.00  0.00    +0.177 C 
ATOM     25  C   UNL     1       0.002  -0.004   0.002  0.00  0.00    +0.044 C 
ATOM     26  C   UNL     1      -0.019   1.526   0.010  0.00  0.00    +0.004 C 
ATOM     27  C   UNL     1       1.417   2.055  -0.000  0.00  0.00    +0.003 C 
ATOM     28  C   UNL     1       2.157   1.548   1.239  0.00  0.00    -0.011 C 
ATOM     29  C   UNL     1       2.178   0.019   1.231  0.00  0.00    +0.048 C 
ATOM     30  C   UNL     1       3.592   2.078   1.228  0.00  0.00    +0.007 C 
ENDBRANCH  23  24
ENDBRANCH  21  23
ENDBRANCH  20  21
ENDBRANCH   8  20
TORSDOF 5
