REMARK  Name = ZINC12134787
REMARK  13 active torsions:
REMARK  status: ('A' for Active; 'I' for Inactive)
REMARK    1  A    between atoms: C_1  and  C_2
REMARK    2  A    between atoms: C_2  and  C_3
REMARK    3  A    between atoms: C_3  and  C_4
REMARK    4  A    between atoms: C_3  and  C_6
REMARK    5  A    between atoms: C_4  and  C_5
REMARK    6  A    between atoms: C_6  and  N_61
REMARK    7  A    between atoms: C_12  and  S_18
REMARK    8  A    between atoms: C_13  and  C_14
REMARK    9  A    between atoms: C_14  and  O_16
REMARK   10  A    between atoms: O_16  and  C_17
REMARK   11  A    between atoms: S_18  and  N_21
REMARK   12  A    between atoms: N_21  and  C_22
REMARK   13  A    between atoms: C_22  and  C_23
REMARK                            x       y       z     vdW  Elec       q    Type
REMARK                         _______ _______ _______ _____ _____    ______ ____
ROOT
ATOM      1  C   UNL     1      -2.713  -2.690   0.053  0.00  0.00    -0.074 C 
ATOM      2  C   UNL     1      -2.608  -4.172  -0.318  0.00  0.00    +0.018 C 
ATOM      3  C   UNL     1      -1.649  -4.839   0.661  0.00  0.00    -0.025 A 
ATOM      4  C   UNL     1      -0.803  -4.085   1.403  0.00  0.00    -0.021 A 
ATOM      5  S   UNL     1       0.096  -5.254   2.379  0.00  0.00    -0.074 S 
ATOM      6  C   UNL     1      -0.640  -6.716   1.808  0.00  0.00    +0.157 A 
ATOM      7  C   UNL     1      -1.558  -6.268   0.882  0.00  0.00    +0.096 A 
ATOM      8  C   UNL     1      -0.685  -2.594   1.375  0.00  0.00    -0.035 C 
ATOM      9  N   UNL     1      -1.358  -2.109   0.145  0.00  0.00    +0.383 N 
ATOM     10  H   UNL     1      -0.812  -2.404  -0.673  0.00  0.00    -0.081 HD
ENDROOT
BRANCH   6  11
ATOM     11  S   UNL     1      -0.296  -8.375   2.294  0.00  0.00    +0.066 S 
ATOM     12  O   UNL     1       0.267  -8.309   3.597  0.00  0.00    -0.153 OA
ATOM     13  O   UNL     1      -1.464  -9.132   2.007  0.00  0.00    -0.153 OA
BRANCH  11  14
ATOM     14  N   UNL     1       0.893  -8.942   1.292  0.00  0.00    -0.187 NA
ATOM     15  H   UNL     1       0.706  -9.672   0.681  0.00  0.00    +0.148 HD
BRANCH  14  16
ATOM     16  C   UNL     1       2.229  -8.341   1.327  0.00  0.00    +0.137 C 
BRANCH  16  17
ATOM     17  C   UNL     1       3.220  -9.258   0.608  0.00  0.00    +0.134 C 
ATOM     18  C   UNL     1       4.657  -8.707   0.741  0.00  0.00    +0.035 C 
ATOM     19  C   UNL     1       5.307  -9.018  -0.626  0.00  0.00    +0.031 C 
ATOM     20  C   UNL     1       4.185  -9.721  -1.423  0.00  0.00    +0.160 C 
ATOM     21  O   UNL     1       2.958  -9.267  -0.812  0.00  0.00    -0.375 OA
ENDBRANCH  16  17
ENDBRANCH  14  16
ENDBRANCH  11  14
ENDBRANCH   6  11
BRANCH   7  22
ATOM     22  C   UNL     1      -2.415  -7.208   0.145  0.00  0.00    +0.342 C 
ATOM     23  O   UNL     1      -2.041  -7.667  -0.917  0.00  0.00    -0.245 OA
BRANCH  22  24
ATOM     24  O   UNL     1      -3.616  -7.560   0.645  0.00  0.00    -0.464 OA
ATOM     25  C   UNL     1      -4.409  -8.492  -0.137  0.00  0.00    +0.280 C 
ENDBRANCH  22  24
ENDBRANCH   7  22
BRANCH   9  26
ATOM     26  C   UNL     1      -1.439  -0.633   0.162  0.00  0.00    -0.075 C 
BRANCH  26  27
ATOM     27  C   UNL     1      -0.027  -0.058   0.038  0.00  0.00    -0.028 C 
BRANCH  27  29
ATOM     28  C   UNL     1       1.337   2.033   0.151  0.00  0.00    +0.004 C 
ATOM     29  C   UNL     1      -0.084   1.466   0.158  0.00  0.00    -0.002 C 
ENDBRANCH  27  29
BRANCH  27  30
ATOM     30  C   UNL     1       0.562  -0.440  -1.321  0.00  0.00    -0.002 C 
ATOM     31  C   UNL     1      -0.314   0.134  -2.437  0.00  0.00    +0.004 C 
ENDBRANCH  27  30
ENDBRANCH  26  27
ENDBRANCH   9  26
TORSDOF 10
