REMARK  Name = ZINC05126591
REMARK  6 active torsions:
REMARK  status: ('A' for Active; 'I' for Inactive)
REMARK    1  A    between atoms: C_1  and  C_2
REMARK    2  A    between atoms: C_4  and  C_8
REMARK    3  A    between atoms: C_5  and  C_7
REMARK    4  A    between atoms: C_15  and  N_27
REMARK    5  A    between atoms: C_16  and  C_25
REMARK    6  A    between atoms: C_17  and  C_19
REMARK                            x       y       z     vdW  Elec       q    Type
REMARK                         _______ _______ _______ _____ _____    ______ ____
ROOT
ATOM      1  C   UNL     1      -2.138  -3.453  -0.154  0.00  0.00    +0.101 A 
ATOM      2  C   UNL     1      -3.440  -2.987   0.043  0.00  0.00    +0.054 A 
ATOM      3  C   UNL     1      -4.278  -4.064   0.051  0.00  0.00    +0.223 A 
ATOM      4  N   UNL     1      -3.527  -5.169  -0.135  0.00  0.00    -0.246 N 
ATOM      5  H   UNL     1      -3.855  -6.081  -0.176  0.00  0.00    +0.192 HD
ATOM      6  N   UNL     1      -2.189  -4.767  -0.267  0.00  0.00    -0.171 NA
ATOM      7  O   UNL     1      -5.619  -3.948   0.226  0.00  0.00    -0.423 OA
ATOM      8  C   UNL     1      -6.091  -2.765   0.667  0.00  0.00    +0.200 C 
ATOM      9  C   UNL     1      -5.362  -1.627   0.694  0.00  0.00    +0.098 C 
ATOM     10  C   UNL     1      -3.930  -1.573   0.222  0.00  0.00    +0.103 C 
ENDROOT
BRANCH   1  14
ATOM     11  C   UNL     1       0.951   0.216   1.517  0.00  0.00    +0.051 C 
ATOM     12  C   UNL     1       0.464  -0.894   0.621  0.00  0.00    -0.012 A 
ATOM     13  C   UNL     1      -0.663  -1.635   0.723  0.00  0.00    +0.021 A 
ATOM     14  C   UNL     1      -0.913  -2.618  -0.229  0.00  0.00    +0.013 A 
ATOM     15  C   UNL     1      -0.005  -2.798  -1.234  0.00  0.00    -0.004 A 
ATOM     16  S   UNL     1       1.224  -1.562  -0.849  0.00  0.00    -0.098 S 
ATOM     17  C   UNL     1      -0.037  -3.780  -2.377  0.00  0.00    +0.052 C 
ENDBRANCH   1  14
BRANCH  10  18
ATOM     18  C   UNL     1      -3.855  -0.838  -1.091  0.00  0.00    -0.016 A 
ATOM     19  C   UNL     1      -3.122   0.334  -1.199  0.00  0.00    +0.007 A 
ATOM     20  C   UNL     1      -3.081   0.976  -2.427  0.00  0.00    +0.020 A 
ATOM     21  C   UNL     1      -3.767   0.430  -3.496  0.00  0.00    +0.111 A 
ATOM     22  N   UNL     1      -4.455  -0.687  -3.357  0.00  0.00    -0.263 NA
ATOM     23  C   UNL     1      -4.511  -1.327  -2.205  0.00  0.00    +0.115 A 
ENDBRANCH  10  18
BRANCH   8  24
ATOM     24  N   UNL     1      -7.388  -2.712   1.114  0.00  0.00    -0.328 N 
ATOM     25  H   UNL     1      -7.936  -3.513   1.106  0.00  0.00    +0.145 HD
ATOM     26  H   UNL     1      -7.756  -1.875   1.437  0.00  0.00    +0.145 HD
ENDBRANCH   8  24
BRANCH   9  27
ATOM     27  C   UNL     1      -5.971  -0.429   1.188  0.00  0.00    +0.101 C 
ATOM     28  N   UNL     1      -6.455   0.522   1.580  0.00  0.00    -0.191 NA
ENDBRANCH   9  27
TORSDOF 4
