REMARK  Name = ZINC63350804
REMARK  10 active torsions:
REMARK  status: ('A' for Active; 'I' for Inactive)
REMARK    1  A    between atoms: C_1  and  C_2
REMARK    2  A    between atoms: C_2  and  C_3
REMARK    3  A    between atoms: C_3  and  C_4
REMARK    4  A    between atoms: C_4  and  C_5
REMARK    5  A    between atoms: C_14  and  O_16
REMARK    6  A    between atoms: O_16  and  C_17
REMARK    7  A    between atoms: C_17  and  C_18
REMARK    8  A    between atoms: C_33  and  C_35
REMARK    9  A    between atoms: C_35  and  O_37
REMARK   10  A    between atoms: O_37  and  C_38
REMARK                            x       y       z     vdW  Elec       q    Type
REMARK                         _______ _______ _______ _____ _____    ______ ____
ROOT
ATOM      1  C   UNL     1      -7.599  -3.842   6.064  0.00  0.00    +0.254 C 
ATOM      2  O   UNL     1      -6.949  -3.520   7.036  0.00  0.00    -0.272 OA
ATOM      3  N   UNL     1      -8.859  -4.296   6.216  0.00  0.00    -0.283 N 
ATOM      4  C   UNL     1      -9.639  -4.691   5.033  0.00  0.00    +0.137 C 
ATOM      5  C   UNL     1     -10.895  -3.814   4.984  0.00  0.00    +0.124 C 
ATOM      6  C   UNL     1     -11.512  -3.860   6.376  0.00  0.00    -0.035 C 
ATOM      7  C   UNL     1     -12.763  -4.279   6.218  0.00  0.00    -0.001 A 
ATOM      8  C   UNL     1     -13.865  -4.456   7.177  0.00  0.00    +0.010 A 
ATOM      9  C   UNL     1     -15.035  -4.922   6.666  0.00  0.00    +0.001 A 
ATOM     10  C   UNL     1     -15.216  -5.227   5.313  0.00  0.00    +0.002 A 
ATOM     11  C   UNL     1     -14.259  -5.090   4.361  0.00  0.00    +0.026 A 
ATOM     12  C   UNL     1     -12.986  -4.602   4.776  0.00  0.00    +0.043 A 
ATOM     13  N   UNL     1     -11.900  -4.353   4.066  0.00  0.00    -0.376 N 
ATOM     14  C   UNL     1     -10.723  -3.546   7.623  0.00  0.00    +0.067 C 
ATOM     15  C   UNL     1      -9.437  -4.397   7.561  0.00  0.00    +0.189 C 
ATOM     16  H   UNL     1     -11.778  -4.500   3.115  0.00  0.00    +0.160 HD
ENDROOT
BRANCH  15  17
ATOM     17  C   UNL     1      -9.767  -5.837   7.859  0.00  0.00    +0.328 C 
ATOM     18  O   UNL     1      -9.892  -6.628   6.954  0.00  0.00    -0.249 OA
BRANCH  17  19
ATOM     19  O   UNL     1      -9.922  -6.241   9.129  0.00  0.00    -0.467 OA
ATOM     20  C   UNL     1     -10.234  -7.619   9.339  0.00  0.00    +0.280 C 
ENDBRANCH  17  19
ENDBRANCH  15  17
BRANCH   1  21
ATOM     21  C   UNL     1      -6.998  -3.735   4.686  0.00  0.00    +0.324 C 
BRANCH  21  22
ATOM     22  O   UNL     1      -5.664  -3.233   4.786  0.00  0.00    -0.481 OA
BRANCH  22  32
ATOM     23  C   UNL     1      -2.826  -2.585   0.015  0.00  0.00    -0.030 A 
ATOM     24  C   UNL     1      -3.455  -2.921  -1.141  0.00  0.00    +0.096 A 
ATOM     25  C   UNL     1      -4.778  -3.407  -1.105  0.00  0.00    +0.337 A 
ATOM     26  O   UNL     1      -5.330  -3.705  -2.149  0.00  0.00    -0.245 OA
ATOM     27  O   UNL     1      -5.445  -3.551   0.051  0.00  0.00    -0.422 OA
ATOM     28  C   UNL     1      -4.878  -3.236   1.235  0.00  0.00    +0.143 A 
ATOM     29  C   UNL     1      -3.558  -2.749   1.273  0.00  0.00    +0.022 A 
ATOM     30  C   UNL     1      -2.965  -2.426   2.499  0.00  0.00    +0.035 A 
ATOM     31  C   UNL     1      -3.670  -2.589   3.657  0.00  0.00    +0.083 A 
ATOM     32  C   UNL     1      -4.976  -3.075   3.626  0.00  0.00    +0.143 A 
ATOM     33  C   UNL     1      -5.581  -3.390   2.420  0.00  0.00    +0.094 A 
ATOM     34 CL   UNL     1      -2.935  -2.188   5.178  0.00  0.00    -0.080 Cl
BRANCH  23  35
ATOM     35  C   UNL     1      -1.413  -2.063   0.004  0.00  0.00    +0.036 C 
BRANCH  35  36
ATOM     36  C   UNL     1      -1.433  -0.534   0.013  0.00  0.00    +0.004 C 
BRANCH  36  38
ATOM     37  C   UNL     1      -0.019   1.526   0.010  0.00  0.00    +0.004 C 
ATOM     38  C   UNL     1       0.002  -0.004   0.002  0.00  0.00    -0.003 C 
ENDBRANCH  36  38
ENDBRANCH  35  36
ENDBRANCH  23  35
ENDBRANCH  22  32
ENDBRANCH  21  22
ENDBRANCH   1  21
TORSDOF 8
