REMARK  Name = ZINC43284626
REMARK  8 active torsions:
REMARK  status: ('A' for Active; 'I' for Inactive)
REMARK    1  A    between atoms: C_1  and  C_2
REMARK    2  A    between atoms: C_2  and  C_3
REMARK    3  A    between atoms: C_3  and  C_5
REMARK    4  A    between atoms: C_3  and  N_21
REMARK    5  A    between atoms: C_5  and  C_7
REMARK    6  A    between atoms: C_5  and  N_13
REMARK    7  A    between atoms: N_13  and  C_14
REMARK    8  A    between atoms: N_13  and  C_15
REMARK                            x       y       z     vdW  Elec       q    Type
REMARK                         _______ _______ _______ _____ _____    ______ ____
ROOT
ATOM      1  C   UNL     1       0.668  -1.908  -1.285  0.00  0.00    +0.079 C 
ENDROOT
BRANCH   1   2
ATOM      2  C   UNL     1       1.547  -2.418  -0.173  0.00  0.00    +0.006 A 
ATOM      3  C   UNL     1       2.888  -2.620  -0.169  0.00  0.00    +0.028 A 
ATOM      4  C   UNL     1       3.490  -3.101   0.979  0.00  0.00    +0.025 A 
ATOM      5  C   UNL     1       2.721  -3.357   2.066  0.00  0.00    +0.060 A 
ATOM      6  S   UNL     1       1.095  -2.908   1.483  0.00  0.00    -0.099 S 
ATOM      7 BR   UNL     1       5.357  -3.398   1.032  0.00  0.00    -0.050 Br
ENDBRANCH   1   2
BRANCH   1   8
ATOM      8  N   UNL     1      -0.484  -2.805  -1.449  0.00  0.00    -0.297 NA
ATOM      9  C   UNL     1      -0.133  -4.185  -1.089  0.00  0.00    +0.105 C 
BRANCH   8  10
ATOM     10  C   UNL     1      -1.014  -2.736  -2.818  0.00  0.00    +0.057 C 
ATOM     11  C   UNL     1      -1.183  -1.271  -3.227  0.00  0.00    +0.019 C 
ATOM     12  C   UNL     1      -1.735  -1.200  -4.652  0.00  0.00    +0.002 C 
ATOM     13  C   UNL     1      -3.091  -1.905  -4.709  0.00  0.00    +0.000 C 
ATOM     14  C   UNL     1      -2.923  -3.370  -4.300  0.00  0.00    +0.002 C 
ATOM     15  C   UNL     1      -2.371  -3.441  -2.875  0.00  0.00    +0.019 C 
ENDBRANCH   8  10
ENDBRANCH   1   8
BRANCH   1  16
ATOM     16  C   UNL     1       0.174  -0.501  -0.941  0.00  0.00    -0.053 C 
BRANCH  16  17
ATOM     17  N   UNL     1       1.325   0.361  -0.640  0.00  0.00    +0.381 N 
ATOM     18  H   UNL     1       1.932   0.405  -1.444  0.00  0.00    -0.090 HD
ATOM     19  H   UNL     1       1.000   1.289  -0.412  0.00  0.00    -0.090 HD
ATOM     20  H   UNL     1       1.834  -0.019   0.145  0.00  0.00    -0.090 HD
ENDBRANCH  16  17
BRANCH  16  22
ATOM     21  C   UNL     1      -1.357   0.811   0.534  0.00  0.00    +0.002 C 
ATOM     22  C   UNL     1      -0.746  -0.569   0.280  0.00  0.00    -0.018 C 
ENDBRANCH  16  22
ENDBRANCH   1  16
TORSDOF 6
