REMARK  Name = ZINC41583888
REMARK  7 active torsions:
REMARK  status: ('A' for Active; 'I' for Inactive)
REMARK    1  A    between atoms: C_1  and  C_2
REMARK    2  A    between atoms: C_5  and  C_34
REMARK    3  A    between atoms: N_8  and  C_10
REMARK    4  A    between atoms: C_10  and  C_11
REMARK    5  A    between atoms: C_12  and  O_33
REMARK    6  A    between atoms: C_20  and  C_22
REMARK    7  A    between atoms: C_24  and  C_27
REMARK                            x       y       z     vdW  Elec       q    Type
REMARK                         _______ _______ _______ _____ _____    ______ ____
ROOT
ATOM      1  C   UNL     1       2.971  -2.034   2.241  0.00  0.00    +0.020 A 
ATOM      2  C   UNL     1       3.874  -2.852   1.580  0.00  0.00    +0.122 A 
ATOM      3  C   UNL     1       5.204  -2.462   1.433  0.00  0.00    +0.046 A 
ATOM      4  C   UNL     1       5.639  -1.277   1.949  0.00  0.00    +0.015 A 
ATOM      5  C   UNL     1       4.746  -0.447   2.643  0.00  0.00    +0.019 A 
ATOM      6  C   UNL     1       3.393  -0.821   2.760  0.00  0.00    +0.144 A 
ATOM      7  O   UNL     1       2.509   0.010   3.364  0.00  0.00    -0.421 OA
ATOM      8  C   UNL     1       3.003   0.859   4.294  0.00  0.00    +0.347 A 
ATOM      9  O   UNL     1       2.382   1.110   5.310  0.00  0.00    -0.244 OA
ATOM     10  C   UNL     1       4.320   1.467   4.035  0.00  0.00    +0.092 A 
ATOM     11  C   UNL     1       5.192   0.772   3.214  0.00  0.00    +0.029 A 
ENDROOT
BRANCH  10  12
ATOM     12  C   UNL     1       4.699   2.760   4.637  0.00  0.00    +0.116 A 
ATOM     13  N   UNL     1       4.003   3.543   5.448  0.00  0.00    -0.239 NA
ATOM     14  C   UNL     1       4.502   4.680   5.897  0.00  0.00    +0.079 A 
ATOM     15  C   UNL     1       5.763   5.058   5.517  0.00  0.00    +0.075 A 
ATOM     16  S   UNL     1       6.221   3.682   4.471  0.00  0.00    -0.075 S 
BRANCH  14  17
ATOM     17  C   UNL     1       3.704   5.540   6.804  0.00  0.00    +0.001 A 
ATOM     18  C   UNL     1       4.231   6.743   7.271  0.00  0.00    +0.010 A 
ATOM     19  C   UNL     1       3.484   7.540   8.115  0.00  0.00    +0.001 A 
ATOM     20  C   UNL     1       2.214   7.147   8.497  0.00  0.00    +0.000 A 
ATOM     21  C   UNL     1       1.685   5.954   8.037  0.00  0.00    +0.001 A 
ATOM     22  C   UNL     1       2.421   5.152   7.188  0.00  0.00    +0.010 A 
ENDBRANCH  14  17
ENDBRANCH  10  12
BRANCH   2  23
ATOM     23  O   UNL     1       3.460  -4.041   1.073  0.00  0.00    -0.506 OA
ATOM     24  H   UNL     1       3.139  -3.990   0.162  0.00  0.00    +0.292 HD
ENDBRANCH   2  23
BRANCH   1  25
ATOM     25  C   UNL     1       1.534  -2.461   2.390  0.00  0.00    -0.036 C 
BRANCH  25  31
ATOM     26  C   UNL     1      -0.019   1.526   0.010  0.00  0.00    +0.005 C 
ATOM     27  C   UNL     1       0.002  -0.004   0.002  0.00  0.00    -0.031 C 
ATOM     28  C   UNL     1      -1.434  -0.535   0.015  0.00  0.00    +0.003 C 
ATOM     29  C   UNL     1      -1.402  -2.064   0.086  0.00  0.00    -0.031 C 
ATOM     30  C   UNL     1      -0.613  -2.496   1.324  0.00  0.00    -0.075 C 
ATOM     31  N   UNL     1       0.758  -1.980   1.239  0.00  0.00    +0.383 N 
ATOM     32  C   UNL     1       0.740  -0.512   1.242  0.00  0.00    -0.075 C 
ATOM     33  C   UNL     1      -2.832  -2.602   0.177  0.00  0.00    +0.005 C 
ATOM     34  H   UNL     1       1.188  -2.307   0.386  0.00  0.00    -0.081 HD
ENDBRANCH  25  31
ENDBRANCH   1  25
TORSDOF 5
