REMARK  Name = ZINC62088954
REMARK  2 active torsions:
REMARK  status: ('A' for Active; 'I' for Inactive)
REMARK    1  A    between atoms: C_6  and  C_10
REMARK    2  A    between atoms: N_12  and  C_13
REMARK                            x       y       z     vdW  Elec       q    Type
REMARK                         _______ _______ _______ _____ _____    ______ ____
ROOT
ATOM      1  C   UNL     1       0.284  -2.944   1.340  0.00  0.00    +0.265 C 
ATOM      2  O   UNL     1      -0.581  -2.893   0.487  0.00  0.00    -0.268 OA
ATOM      3  N   UNL     1       0.522  -4.101   1.990  0.00  0.00    -0.306 N 
ATOM      4  H   UNL     1       1.213  -4.141   2.670  0.00  0.00    +0.149 HD
ENDROOT
BRANCH   1  10
ATOM      5  C   UNL     1      -0.019   1.530   0.011  0.00  0.00    +0.005 C 
ATOM      6  C   UNL     1       1.417   2.062  -0.000  0.00  0.00    +0.006 C 
ATOM      7  C   UNL     1       2.085   1.771   1.350  0.00  0.00    +0.055 C 
ATOM      8  C   UNL     1       1.872   0.316   1.680  0.00  0.00    +0.040 A 
ATOM      9  C   UNL     1       0.946  -0.469   1.076  0.00  0.00    +0.005 A 
ATOM     10  C   UNL     1       1.075  -1.739   1.663  0.00  0.00    +0.150 A 
ATOM     11  N   UNL     1       2.041  -1.646   2.560  0.00  0.00    -0.169 NA
ATOM     12  N   UNL     1       2.514  -0.448   2.580  0.00  0.00    -0.281 N 
ATOM     13  H   UNL     1       3.230  -0.141   3.159  0.00  0.00    +0.189 HD
ATOM     14  C   UNL     1       0.002  -0.004   0.002  0.00  0.00    +0.039 C 
ENDBRANCH   1  10
BRANCH   3  15
ATOM     15  C   UNL     1      -0.262  -5.296   1.670  0.00  0.00    +0.096 C 
ATOM     16  C   UNL     1       0.377  -6.020   0.473  0.00  0.00    +0.046 C 
ATOM     17  C   UNL     1      -0.275  -7.427   0.354  0.00  0.00    +0.168 C 
ATOM     18  S   UNL     1      -0.374  -7.904   2.131  0.00  0.00    -0.029 S 
ATOM     19  O   UNL     1       0.796  -8.631   2.481  0.00  0.00    -0.174 OA
ATOM     20  O   UNL     1      -1.652  -8.470   2.388  0.00  0.00    -0.174 OA
ATOM     21  C   UNL     1      -0.292  -6.236   2.899  0.00  0.00    +0.188 C 
ENDBRANCH   3  15
TORSDOF 2
