REMARK  Name = ZINC09320651
REMARK  10 active torsions:
REMARK  status: ('A' for Active; 'I' for Inactive)
REMARK    1  A    between atoms: C_1  and  C_2
REMARK    2  A    between atoms: C_6  and  N_9
REMARK    3  A    between atoms: C_7  and  C_8
REMARK    4  A    between atoms: C_10  and  C_12
REMARK    5  A    between atoms: C_12  and  S_13
REMARK    6  A    between atoms: S_13  and  C_14
REMARK    7  A    between atoms: C_15  and  C_33
REMARK    8  A    between atoms: C_16  and  C_28
REMARK    9  A    between atoms: C_21  and  C_25
REMARK   10  A    between atoms: C_21  and  C_26
REMARK                            x       y       z     vdW  Elec       q    Type
REMARK                         _______ _______ _______ _____ _____    ______ ____
ROOT
ATOM      1  C   UNL     1      -1.107  -1.986   0.611  0.00  0.00    +0.111 C 
ATOM      2  C   UNL     1      -0.163  -2.836   0.060  0.00  0.00    +0.070 C 
ATOM      3  C   UNL     1       1.022  -2.199  -0.641  0.00  0.00    +0.084 C 
ATOM      4  C   UNL     1       1.042  -0.682  -0.660  0.00  0.00    +0.113 C 
ATOM      5  C   UNL     1       2.055  -0.031  -1.256  0.00  0.00    +0.143 C 
ATOM      6  C   UNL     1       2.105   1.473  -1.292  0.00  0.00    +0.081 C 
ATOM      7  C   UNL     1       1.393   2.033  -0.058  0.00  0.00    -0.023 C 
ATOM      8  C   UNL     1      -0.045   1.508  -0.035  0.00  0.00    +0.058 C 
ATOM      9  C   UNL     1      -0.022  -0.003  -0.039  0.00  0.00    +0.032 C 
ATOM     10  N   UNL     1      -0.998  -0.658   0.539  0.00  0.00    -0.248 NA
ATOM     11  C   UNL     1       1.379   3.562  -0.123  0.00  0.00    +0.011 C 
ATOM     12  C   UNL     1       2.125   1.578   1.206  0.00  0.00    +0.011 C 
ATOM     13  O   UNL     1       3.046  -0.739  -1.833  0.00  0.00    -0.297 OA
ENDROOT
BRANCH   3  14
ATOM     14  C   UNL     1       2.282  -2.678   0.033  0.00  0.00    -0.001 A 
ATOM     15  C   UNL     1       3.323  -3.367  -0.494  0.00  0.00    +0.012 A 
ATOM     16  C   UNL     1       4.386  -3.704   0.323  0.00  0.00    +0.008 A 
ATOM     17  C   UNL     1       4.356  -3.334   1.627  0.00  0.00    +0.045 A 
ATOM     18  S   UNL     1       2.794  -2.477   1.732  0.00  0.00    -0.101 S 
ENDBRANCH   3  14
BRANCH   2  19
ATOM     19  C   UNL     1      -0.300  -4.259   0.148  0.00  0.00    +0.098 C 
ATOM     20  N   UNL     1      -0.409  -5.388   0.219  0.00  0.00    -0.191 NA
ENDBRANCH   2  19
BRANCH   1  21
ATOM     21  S   UNL     1      -2.500  -2.681   1.436  0.00  0.00    -0.096 S 
BRANCH  21  22
ATOM     22  C   UNL     1      -3.358  -1.168   1.933  0.00  0.00    +0.172 C 
BRANCH  22  24
ATOM     23  N   UNL     1      -5.424  -0.553   3.148  0.00  0.00    -0.285 N 
ATOM     24  C   UNL     1      -4.618  -1.527   2.678  0.00  0.00    +0.227 C 
ATOM     25  O   UNL     1      -4.907  -2.691   2.855  0.00  0.00    -0.275 OA
ATOM     26  H   UNL     1      -5.154   0.376   3.078  0.00  0.00    +0.155 HD
BRANCH  23  32
ATOM     27  C   UNL     1      -9.087   0.591   6.221  0.00  0.00    +0.044 C 
ATOM     28  C   UNL     1      -8.448  -0.347   5.229  0.00  0.00    -0.046 A 
ATOM     29  C   UNL     1      -9.073  -1.536   4.901  0.00  0.00    +0.004 A 
ATOM     30  C   UNL     1      -8.490  -2.399   3.992  0.00  0.00    +0.002 A 
ATOM     31  C   UNL     1      -7.283  -2.074   3.405  0.00  0.00    +0.023 A 
ATOM     32  C   UNL     1      -6.649  -0.883   3.737  0.00  0.00    +0.037 A 
ATOM     33  C   UNL     1      -7.238  -0.018   4.650  0.00  0.00    -0.026 A 
ATOM     34  C   UNL     1      -6.558   1.278   5.008  0.00  0.00    +0.046 C 
ENDBRANCH  23  32
ENDBRANCH  22  24
ENDBRANCH  21  22
ENDBRANCH   1  21
TORSDOF 6
