REMARK  Name = ZINC33688585
REMARK  3 active torsions:
REMARK  status: ('A' for Active; 'I' for Inactive)
REMARK    1  A    between atoms: C_1  and  C_2
REMARK    2  A    between atoms: C_5  and  C_8
REMARK    3  A    between atoms: N_25  and  N_28
REMARK                            x       y       z     vdW  Elec       q    Type
REMARK                         _______ _______ _______ _____ _____    ______ ____
ROOT
ATOM      1  C   UNL     1      -0.130   5.378   0.024  0.00  0.00    +0.092 C 
ATOM      2  C   UNL     1      -0.089   3.873   0.020  0.00  0.00    +0.015 A 
ATOM      3  C   UNL     1       1.153   3.215   0.005  0.00  0.00    -0.010 A 
ATOM      4  C   UNL     1       2.358   3.938  -0.002  0.00  0.00    +0.010 A 
ATOM      5  C   UNL     1       3.544   3.271  -0.014  0.00  0.00    +0.016 A 
ATOM      6  C   UNL     1       3.584   1.877  -0.018  0.00  0.00    +0.018 A 
ATOM      7  C   UNL     1       2.436   1.143  -0.012  0.00  0.00    +0.023 A 
ATOM      8  C   UNL     1       1.193   1.798   0.000  0.00  0.00    -0.016 A 
ATOM      9  C   UNL     1      -0.013   1.076   0.008  0.00  0.00    +0.012 A 
ATOM     10  C   UNL     1      -1.196   1.742   0.017  0.00  0.00    +0.047 A 
ATOM     11  C   UNL     1      -1.242   3.144   0.030  0.00  0.00    +0.135 A 
ATOM     12  O   UNL     1      -2.452   3.756   0.048  0.00  0.00    -0.437 OA
ATOM     13  C   UNL     1      -2.573   5.040  -0.352  0.00  0.00    +0.229 A 
ATOM     14  C   UNL     1      -1.491   5.867  -0.382  0.00  0.00    +0.068 A 
ATOM     15  C   UNL     1      -1.663   7.206  -0.803  0.00  0.00    +0.132 A 
ATOM     16  N   UNL     1      -0.643   8.038  -0.845  0.00  0.00    -0.383 N 
ATOM     17  N   UNL     1      -2.931   7.617  -1.168  0.00  0.00    -0.241 N 
ATOM     18  C   UNL     1      -3.958   6.734  -1.113  0.00  0.00    +0.223 A 
ATOM     19  N   UNL     1      -3.781   5.504  -0.723  0.00  0.00    -0.201 NA
ATOM     20 BR   UNL     1       5.255   0.993  -0.034  0.00  0.00    -0.050 Br
ATOM     21  H   UNL     1      -0.794   9.076  -1.175  0.00  0.00    +0.157 HD
ATOM     22  H   UNL     1       0.359   7.694  -0.551  0.00  0.00    +0.157 HD
ENDROOT
BRANCH   1  27
ATOM     23  C   UNL     1       1.071   7.307   5.337  0.00  0.00    +0.044 C 
ATOM     24  C   UNL     1       0.758   6.804   3.951  0.00  0.00    -0.050 A 
ATOM     25  C   UNL     1       1.562   7.165   2.887  0.00  0.00    +0.003 A 
ATOM     26  C   UNL     1       1.275   6.703   1.616  0.00  0.00    +0.005 A 
ATOM     27  C   UNL     1       0.183   5.881   1.410  0.00  0.00    -0.035 A 
ATOM     28  C   UNL     1      -0.624   5.525   2.473  0.00  0.00    +0.005 A 
ATOM     29  C   UNL     1      -0.334   5.982   3.745  0.00  0.00    +0.003 A 
ENDBRANCH   1  27
BRANCH  17  30
ATOM     30  N   UNL     1      -3.147   8.902  -1.579  0.00  0.00    -0.296 N 
ATOM     31  H   UNL     1      -4.158   9.224  -1.869  0.00  0.00    +0.163 HD
ATOM     32  H   UNL     1      -2.309   9.614  -1.621  0.00  0.00    +0.163 HD
ENDBRANCH  17  30
TORSDOF 2
