REMARK  Name = ZINC04301955
REMARK  7 active torsions:
REMARK  status: ('A' for Active; 'I' for Inactive)
REMARK    1  A    between atoms: C_1  and  C_2
REMARK    2  A    between atoms: C_5  and  C_32
REMARK    3  A    between atoms: C_6  and  S_8
REMARK    4  A    between atoms: S_8  and  C_11
REMARK    5  A    between atoms: N_22  and  N_25
REMARK    6  A    between atoms: C_23  and  N_24
REMARK    7  A    between atoms: C_26  and  C_27
REMARK                            x       y       z     vdW  Elec       q    Type
REMARK                         _______ _______ _______ _____ _____    ______ ____
ROOT
ATOM      1  C   UNL     1      -1.805  -4.169   2.319  0.00  0.00    +0.162 A 
ATOM      2  C   UNL     1      -3.064  -3.669   2.730  0.00  0.00    +0.137 A 
ATOM      3  C   UNL     1      -4.049  -4.687   2.343  0.00  0.00    +0.184 A 
ATOM      4  N   UNL     1      -5.323  -4.492   2.602  0.00  0.00    -0.224 NA
ATOM      5  C   UNL     1      -5.714  -3.369   3.217  0.00  0.00    +0.092 A 
ATOM      6  C   UNL     1      -7.075  -3.153   3.499  0.00  0.00    +0.030 A 
ATOM      7  C   UNL     1      -7.464  -2.009   4.125  0.00  0.00    +0.002 A 
ATOM      8  C   UNL     1      -6.532  -1.041   4.494  0.00  0.00    +0.002 A 
ATOM      9  C   UNL     1      -5.207  -1.214   4.238  0.00  0.00    +0.030 A 
ATOM     10  C   UNL     1      -4.765  -2.385   3.593  0.00  0.00    +0.090 A 
ATOM     11  N   UNL     1      -3.465  -2.563   3.337  0.00  0.00    -0.240 NA
ATOM     12  N   UNL     1      -3.337  -5.704   1.740  0.00  0.00    -0.197 N 
ATOM     13  C   UNL     1      -2.003  -5.374   1.732  0.00  0.00    +0.148 A 
ENDROOT
BRANCH   1  14
ATOM     14  S   UNL     1      -0.253  -3.363   2.527  0.00  0.00    +0.031 S 
ATOM     15  O   UNL     1       0.701  -4.381   2.796  0.00  0.00    -0.164 OA
ATOM     16  O   UNL     1      -0.476  -2.275   3.414  0.00  0.00    -0.164 OA
BRANCH  14  22
ATOM     17  C   UNL     1       2.882  -3.039  -1.643  0.00  0.00    +0.044 C 
ATOM     18  C   UNL     1       1.653  -2.555  -0.916  0.00  0.00    -0.049 A 
ATOM     19  C   UNL     1       0.869  -1.561  -1.471  0.00  0.00    +0.004 A 
ATOM     20  C   UNL     1      -0.258  -1.117  -0.805  0.00  0.00    +0.005 A 
ATOM     21  C   UNL     1      -0.600  -1.667   0.417  0.00  0.00    -0.025 A 
ATOM     22  C   UNL     1       0.184  -2.662   0.971  0.00  0.00    +0.097 A 
ATOM     23  C   UNL     1       1.308  -3.109   0.302  0.00  0.00    +0.031 A 
ATOM     24  C   UNL     1      -1.828  -1.183   1.144  0.00  0.00    +0.046 C 
ENDBRANCH  14  22
ENDBRANCH   1  14
BRANCH  13  25
ATOM     25  N   UNL     1      -1.000  -6.164   1.199  0.00  0.00    -0.341 N 
ATOM     26  H   UNL     1      -0.091  -5.827   1.151  0.00  0.00    +0.144 HD
ATOM     27  H   UNL     1      -1.205  -7.054   0.873  0.00  0.00    +0.144 HD
ENDBRANCH  13  25
BRANCH  12  28
ATOM     28  N   UNL     1      -3.886  -6.882   1.217  0.00  0.00    -0.168 NA
ATOM     29  C   UNL     1      -4.267  -6.926  -0.026  0.00  0.00    +0.179 C 
BRANCH  29  30
ATOM     30  C   UNL     1      -4.841  -8.159  -0.573  0.00  0.00    +0.147 A 
ATOM     31  C   UNL     1      -5.274  -8.341  -1.855  0.00  0.00    +0.051 A 
ATOM     32  C   UNL     1      -5.744  -9.665  -1.938  0.00  0.00    +0.042 A 
ATOM     33  C   UNL     1      -5.579 -10.222  -0.721  0.00  0.00    +0.196 A 
ATOM     34  O   UNL     1      -5.029  -9.312   0.099  0.00  0.00    -0.462 OA
ENDBRANCH  29  30
ENDBRANCH  12  28
TORSDOF 5
