REMARK  Name = ZINC36892776
REMARK  5 active torsions:
REMARK  status: ('A' for Active; 'I' for Inactive)
REMARK    1  A    between atoms: C_6  and  C_7
REMARK    2  A    between atoms: N_11  and  C_15
REMARK    3  A    between atoms: C_15  and  C_16
REMARK    4  A    between atoms: C_16  and  N_17
REMARK    5  A    between atoms: C_18  and  C_20
REMARK                            x       y       z     vdW  Elec       q    Type
REMARK                         _______ _______ _______ _____ _____    ______ ____
ROOT
ATOM      1  C   UNL     1      -6.503  -0.399   1.984  0.00  0.00    +0.124 C 
ENDROOT
BRANCH   1   2
ATOM      2  N   UNL     1      -7.883  -0.873   2.122  0.00  0.00    -0.310 N 
ATOM      3  C   UNL     1      -8.401  -1.090   3.347  0.00  0.00    +0.244 C 
ATOM      4  O   UNL     1      -7.724  -0.893   4.337  0.00  0.00    -0.270 OA
ATOM      5  H   UNL     1      -8.423  -1.031   1.332  0.00  0.00    +0.149 HD
BRANCH   3   6
ATOM      6  C   UNL     1      -9.791  -1.568   3.486  0.00  0.00    +0.037 A 
ATOM      7  C   UNL     1     -10.569  -1.801   2.343  0.00  0.00    +0.015 A 
ATOM      8  C   UNL     1     -11.854  -2.243   2.456  0.00  0.00    +0.027 A 
ATOM      9  C   UNL     1     -12.412  -2.468   3.713  0.00  0.00    +0.047 A 
ATOM     10  C   UNL     1     -11.640  -2.237   4.870  0.00  0.00    +0.004 A 
ATOM     11  C   UNL     1     -10.326  -1.792   4.751  0.00  0.00    +0.023 A 
ATOM     12  C   UNL     1     -12.507  -2.563   5.999  0.00  0.00    -0.019 A 
ATOM     13  C   UNL     1     -13.693  -2.953   5.494  0.00  0.00    +0.020 A 
ATOM     14  N   UNL     1     -13.649  -2.901   4.128  0.00  0.00    -0.358 N 
ATOM     15  H   UNL     1     -14.383  -3.135   3.539  0.00  0.00    +0.166 HD
ATOM     16  C   UNL     1     -14.867  -3.378   6.345  0.00  0.00    +0.053 C 
ATOM     17  C   UNL     1     -14.358  -3.689   7.757  0.00  0.00    +0.006 C 
ATOM     18  C   UNL     1     -13.496  -2.526   8.258  0.00  0.00    +0.005 C 
ATOM     19  C   UNL     1     -12.182  -2.491   7.468  0.00  0.00    +0.037 C 
ENDBRANCH   3   6
ENDBRANCH   1   2
BRANCH   1  20
ATOM     20  C   UNL     1      -6.166  -0.235   0.500  0.00  0.00    +0.136 C 
BRANCH  20  25
ATOM     21  C   UNL     1      -1.258  -0.758   0.010  0.00  0.00    +0.028 C 
ATOM     22  C   UNL     1      -2.440  -0.102   0.128  0.00  0.00    +0.080 C 
ATOM     23  C   UNL     1      -3.807  -0.644   0.265  0.00  0.00    +0.260 C 
ATOM     24  O   UNL     1      -4.021  -1.841   0.288  0.00  0.00    -0.269 OA
ATOM     25  N   UNL     1      -4.787   0.239   0.362  0.00  0.00    -0.227 N 
ATOM     26  C   UNL     1      -4.546   1.565   0.336  0.00  0.00    +0.286 C 
ATOM     27  O   UNL     1      -5.344   2.480   0.415  0.00  0.00    -0.262 OA
ATOM     28  S   UNL     1      -2.770   1.654   0.167  0.00  0.00    -0.026 S 
BRANCH  21  34
ATOM     29  C   UNL     1       0.004   1.346   0.409  0.00  0.00    +0.012 A 
ATOM     30  C   UNL     1       1.190   2.045   0.456  0.00  0.00    +0.050 A 
ATOM     31  C   UNL     1       2.389   1.409   0.162  0.00  0.00    +0.166 A 
ATOM     32  C   UNL     1       2.398   0.056  -0.185  0.00  0.00    +0.167 A 
ATOM     33  C   UNL     1       1.214  -0.651  -0.235  0.00  0.00    +0.057 A 
ATOM     34  C   UNL     1       0.005  -0.010   0.062  0.00  0.00    -0.020 A 
ATOM     35  O   UNL     1       3.688  -0.323  -0.424  0.00  0.00    -0.453 OA
ATOM     36  C   UNL     1       4.418   0.902  -0.620  0.00  0.00    +0.466 C 
ATOM     37  O   UNL     1       3.672   1.872   0.139  0.00  0.00    -0.453 OA
ENDBRANCH  21  34
ENDBRANCH  20  25
ENDBRANCH   1  20
TORSDOF 5
