REMARK  Name = ZINC44784857
REMARK  5 active torsions:
REMARK  status: ('A' for Active; 'I' for Inactive)
REMARK    1  A    between atoms: C_1  and  C_2
REMARK    2  A    between atoms: C_2  and  C_3
REMARK    3  A    between atoms: C_10  and  C_12
REMARK    4  A    between atoms: C_12  and  C_17
REMARK    5  A    between atoms: N_18  and  O_19
REMARK                            x       y       z     vdW  Elec       q    Type
REMARK                         _______ _______ _______ _____ _____    ______ ____
ROOT
ATOM      1  C   UNL     1      -2.155   1.246   3.360  0.00  0.00    +0.105 C 
ATOM      2  C   UNL     1      -1.154   1.994   4.258  0.00  0.00    +0.024 C 
ATOM      3  C   UNL     1      -1.007   1.157   5.546  0.00  0.00    +0.001 C 
ATOM      4  C   UNL     1      -1.413  -0.275   5.117  0.00  0.00    +0.001 C 
ATOM      5  C   UNL     1      -2.581  -0.019   4.133  0.00  0.00    +0.024 C 
ENDROOT
BRANCH   1  12
ATOM      6  C   UNL     1      -1.491  -0.384  -0.048  0.00  0.00    +0.076 C 
ATOM      7  C   UNL     1      -1.677  -1.902  -0.134  0.00  0.00    +0.022 C 
ATOM      8  C   UNL     1      -3.169  -2.235  -0.064  0.00  0.00    +0.003 C 
ATOM      9  C   UNL     1      -3.738  -1.754   1.274  0.00  0.00    +0.019 C 
ATOM     10  C   UNL     1      -3.575  -0.234   1.376  0.00  0.00    +0.108 C 
ATOM     11  N   UNL     1      -2.162   0.109   1.163  0.00  0.00    -0.298 N 
ATOM     12  C   UNL     1      -1.494   0.859   2.062  0.00  0.00    +0.229 C 
ATOM     13  O   UNL     1      -0.361   1.222   1.826  0.00  0.00    -0.275 OA
BRANCH   6  15
ATOM     14  C   UNL     1       0.706  -0.610  -1.216  0.00  0.00    +0.006 C 
ATOM     15  C   UNL     1       0.001  -0.053   0.022  0.00  0.00    +0.019 C 
ENDBRANCH   6  15
ENDBRANCH   1  12
BRANCH   1  16
ATOM     16  C   UNL     1      -3.356   2.115   3.088  0.00  0.00    +0.147 C 
ATOM     17  N   UNL     1      -4.510   1.789   3.568  0.00  0.00    -0.076 NA
ATOM     18  N   UNL     1      -3.222   3.256   2.329  0.00  0.00    -0.343 N 
ATOM     19  H   UNL     1      -2.373   3.462   1.909  0.00  0.00    +0.144 HD
ATOM     20  H   UNL     1      -3.978   3.853   2.215  0.00  0.00    +0.144 HD
BRANCH  17  21
ATOM     21  O   UNL     1      -5.639   2.605   3.313  0.00  0.00    -0.408 OA
ATOM     22  H   UNL     1      -6.457   2.281   3.712  0.00  0.00    +0.328 HD
ENDBRANCH  17  21
ENDBRANCH   1  16
TORSDOF 4
