REMARK  Name = ZINC00709629
REMARK  7 active torsions:
REMARK  status: ('A' for Active; 'I' for Inactive)
REMARK    1  A    between atoms: C_4  and  C_7
REMARK    2  A    between atoms: C_14  and  N_34
REMARK    3  A    between atoms: C_15  and  C_32
REMARK    4  A    between atoms: C_16  and  C_18
REMARK    5  A    between atoms: C_22  and  O_24
REMARK    6  A    between atoms: O_24  and  C_25
REMARK    7  A    between atoms: C_25  and  C_27
REMARK                            x       y       z     vdW  Elec       q    Type
REMARK                         _______ _______ _______ _____ _____    ______ ____
ROOT
ATOM      1  C   UNL     1       3.874  -0.831   0.086  0.00  0.00    +0.100 A 
ATOM      2  C   UNL     1       4.080  -2.006   0.814  0.00  0.00    +0.054 A 
ATOM      3  C   UNL     1       5.362  -2.420   0.595  0.00  0.00    +0.223 A 
ATOM      4  N   UNL     1       5.941  -1.535  -0.243  0.00  0.00    -0.246 N 
ATOM      5  H   UNL     1       6.852  -1.576  -0.575  0.00  0.00    +0.192 HD
ATOM      6  N   UNL     1       4.993  -0.549  -0.555  0.00  0.00    -0.171 NA
ATOM      7  O   UNL     1       5.878  -3.537   1.165  0.00  0.00    -0.423 OA
ATOM      8  C   UNL     1       5.188  -4.098   2.179  0.00  0.00    +0.200 C 
ATOM      9  C   UNL     1       3.910  -3.780   2.484  0.00  0.00    +0.098 C 
ATOM     10  C   UNL     1       3.123  -2.756   1.704  0.00  0.00    +0.102 C 
ENDROOT
BRANCH   1  14
ATOM     11  C   UNL     1       0.274   1.429  -0.054  0.00  0.00    +0.000 A 
ATOM     12  C   UNL     1       0.716   0.911   1.150  0.00  0.00    +0.001 A 
ATOM     13  C   UNL     1       1.884   0.177   1.201  0.00  0.00    +0.010 A 
ATOM     14  C   UNL     1       2.618  -0.042   0.037  0.00  0.00    +0.003 A 
ATOM     15  C   UNL     1       2.167   0.482  -1.173  0.00  0.00    +0.010 A 
ATOM     16  C   UNL     1       0.998   1.214  -1.213  0.00  0.00    +0.001 A 
ENDBRANCH   1  14
BRANCH  10  17
ATOM     17  C   UNL     1       2.082  -3.448   0.863  0.00  0.00    -0.031 A 
ATOM     18  C   UNL     1       2.464  -4.396  -0.068  0.00  0.00    +0.005 A 
ATOM     19  C   UNL     1       1.510  -5.033  -0.841  0.00  0.00    +0.004 A 
ATOM     20  C   UNL     1       0.173  -4.723  -0.685  0.00  0.00    +0.046 A 
ATOM     21  C   UNL     1      -0.213  -3.772   0.248  0.00  0.00    +0.132 A 
ATOM     22  C   UNL     1       0.745  -3.138   1.027  0.00  0.00    +0.051 A 
BRANCH  21  23
ATOM     23  O   UNL     1      -1.528  -3.466   0.404  0.00  0.00    -0.420 OA
BRANCH  23  24
ATOM     24  C   UNL     1      -2.297  -4.318   1.112  0.00  0.00    +0.380 C 
ATOM     25  O   UNL     1      -1.832  -5.368   1.513  0.00  0.00    -0.241 OA
BRANCH  24  26
ATOM     26  C   UNL     1      -3.693  -3.979   1.398  0.00  0.00    +0.212 A 
ATOM     27  C   UNL     1      -4.577  -4.746   2.104  0.00  0.00    +0.056 A 
ATOM     28  C   UNL     1      -5.790  -4.040   2.132  0.00  0.00    +0.042 A 
ATOM     29  C   UNL     1      -5.596  -2.889   1.451  0.00  0.00    +0.196 A 
ATOM     30  O   UNL     1      -4.331  -2.854   1.015  0.00  0.00    -0.456 OA
ENDBRANCH  24  26
ENDBRANCH  23  24
ENDBRANCH  21  23
ENDBRANCH  10  17
BRANCH   8  31
ATOM     31  N   UNL     1       5.819  -5.046   2.945  0.00  0.00    -0.328 N 
ATOM     32  H   UNL     1       6.736  -5.295   2.750  0.00  0.00    +0.145 HD
ATOM     33  H   UNL     1       5.348  -5.467   3.681  0.00  0.00    +0.145 HD
ENDBRANCH   8  31
BRANCH   9  34
ATOM     34  C   UNL     1       3.280  -4.440   3.588  0.00  0.00    +0.101 C 
ATOM     35  N   UNL     1       2.780  -4.963   4.463  0.00  0.00    -0.191 NA
ENDBRANCH   9  34
TORSDOF 7
