REMARK  Name = ZINC34896582
REMARK  14 active torsions:
REMARK  status: ('A' for Active; 'I' for Inactive)
REMARK    1  A    between atoms: C_1  and  C_2
REMARK    2  A    between atoms: C_2  and  O_3
REMARK    3  A    between atoms: O_3  and  C_4
REMARK    4  A    between atoms: C_4  and  C_6
REMARK    5  A    between atoms: C_10  and  N_11
REMARK    6  A    between atoms: C_12  and  C_14
REMARK    7  A    between atoms: C_14  and  C_16
REMARK    8  A    between atoms: C_14  and  N_17
REMARK    9  A    between atoms: N_17  and  C_18
REMARK   10  A    between atoms: N_17  and  C_19
REMARK   11  A    between atoms: C_19  and  C_20
REMARK   12  A    between atoms: N_22  and  C_23
REMARK   13  A    between atoms: C_26  and  C_29
REMARK   14  A    between atoms: C_31  and  C_35
REMARK                            x       y       z     vdW  Elec       q    Type
REMARK                         _______ _______ _______ _____ _____    ______ ____
ROOT
ATOM      1  N   UNL     1      -0.590  -2.416  -3.935  0.00  0.00    -0.281 N 
ATOM      2  C   UNL     1      -1.159  -2.893  -5.060  0.00  0.00    +0.204 C 
ATOM      3  O   UNL     1      -0.524  -3.611  -5.804  0.00  0.00    -0.277 OA
ATOM      4  H   UNL     1      -1.097  -1.843  -3.340  0.00  0.00    +0.155 HD
ENDROOT
BRANCH   1   9
ATOM      5  C   UNL     1       1.464  -2.351  -2.526  0.00  0.00    +0.091 A 
ATOM      6  C   UNL     1       2.828  -2.844  -2.433  0.00  0.00    -0.021 A 
ATOM      7  C   UNL     1       3.201  -3.634  -3.463  0.00  0.00    -0.004 A 
ATOM      8  S   UNL     1       1.776  -3.711  -4.508  0.00  0.00    -0.077 S 
ATOM      9  C   UNL     1       0.722  -2.745  -3.629  0.00  0.00    +0.086 A 
ATOM     10  C   UNL     1       4.533  -4.290  -3.657  0.00  0.00    +0.046 C 
ATOM     11  C   UNL     1       5.540  -3.628  -2.704  0.00  0.00    -0.009 C 
ATOM     12  C   UNL     1       4.921  -3.549  -1.306  0.00  0.00    +0.008 C 
ATOM     13  C   UNL     1       3.786  -2.523  -1.296  0.00  0.00    +0.037 C 
ATOM     14  C   UNL     1       6.822  -4.461  -2.654  0.00  0.00    +0.008 C 
BRANCH   5  15
ATOM     15  C   UNL     1       0.896  -1.480  -1.495  0.00  0.00    +0.342 C 
ATOM     16  O   UNL     1       0.323  -1.964  -0.537  0.00  0.00    -0.245 OA
BRANCH  15  17
ATOM     17  O   UNL     1       1.008  -0.140  -1.607  0.00  0.00    -0.461 OA
BRANCH  17  19
ATOM     18  C   UNL     1       0.656   2.132  -0.863  0.00  0.00    +0.048 C 
ATOM     19  C   UNL     1       0.431   0.648  -0.565  0.00  0.00    +0.229 C 
ENDBRANCH  17  19
ENDBRANCH  15  17
ENDBRANCH   5  15
ENDBRANCH   1   9
BRANCH   2  20
ATOM     20  C   UNL     1      -2.584  -2.536  -5.393  0.00  0.00    +0.017 C 
ATOM     21  C   UNL     1      -3.532  -3.301  -4.467  0.00  0.00    -0.004 C 
BRANCH  20  22
ATOM     22  N   UNL     1      -2.866  -2.896  -6.789  0.00  0.00    +0.391 N 
ATOM     23  C   UNL     1      -2.051  -2.063  -7.684  0.00  0.00    -0.094 C 
ATOM     24  H   UNL     1      -2.642  -3.868  -6.937  0.00  0.00    -0.080 HD
BRANCH  22  25
ATOM     25  C   UNL     1      -4.290  -2.673  -7.074  0.00  0.00    +0.020 C 
BRANCH  25  26
ATOM     26  C   UNL     1      -4.605  -3.157  -8.466  0.00  0.00    +0.201 C 
ATOM     27  O   UNL     1      -3.729  -3.640  -9.153  0.00  0.00    -0.278 OA
ATOM     28  N   UNL     1      -5.859  -3.053  -8.948  0.00  0.00    -0.287 N 
ATOM     29  H   UNL     1      -6.574  -2.735  -8.375  0.00  0.00    +0.155 HD
BRANCH  28  30
ATOM     30  C   UNL     1      -6.130  -3.404 -10.275  0.00  0.00    +0.033 A 
ATOM     31  C   UNL     1      -7.075  -2.693 -11.004  0.00  0.00    +0.023 A 
ATOM     32  C   UNL     1      -7.340  -3.041 -12.314  0.00  0.00    +0.005 A 
ATOM     33  C   UNL     1      -6.666  -4.097 -12.900  0.00  0.00    -0.050 A 
ATOM     34  C   UNL     1      -5.725  -4.808 -12.177  0.00  0.00    +0.005 A 
ATOM     35  C   UNL     1      -5.451  -4.460 -10.868  0.00  0.00    +0.023 A 
ATOM     36  C   UNL     1      -6.958  -4.475 -14.329  0.00  0.00    +0.044 C 
ENDBRANCH  28  30
ENDBRANCH  25  26
ENDBRANCH  22  25
ENDBRANCH  20  22
ENDBRANCH   2  20
TORSDOF 9
