REMARK  Name = ZINC63761402
REMARK  9 active torsions:
REMARK  status: ('A' for Active; 'I' for Inactive)
REMARK    1  A    between atoms: C_1  and  O_2
REMARK    2  A    between atoms: O_2  and  C_3
REMARK    3  A    between atoms: C_3  and  C_5
REMARK    4  A    between atoms: C_5  and  C_7
REMARK    5  A    between atoms: C_5  and  N_17
REMARK    6  A    between atoms: C_7  and  C_8
REMARK    7  A    between atoms: C_18  and  C_20
REMARK    8  A    between atoms: C_22  and  O_27
REMARK    9  A    between atoms: C_24  and  O_26
REMARK                            x       y       z     vdW  Elec       q    Type
REMARK                         _______ _______ _______ _____ _____    ______ ____
ROOT
ATOM      1  C   UNL     1       0.657  -2.104  -1.120  0.00  0.00    +0.186 C 
ENDROOT
BRANCH   1   2
ATOM      2  N   UNL     1       1.354  -2.503  -2.345  0.00  0.00    -0.298 N 
ATOM      3  C   UNL     1       0.675  -2.599  -3.505  0.00  0.00    +0.245 C 
ATOM      4  O   UNL     1      -0.516  -2.355  -3.535  0.00  0.00    -0.270 OA
ATOM      5  H   UNL     1       2.304  -2.698  -2.322  0.00  0.00    +0.150 HD
BRANCH   3   6
ATOM      6  C   UNL     1       1.378  -3.002  -4.742  0.00  0.00    +0.044 A 
ATOM      7  C   UNL     1       2.743  -3.289  -4.710  0.00  0.00    +0.058 A 
ATOM      8  C   UNL     1       3.397  -3.666  -5.870  0.00  0.00    +0.121 A 
ATOM      9  C   UNL     1       2.697  -3.759  -7.065  0.00  0.00    +0.090 A 
ATOM     10  C   UNL     1       1.340  -3.475  -7.102  0.00  0.00    +0.121 A 
ATOM     11  C   UNL     1       0.676  -3.103  -5.944  0.00  0.00    +0.058 A 
BRANCH  10  12
ATOM     12  O   UNL     1       0.659  -3.568  -8.274  0.00  0.00    -0.507 OA
ATOM     13  H   UNL     1       0.280  -4.442  -8.441  0.00  0.00    +0.292 HD
ENDBRANCH  10  12
BRANCH   8  14
ATOM     14  O   UNL     1       4.727  -3.946  -5.840  0.00  0.00    -0.507 OA
ATOM     15  H   UNL     1       4.930  -4.873  -5.658  0.00  0.00    +0.292 HD
ENDBRANCH   8  14
ENDBRANCH   3   6
ENDBRANCH   1   2
BRANCH   1  16
ATOM     16  C   UNL     1       0.598  -0.600  -1.043  0.00  0.00    +0.328 C 
ATOM     17  O   UNL     1       1.088   0.070  -1.921  0.00  0.00    -0.249 OA
BRANCH  16  19
ATOM     18  C   UNL     1      -0.017   1.425   0.010  0.00  0.00    +0.280 C 
ATOM     19  O   UNL     1       0.002  -0.004   0.002  0.00  0.00    -0.467 OA
ENDBRANCH  16  19
ENDBRANCH   1  16
BRANCH   1  20
ATOM     20  C   UNL     1       1.412  -2.647   0.096  0.00  0.00    +0.067 C 
BRANCH  20  21
ATOM     21  C   UNL     1       1.365  -4.153   0.083  0.00  0.00    -0.039 C 
ATOM     22  C   UNL     1       2.303  -4.992  -0.414  0.00  0.00    -0.001 A 
ATOM     23  C   UNL     1       3.596  -4.761  -1.068  0.00  0.00    +0.010 A 
ATOM     24  C   UNL     1       4.329  -5.826  -1.467  0.00  0.00    +0.001 A 
ATOM     25  C   UNL     1       3.884  -7.141  -1.272  0.00  0.00    +0.002 A 
ATOM     26  C   UNL     1       2.707  -7.433  -0.679  0.00  0.00    +0.026 A 
ATOM     27  C   UNL     1       1.856  -6.390  -0.220  0.00  0.00    +0.043 A 
ATOM     28  N   UNL     1       0.688  -6.415   0.375  0.00  0.00    -0.380 N 
ATOM     29  C   UNL     1       0.264  -5.034   0.630  0.00  0.00    +0.144 C 
ATOM     30  H   UNL     1       0.189  -7.213   0.610  0.00  0.00    +0.160 HD
ENDBRANCH  20  21
ENDBRANCH   1  20
TORSDOF 8
