REMARK  Name = ZINC08854822
REMARK  5 active torsions:
REMARK  status: ('A' for Active; 'I' for Inactive)
REMARK    1  A    between atoms: C_1  and  C_2
REMARK    2  A    between atoms: C_5  and  N_9
REMARK    3  A    between atoms: N_21  and  C_24
REMARK    4  A    between atoms: C_24  and  N_57
REMARK    5  A    between atoms: C_27  and  C_30
REMARK                            x       y       z     vdW  Elec       q    Type
REMARK                         _______ _______ _______ _____ _____    ______ ____
ROOT
ATOM      1  N   UNL     1      -2.055   2.228   1.117  0.00  0.00    -0.243 N 
ATOM      2  C   UNL     1      -3.071   1.397   0.888  0.00  0.00    +0.231 C 
ATOM      3  O   UNL     1      -3.717   0.926   1.801  0.00  0.00    -0.274 OA
ATOM      4  C   UNL     1      -3.390   1.060  -0.561  0.00  0.00    +0.168 C 
ATOM      5  S   UNL     1      -2.427   2.374  -1.431  0.00  0.00    -0.111 S 
ATOM      6  C   UNL     1      -1.322   2.772  -0.021  0.00  0.00    +0.192 C 
ATOM      7  C   UNL     1       0.030   2.158  -0.210  0.00  0.00    +0.017 A 
ATOM      8  C   UNL     1       0.480   0.865  -0.357  0.00  0.00    +0.009 A 
ATOM      9  C   UNL     1       1.830   0.615  -0.526  0.00  0.00    +0.000 A 
ATOM     10  C   UNL     1       2.728   1.668  -0.546  0.00  0.00    +0.002 A 
ATOM     11  C   UNL     1       2.283   2.965  -0.397  0.00  0.00    +0.024 A 
ATOM     12  C   UNL     1       0.925   3.226  -0.227  0.00  0.00    +0.041 A 
ATOM     13  N   UNL     1       0.242   4.433  -0.058  0.00  0.00    -0.285 N 
ATOM     14  C   UNL     1      -1.088   4.250   0.075  0.00  0.00    +0.257 C 
ATOM     15  O   UNL     1      -1.927   5.110   0.236  0.00  0.00    -0.272 OA
ENDROOT
BRANCH   1  20
ATOM     16  C   UNL     1      -0.607   3.624   6.422  0.00  0.00    +0.045 C 
ATOM     17  C   UNL     1      -0.991   3.254   5.013  0.00  0.00    -0.036 A 
ATOM     18  C   UNL     1      -1.996   3.950   4.365  0.00  0.00    +0.006 A 
ATOM     19  C   UNL     1      -2.350   3.612   3.074  0.00  0.00    +0.024 A 
ATOM     20  C   UNL     1      -1.697   2.572   2.425  0.00  0.00    +0.040 A 
ATOM     21  C   UNL     1      -0.693   1.871   3.079  0.00  0.00    +0.039 A 
ATOM     22  C   UNL     1      -0.339   2.217   4.369  0.00  0.00    +0.023 A 
ATOM     23 BR   UNL     1       1.034   1.268   5.259  0.00  0.00    -0.050 Br
ENDBRANCH   1  20
BRANCH  13  24
ATOM     24  C   UNL     1       0.894   5.745  -0.027  0.00  0.00    +0.038 C 
BRANCH  24  31
ATOM     25  C   UNL     1      -0.176   5.829  -2.197  0.00  0.00    -0.076 C 
ATOM     26  C   UNL     1       0.001   6.295  -3.644  0.00  0.00    -0.015 C 
ATOM     27  C   UNL     1       0.088   7.824  -3.675  0.00  0.00    -0.018 C 
ATOM     28  C   UNL     1       1.250   8.280  -2.789  0.00  0.00    -0.015 C 
ATOM     29  C   UNL     1       1.036   7.756  -1.367  0.00  0.00    -0.076 C 
ATOM     30  C   UNL     1       0.327   8.293  -5.112  0.00  0.00    +0.007 C 
ATOM     31  N   UNL     1       0.986   6.279  -1.402  0.00  0.00    +0.390 N 
ATOM     32  H   UNL     1       1.845   5.927  -1.840  0.00  0.00    -0.080 HD
ENDBRANCH  24  31
ENDBRANCH  13  24
TORSDOF 3
