REMARK  Name = ZINC58550367
REMARK  6 active torsions:
REMARK  status: ('A' for Active; 'I' for Inactive)
REMARK    1  A    between atoms: C_4  and  N_7
REMARK    2  A    between atoms: C_9  and  C_12
REMARK    3  A    between atoms: C_12  and  C_13
REMARK    4  A    between atoms: C_13  and  N_14
REMARK    5  A    between atoms: C_15  and  C_17
REMARK    6  A    between atoms: C_17  and  C_18
REMARK                            x       y       z     vdW  Elec       q    Type
REMARK                         _______ _______ _______ _____ _____    ______ ____
ROOT
ATOM      1  N   UNL     1       6.586  -5.385  -1.549  0.00  0.00    -0.315 N 
ATOM      2  C   UNL     1       6.864  -5.984  -2.724  0.00  0.00    +0.214 C 
ATOM      3  O   UNL     1       6.597  -5.425  -3.767  0.00  0.00    -0.276 OA
ATOM      4  H   UNL     1       6.800  -5.831  -0.715  0.00  0.00    +0.149 HD
ENDROOT
BRANCH   1   5
ATOM      5  C   UNL     1       5.962  -4.060  -1.531  0.00  0.00    +0.109 C 
BRANCH   5   6
ATOM      6  C   UNL     1       5.757  -3.612  -0.083  0.00  0.00    +0.057 C 
BRANCH   6   9
ATOM      7  N   UNL     1       3.624  -0.652  -0.037  0.00  0.00    -0.240 N 
ATOM      8  C   UNL     1       3.786  -1.994  -0.052  0.00  0.00    +0.118 A 
ATOM      9  C   UNL     1       5.115  -2.248  -0.065  0.00  0.00    -0.008 A 
ATOM     10  C   UNL     1       5.788  -1.022  -0.059  0.00  0.00    +0.138 A 
ATOM     11  N   UNL     1       4.895  -0.065  -0.048  0.00  0.00    -0.175 NA
BRANCH   7  15
ATOM     12  C   UNL     1      -0.017   1.379   0.010  0.00  0.00    +0.000 A 
ATOM     13  C   UNL     1       1.170   2.089   0.002  0.00  0.00    +0.002 A 
ATOM     14  C   UNL     1       2.377   1.419  -0.013  0.00  0.00    +0.028 A 
ATOM     15  C   UNL     1       2.399   0.031  -0.021  0.00  0.00    +0.065 A 
ATOM     16  C   UNL     1       1.207  -0.680  -0.013  0.00  0.00    +0.028 A 
ATOM     17  C   UNL     1       0.002  -0.004   0.002  0.00  0.00    +0.002 A 
ENDBRANCH   7  15
ENDBRANCH   6   9
ENDBRANCH   5   6
ENDBRANCH   1   5
BRANCH   2  18
ATOM     18  C   UNL     1       7.506  -7.347  -2.742  0.00  0.00    +0.102 C 
BRANCH  18  19
ATOM     19  C   UNL     1       7.711  -7.795  -4.191  0.00  0.00    -0.019 C 
ATOM     20  C   UNL     1       8.618  -6.795  -4.910  0.00  0.00    +0.011 C 
ATOM     21  C   UNL     1       8.823  -7.243  -6.359  0.00  0.00    -0.009 C 
ATOM     22  C   UNL     1       9.475  -8.627  -6.377  0.00  0.00    +0.007 C 
ATOM     23  C   UNL     1       8.568  -9.627  -5.657  0.00  0.00    -0.009 C 
ATOM     24  C   UNL     1       8.363  -9.179  -4.209  0.00  0.00    +0.011 C 
ATOM     25  C   UNL     1       7.215  -9.691  -6.368  0.00  0.00    +0.021 C 
ATOM     26  C   UNL     1       6.563  -8.307  -6.350  0.00  0.00    +0.027 C 
ATOM     27  C   UNL     1       7.470  -7.307  -7.069  0.00  0.00    +0.021 C 
ATOM     28  C   UNL     1       6.358  -7.859  -4.901  0.00  0.00    +0.025 C 
ATOM     29 BR   UNL     1       4.824  -8.390  -7.263  0.00  0.00    -0.084 Br
ENDBRANCH  18  19
ENDBRANCH   2  18
TORSDOF 6
