REMARK  Name = ZINC13988835
REMARK  4 active torsions:
REMARK  status: ('A' for Active; 'I' for Inactive)
REMARK    1  A    between atoms: C_6  and  O_11
REMARK    2  A    between atoms: O_11  and  C_12
REMARK    3  A    between atoms: C_12  and  C_13
REMARK    4  A    between atoms: N_15  and  N_16
REMARK                            x       y       z     vdW  Elec       q    Type
REMARK                         _______ _______ _______ _____ _____    ______ ____
ROOT
ATOM      1  N   UNL     1       4.612   4.033   0.622  0.00  0.00    -0.217 N 
ATOM      2  C   UNL     1       3.390   3.549   0.919  0.00  0.00    +0.327 C 
ATOM      3  O   UNL     1       3.279   2.454   1.436  0.00  0.00    -0.250 OA
ATOM      4  N   UNL     1       2.291   4.279   0.644  0.00  0.00    -0.221 N 
ATOM      5  C   UNL     1       2.425   5.656   0.422  0.00  0.00    +0.057 A 
ATOM      6  C   UNL     1       3.333   6.398   1.161  0.00  0.00    +0.025 A 
ATOM      7  C   UNL     1       3.459   7.757   0.939  0.00  0.00    +0.002 A 
ATOM      8  C   UNL     1       2.679   8.386  -0.013  0.00  0.00    +0.001 A 
ATOM      9  C   UNL     1       1.774   7.654  -0.762  0.00  0.00    +0.017 A 
ATOM     10  C   UNL     1       1.645   6.295  -0.544  0.00  0.00    +0.035 A 
ATOM     11  S   UNL     1       0.495   5.336  -1.479  0.00  0.00    -0.086 S 
ATOM     12  C   UNL     1       0.095   4.029  -0.361  0.00  0.00    +0.035 A 
ATOM     13  C   UNL     1       1.046   3.640   0.586  0.00  0.00    +0.057 A 
ATOM     14  C   UNL     1       0.744   2.615   1.469  0.00  0.00    +0.025 A 
ATOM     15  C   UNL     1      -0.488   1.989   1.407  0.00  0.00    +0.002 A 
ATOM     16  C   UNL     1      -1.425   2.378   0.468  0.00  0.00    +0.001 A 
ATOM     17  C   UNL     1      -1.135   3.400  -0.419  0.00  0.00    +0.017 A 
ATOM     18  H   UNL     1       5.406   3.555   0.908  0.00  0.00    +0.174 HD
ENDROOT
BRANCH   1  21
ATOM     19  C   UNL     1       5.948   5.794  -0.263  0.00  0.00    +0.267 C 
ATOM     20  O   UNL     1       6.917   5.324   0.294  0.00  0.00    -0.271 OA
ATOM     21  N   UNL     1       4.736   5.226  -0.102  0.00  0.00    -0.230 N 
ATOM     22  H   UNL     1       3.950   5.644  -0.487  0.00  0.00    +0.173 HD
BRANCH  19  23
ATOM     23  C   UNL     1       6.099   7.014  -1.135  0.00  0.00    +0.326 C 
BRANCH  23  24
ATOM     24  O   UNL     1       7.482   7.356  -1.241  0.00  0.00    -0.483 OA
BRANCH  24  30
ATOM     25  C   UNL     1      10.013  12.153  -4.475  0.00  0.00    +0.001 A 
ATOM     26  C   UNL     1      11.033  11.439  -3.849  0.00  0.00    +0.001 A 
ATOM     27  C   UNL     1      10.756  10.348  -3.083  0.00  0.00    +0.008 A 
ATOM     28  C   UNL     1       9.423   9.934  -2.919  0.00  0.00    -0.014 A 
ATOM     29  C   UNL     1       9.100   8.813  -2.136  0.00  0.00    +0.054 A 
ATOM     30  C   UNL     1       7.793   8.440  -1.999  0.00  0.00    +0.122 A 
ATOM     31  C   UNL     1       6.772   9.155  -2.632  0.00  0.00    +0.046 A 
ATOM     32  C   UNL     1       7.052  10.248  -3.392  0.00  0.00    +0.012 A 
ATOM     33  C   UNL     1       8.386  10.661  -3.555  0.00  0.00    -0.018 A 
ATOM     34  C   UNL     1       8.711  11.781  -4.338  0.00  0.00    +0.008 A 
ENDBRANCH  24  30
ENDBRANCH  23  24
ENDBRANCH  19  23
ENDBRANCH   1  21
TORSDOF 4
