REMARK  Name = ZINC41584747
REMARK  5 active torsions:
REMARK  status: ('A' for Active; 'I' for Inactive)
REMARK    1  A    between atoms: C_1  and  C_2
REMARK    2  A    between atoms: C_4  and  O_39
REMARK    3  A    between atoms: C_5  and  C_22
REMARK    4  A    between atoms: C_11  and  C_12
REMARK    5  A    between atoms: C_22  and  N_23
REMARK                            x       y       z     vdW  Elec       q    Type
REMARK                         _______ _______ _______ _____ _____    ______ ____
ROOT
ATOM      1  C   UNL     1       0.369   1.463  -0.008  0.00  0.00    +0.045 C 
ATOM      2  C   UNL     1       0.060  -0.012  -0.001  0.00  0.00    -0.033 A 
ATOM      3  C   UNL     1      -0.162  -0.670  -1.178  0.00  0.00    +0.050 A 
ATOM      4  C   UNL     1      -0.449  -2.032  -1.175  0.00  0.00    +0.122 A 
ATOM      5  C   UNL     1      -0.512  -2.736   0.017  0.00  0.00    +0.020 A 
ATOM      6  C   UNL     1      -0.289  -2.082   1.223  0.00  0.00    +0.145 A 
ATOM      7  C   UNL     1       0.005  -0.709   1.206  0.00  0.00    +0.071 A 
ATOM      8  C   UNL     1       0.196  -0.308   2.612  0.00  0.00    +0.232 C 
ATOM      9  O   UNL     1       0.462   0.801   3.041  0.00  0.00    -0.283 OA
ATOM     10  C   UNL     1      -0.006  -1.546   3.379  0.00  0.00    +0.176 C 
ATOM     11  C   UNL     1       0.069  -1.674   4.728  0.00  0.00    +0.058 C 
ATOM     12  O   UNL     1      -0.294  -2.531   2.496  0.00  0.00    -0.451 OA
ENDROOT
BRANCH  11  13
ATOM     13  C   UNL     1      -0.018  -3.003   5.345  0.00  0.00    -0.018 A 
ATOM     14  C   UNL     1      -0.004  -4.152   4.544  0.00  0.00    +0.012 A 
ATOM     15  C   UNL     1      -0.085  -5.397   5.126  0.00  0.00    +0.050 A 
ATOM     16  C   UNL     1      -0.181  -5.520   6.507  0.00  0.00    +0.166 A 
ATOM     17  C   UNL     1      -0.196  -4.379   7.312  0.00  0.00    +0.167 A 
ATOM     18  C   UNL     1      -0.109  -3.127   6.737  0.00  0.00    +0.057 A 
ATOM     19  O   UNL     1      -0.297  -4.769   8.617  0.00  0.00    -0.453 OA
ATOM     20  C   UNL     1      -0.755  -6.133   8.575  0.00  0.00    +0.466 C 
ATOM     21  O   UNL     1      -0.272  -6.619   7.309  0.00  0.00    -0.453 OA
ENDBRANCH  11  13
BRANCH   4  22
ATOM     22  O   UNL     1      -0.668  -2.676  -2.349  0.00  0.00    -0.506 OA
ATOM     23  H   UNL     1       0.131  -3.045  -2.751  0.00  0.00    +0.292 HD
ENDBRANCH   4  22
BRANCH   5  24
ATOM     24  C   UNL     1      -0.825  -4.210   0.006  0.00  0.00    -0.036 C 
BRANCH  24  25
ATOM     25  N   UNL     1       0.426  -4.975  -0.094  0.00  0.00    +0.383 N 
ATOM     26  C   UNL     1       0.133  -6.406   0.024  0.00  0.00    -0.073 C 
ATOM     27  C   UNL     1       1.403  -7.237  -0.077  0.00  0.00    -0.007 C 
ATOM     28  C   UNL     1       2.144  -6.938  -1.383  0.00  0.00    +0.011 C 
ATOM     29  C   UNL     1       2.418  -5.429  -1.419  0.00  0.00    +0.020 C 
ATOM     30  C   UNL     1       1.064  -4.701  -1.390  0.00  0.00    -0.069 C 
ATOM     31  C   UNL     1       3.186  -5.036  -0.177  0.00  0.00    +0.023 A 
ATOM     32  C   UNL     1       4.017  -3.964  -0.266  0.00  0.00    +0.022 A 
ATOM     33  C   UNL     1       4.709  -3.507   0.861  0.00  0.00    +0.007 A 
ATOM     34  C   UNL     1       4.515  -4.138   2.055  0.00  0.00    +0.070 A 
ATOM     35  C   UNL     1       3.648  -5.238   2.112  0.00  0.00    +0.251 A 
ATOM     36  O   UNL     1       3.419  -5.772   3.186  0.00  0.00    -0.268 OA
ATOM     37  N   UNL     1       3.060  -5.715   0.987  0.00  0.00    -0.312 N 
ATOM     38  C   UNL     1       2.340  -6.980   1.092  0.00  0.00    +0.126 C 
ATOM     39  H   UNL     1       1.048  -4.698   0.651  0.00  0.00    -0.081 HD
ENDBRANCH  24  25
ENDBRANCH   5  24
TORSDOF 4
