REMARK  Name = ZINC04387400
REMARK  8 active torsions:
REMARK  status: ('A' for Active; 'I' for Inactive)
REMARK    1  A    between atoms: C_1  and  C_2
REMARK    2  A    between atoms: C_2  and  O_3
REMARK    3  A    between atoms: O_3  and  C_4
REMARK    4  A    between atoms: C_4  and  C_6
REMARK    5  A    between atoms: C_8  and  C_20
REMARK    6  A    between atoms: C_14  and  C_15
REMARK    7  A    between atoms: C_14  and  O_19
REMARK    8  A    between atoms: C_23  and  O_26
REMARK                            x       y       z     vdW  Elec       q    Type
REMARK                         _______ _______ _______ _____ _____    ______ ____
ROOT
ATOM      1  C   UNL     1       0.944  -2.442   2.957  0.00  0.00    +0.181 C 
ATOM      2  C   UNL     1       1.331  -3.857   2.514  0.00  0.00    +0.123 C 
ATOM      3  N   UNL     1       0.114  -4.631   2.265  0.00  0.00    -0.292 N 
ATOM      4  C   UNL     1      -1.025  -4.372   2.924  0.00  0.00    +0.302 C 
ATOM      5  O   UNL     1      -2.004  -5.053   2.687  0.00  0.00    -0.253 OA
ATOM      6  N   UNL     1      -1.126  -3.393   3.834  0.00  0.00    -0.264 N 
ATOM      7  C   UNL     1       0.021  -2.543   4.175  0.00  0.00    +0.246 C 
ATOM      8  H   UNL     1       0.132  -5.346   1.609  0.00  0.00    +0.151 HD
ATOM      9  H   UNL     1      -1.976  -3.241   4.277  0.00  0.00    +0.153 HD
ENDROOT
BRANCH   2  10
ATOM     10  C   UNL     1       2.139  -4.521   3.599  0.00  0.00    -0.026 A 
ATOM     11  C   UNL     1       1.522  -5.376   4.493  0.00  0.00    +0.009 A 
ATOM     12  C   UNL     1       2.261  -5.986   5.489  0.00  0.00    +0.046 A 
ATOM     13  C   UNL     1       3.622  -5.739   5.591  0.00  0.00    +0.117 A 
ATOM     14  C   UNL     1       4.239  -4.881   4.692  0.00  0.00    +0.046 A 
ATOM     15  C   UNL     1       3.497  -4.278   3.695  0.00  0.00    +0.009 A 
BRANCH  13  16
ATOM     16  O   UNL     1       4.351  -6.338   6.570  0.00  0.00    -0.507 OA
ATOM     17  H   UNL     1       4.725  -7.192   6.315  0.00  0.00    +0.292 HD
ENDBRANCH  13  16
ENDBRANCH   2  10
BRANCH   7  18
ATOM     18  C   UNL     1      -0.467  -1.146   4.564  0.00  0.00    +0.436 C 
ATOM     19  F   UNL     1      -1.229  -0.610   3.520  0.00  0.00    -0.166 F 
ATOM     20  F   UNL     1      -1.253  -1.231   5.718  0.00  0.00    -0.166 F 
ATOM     21  F   UNL     1       0.634  -0.319   4.810  0.00  0.00    -0.166 F 
ENDBRANCH   7  18
BRANCH   1  22
ATOM     22  C   UNL     1       0.226  -1.739   1.834  0.00  0.00    +0.317 C 
ATOM     23  O   UNL     1      -0.786  -2.212   1.374  0.00  0.00    -0.250 OA
BRANCH  22  24
ATOM     24  O   UNL     1       0.710  -0.586   1.344  0.00  0.00    -0.465 OA
BRANCH  24  26
ATOM     25  C   UNL     1       0.676   1.319  -0.142  0.00  0.00    +0.048 C 
ATOM     26  C   UNL     1      -0.023   0.025   0.281  0.00  0.00    +0.229 C 
ENDBRANCH  24  26
ENDBRANCH  22  24
ENDBRANCH   1  22
BRANCH   7  27
ATOM     27  O   UNL     1       0.735  -3.122   5.269  0.00  0.00    -0.364 OA
ATOM     28  H   UNL     1       0.210  -3.216   6.076  0.00  0.00    +0.212 HD
ENDBRANCH   7  27
TORSDOF 7
