REMARK  Name = ZINC11563475
REMARK  9 active torsions:
REMARK  status: ('A' for Active; 'I' for Inactive)
REMARK    1  A    between atoms: C_1  and  N_58
REMARK    2  A    between atoms: C_2  and  N_58
REMARK    3  A    between atoms: C_3  and  C_5
REMARK    4  A    between atoms: C_3  and  C_26
REMARK    5  A    between atoms: C_3  and  N_58
REMARK    6  A    between atoms: C_5  and  N_6
REMARK    7  A    between atoms: C_7  and  C_9
REMARK    8  A    between atoms: C_9  and  C_10
REMARK    9  A    between atoms: C_10  and  C_11
REMARK                            x       y       z     vdW  Elec       q    Type
REMARK                         _______ _______ _______ _____ _____    ______ ____
ROOT
ATOM      1  N   UNL     1       1.604   0.188  -1.418  0.00  0.00    -0.317 N 
ATOM      2  C   UNL     1       2.867   0.310  -1.872  0.00  0.00    +0.213 C 
ATOM      3  O   UNL     1       3.638   1.069  -1.324  0.00  0.00    -0.276 OA
ATOM      4  H   UNL     1       0.987  -0.419  -1.856  0.00  0.00    +0.149 HD
ENDROOT
BRANCH   1   5
ATOM      5  C   UNL     1       1.162   0.973  -0.262  0.00  0.00    +0.093 C 
BRANCH   5   6
ATOM      6  C   UNL     1      -0.345   0.794  -0.070  0.00  0.00    -0.020 C 
BRANCH   6   7
ATOM      7  C   UNL     1      -0.769   1.454   1.217  0.00  0.00    -0.041 A 
ATOM      8  C   UNL     1      -1.345   2.711   1.192  0.00  0.00    +0.003 A 
ATOM      9  C   UNL     1      -1.738   3.315   2.371  0.00  0.00    +0.000 A 
ATOM     10  C   UNL     1      -1.547   2.667   3.578  0.00  0.00    +0.001 A 
ATOM     11  C   UNL     1      -0.966   1.413   3.604  0.00  0.00    +0.020 A 
ATOM     12  C   UNL     1      -0.577   0.806   2.424  0.00  0.00    +0.043 A 
ATOM     13 CL   UNL     1       0.153  -0.769   2.457  0.00  0.00    -0.083 Cl
ENDBRANCH   6   7
BRANCH   6  16
ATOM     14  C   UNL     1      -0.415   2.666  -1.603  0.00  0.00    -0.096 C 
ATOM     15  C   UNL     1      -1.162   0.479  -2.327  0.00  0.00    -0.096 C 
ATOM     16  N   UNL     1      -1.086   1.417  -1.187  0.00  0.00    +0.382 N 
ATOM     17  H   UNL     1      -2.038   1.638  -0.873  0.00  0.00    -0.082 HD
ENDBRANCH   6  16
ENDBRANCH   5   6
ENDBRANCH   1   5
BRANCH   2  18
ATOM     18  C   UNL     1       3.321  -0.498  -3.060  0.00  0.00    +0.103 C 
BRANCH  18  19
ATOM     19  C   UNL     1       4.785  -0.175  -3.367  0.00  0.00    +0.083 C 
BRANCH  19  20
ATOM     20  C   UNL     1       5.239  -0.982  -4.556  0.00  0.00    +0.111 A 
ATOM     21  N   UNL     1       6.514  -0.851  -5.003  0.00  0.00    -0.310 N 
ATOM     22  H   UNL     1       7.115  -0.238  -4.551  0.00  0.00    +0.170 HD
ATOM     23  C   UNL     1       6.961  -1.552  -6.061  0.00  0.00    +0.260 A 
ATOM     24  O   UNL     1       8.109  -1.423  -6.451  0.00  0.00    -0.267 OA
ATOM     25  C   UNL     1       6.064  -2.455  -6.722  0.00  0.00    +0.075 A 
ATOM     26  C   UNL     1       6.327  -3.311  -7.878  0.00  0.00    -0.023 A 
ATOM     27  C   UNL     1       5.306  -4.077  -8.316  0.00  0.00    -0.004 A 
ATOM     28  S   UNL     1       3.955  -3.709  -7.229  0.00  0.00    -0.073 S 
ATOM     29  C   UNL     1       4.768  -2.524  -6.188  0.00  0.00    +0.116 A 
ATOM     30  N   UNL     1       4.401  -1.800  -5.134  0.00  0.00    -0.227 NA
ATOM     31  C   UNL     1       5.317  -5.031  -9.472  0.00  0.00    +0.043 C 
ATOM     32  C   UNL     1       6.559  -4.740 -10.327  0.00  0.00    +0.005 C 
ATOM     33  C   UNL     1       7.777  -4.631  -9.404  0.00  0.00    +0.005 C 
ATOM     34  C   UNL     1       7.685  -3.351  -8.573  0.00  0.00    +0.037 C 
ENDBRANCH  19  20
ENDBRANCH  18  19
ENDBRANCH   2  18
TORSDOF 7
