REMARK  Name = ZINC39671610
REMARK  6 active torsions:
REMARK  status: ('A' for Active; 'I' for Inactive)
REMARK    1  A    between atoms: C_1  and  C_2
REMARK    2  A    between atoms: C_4  and  C_9
REMARK    3  A    between atoms: N_7  and  C_8
REMARK    4  A    between atoms: C_13  and  C_22
REMARK    5  A    between atoms: N_24  and  C_25
REMARK    6  A    between atoms: C_25  and  C_26
REMARK                            x       y       z     vdW  Elec       q    Type
REMARK                         _______ _______ _______ _____ _____    ______ ____
ROOT
ATOM      1  C   UNL     1      -1.357  -2.946  -1.170  0.00  0.00    +0.238 C 
ATOM      2  O   UNL     1      -2.284  -3.193  -0.428  0.00  0.00    -0.273 OA
ATOM      3  N   UNL     1      -1.370  -3.401  -2.439  0.00  0.00    -0.299 N 
ATOM      4  C   UNL     1      -0.336  -3.210  -3.483  0.00  0.00    +0.121 C 
ATOM      5  C   UNL     1      -0.273  -4.565  -4.223  0.00  0.00    +0.100 C 
ATOM      6  C   UNL     1      -1.645  -5.213  -3.972  0.00  0.00    -0.004 C 
ATOM      7  C   UNL     1      -2.419  -4.212  -3.103  0.00  0.00    +0.115 C 
ATOM      8  C   UNL     1      -1.477  -6.533  -3.225  0.00  0.00    -0.010 C 
ATOM      9  C   UNL     1      -2.849  -7.186  -3.037  0.00  0.00    -0.082 C 
ATOM     10  N   UNL     1      -3.466  -7.418  -4.349  0.00  0.00    +0.379 N 
ATOM     11  C   UNL     1      -3.708  -6.137  -5.023  0.00  0.00    -0.082 C 
ATOM     12  C   UNL     1      -2.372  -5.440  -5.294  0.00  0.00    -0.010 C 
ATOM     13  H   UNL     1      -2.848  -7.982  -4.914  0.00  0.00    -0.086 HD
ATOM     14  H   UNL     1      -4.342  -7.904  -4.227  0.00  0.00    -0.086 HD
ENDROOT
BRANCH   1  18
ATOM     15  C   UNL     1      -0.522   1.550  -0.058  0.00  0.00    +0.061 C 
ATOM     16  C   UNL     1      -0.389   0.049  -0.048  0.00  0.00    +0.017 C 
ATOM     17  C   UNL     1      -0.316  -0.694  -1.134  0.00  0.00    +0.022 C 
ATOM     18  C   UNL     1      -0.191  -2.131  -0.674  0.00  0.00    +0.183 C 
ATOM     19  N   UNL     1      -0.207  -2.043   0.799  0.00  0.00    -0.225 NA
ATOM     20  N   UNL     1      -0.322  -0.716   1.100  0.00  0.00    -0.274 N 
ATOM     21  C   UNL     1      -0.371  -0.175   2.460  0.00  0.00    +0.149 C 
ATOM     22  H   UNL     1      -0.976  -2.572   1.184  0.00  0.00    +0.146 HD
ENDBRANCH   1  18
BRANCH   5  23
ATOM     23  C   UNL     1      -0.054  -4.348  -5.698  0.00  0.00    +0.219 C 
ATOM     24  O   UNL     1      -0.486  -3.350  -6.235  0.00  0.00    -0.275 OA
ATOM     25  N   UNL     1       0.621  -5.263  -6.421  0.00  0.00    -0.309 N 
ATOM     26  H   UNL     1       0.967  -6.062  -5.992  0.00  0.00    +0.149 HD
BRANCH  25  27
ATOM     27  C   UNL     1       0.834  -5.052  -7.855  0.00  0.00    +0.157 C 
BRANCH  27  28
ATOM     28  C   UNL     1       1.610  -6.212  -8.424  0.00  0.00    +0.034 A 
ATOM     29  H   UNL     1       3.584  -5.668  -8.046  0.00  0.00    +0.166 HD
ATOM     30  C   UNL     1       1.066  -7.286  -9.017  0.00  0.00    +0.032 A 
ATOM     31  C   UNL     1       2.171  -8.160  -9.418  0.00  0.00    -0.000 A 
ATOM     32  C   UNL     1       2.246  -9.395 -10.064  0.00  0.00    +0.010 A 
ATOM     33  C   UNL     1       3.466  -9.964 -10.300  0.00  0.00    +0.001 A 
ATOM     34  C   UNL     1       4.632  -9.324  -9.902  0.00  0.00    +0.002 A 
ATOM     35  C   UNL     1       4.580  -8.105  -9.262  0.00  0.00    +0.026 A 
ATOM     36  C   UNL     1       3.349  -7.507  -9.013  0.00  0.00    +0.047 A 
ATOM     37  N   UNL     1       2.974  -6.324  -8.417  0.00  0.00    -0.357 N 
ENDBRANCH  27  28
ENDBRANCH  25  27
ENDBRANCH   5  23
TORSDOF 4
