REMARK  Name = ZINC35926623
REMARK  5 active torsions:
REMARK  status: ('A' for Active; 'I' for Inactive)
REMARK    1  A    between atoms: C_3  and  C_6
REMARK    2  A    between atoms: C_21  and  C_23
REMARK    3  A    between atoms: C_23  and  N_24
REMARK    4  A    between atoms: N_27  and  C_30
REMARK    5  A    between atoms: C_30  and  C_31
REMARK                            x       y       z     vdW  Elec       q    Type
REMARK                         _______ _______ _______ _____ _____    ______ ____
ROOT
ATOM      1  C   UNL     1       3.561   0.619  -0.029  0.00  0.00    +0.282 C 
ATOM      2  O   UNL     1       2.345   0.651   0.001  0.00  0.00    -0.267 OA
ATOM      3  N   UNL     1       4.201  -0.561  -0.143  0.00  0.00    -0.293 N 
ATOM      4  C   UNL     1       5.664  -0.545  -0.147  0.00  0.00    +0.110 C 
ATOM      5  C   UNL     1       6.140  -0.863   1.256  0.00  0.00    +0.038 C 
ATOM      6  C   UNL     1       6.241  -2.378   1.453  0.00  0.00    +0.109 C 
ATOM      7  N   UNL     1       5.113  -3.103   0.848  0.00  0.00    -0.300 N 
ATOM      8  C   UNL     1       3.733  -2.661   0.954  0.00  0.00    +0.127 C 
ATOM      9  C   UNL     1       3.409  -1.737  -0.246  0.00  0.00    +0.127 C 
ATOM     10  C   UNL     1       5.377  -4.250   0.149  0.00  0.00    +0.198 A 
ATOM     11  N   UNL     1       4.350  -4.934  -0.424  0.00  0.00    -0.295 N 
ATOM     12  H   UNL     1       3.440  -4.610  -0.337  0.00  0.00    +0.172 HD
ATOM     13  C   UNL     1       4.602  -6.066  -1.115  0.00  0.00    +0.253 A 
ATOM     14  O   UNL     1       3.693  -6.692  -1.636  0.00  0.00    -0.268 OA
ATOM     15  C   UNL     1       5.932  -6.510  -1.224  0.00  0.00    +0.091 A 
ATOM     16  C   UNL     1       6.921  -5.782  -0.627  0.00  0.00    +0.034 A 
ATOM     17  N   UNL     1       6.621  -4.670   0.039  0.00  0.00    -0.223 NA
ENDROOT
BRANCH   1  20
ATOM     18  C   UNL     1       4.901   4.011   0.140  0.00  0.00    +0.042 A 
ATOM     19  C   UNL     1       3.815   3.129   0.025  0.00  0.00    +0.054 A 
ATOM     20  C   UNL     1       4.329   1.865   0.059  0.00  0.00    +0.189 A 
ATOM     21  O   UNL     1       5.669   1.963   0.189  0.00  0.00    -0.458 OA
ATOM     22  C   UNL     1       6.017   3.255   0.238  0.00  0.00    +0.196 A 
ENDBRANCH   1  20
BRANCH  16  23
ATOM     23  C   UNL     1       8.354  -6.236  -0.728  0.00  0.00    -0.022 C 
BRANCH  23  24
ATOM     24  N   UNL     1       9.127  -5.250  -1.494  0.00  0.00    +0.385 N 
ATOM     25  C   UNL     1       9.171  -3.981  -0.755  0.00  0.00    -0.063 C 
ATOM     26  C   UNL     1       9.960  -2.947  -1.561  0.00  0.00    +0.066 C 
ATOM     27  N   UNL     1      11.323  -3.447  -1.791  0.00  0.00    -0.302 NA
ATOM     28  C   UNL     1      11.295  -4.729  -2.509  0.00  0.00    +0.066 C 
ATOM     29  C   UNL     1      10.494  -5.748  -1.695  0.00  0.00    -0.063 C 
ATOM     30  H   UNL     1       8.688  -5.101  -2.390  0.00  0.00    -0.081 HD
BRANCH  27  31
ATOM     31  C   UNL     1      12.132  -2.457  -2.515  0.00  0.00    +0.119 C 
BRANCH  31  32
ATOM     32  C   UNL     1      13.574  -2.891  -2.518  0.00  0.00    -0.033 A 
ATOM     33  C   UNL     1      14.417  -2.498  -1.495  0.00  0.00    +0.006 A 
ATOM     34  C   UNL     1      15.740  -2.897  -1.497  0.00  0.00    +0.020 A 
ATOM     35  C   UNL     1      16.222  -3.689  -2.524  0.00  0.00    +0.041 A 
ATOM     36  C   UNL     1      15.378  -4.083  -3.547  0.00  0.00    +0.020 A 
ATOM     37  C   UNL     1      14.053  -3.688  -3.541  0.00  0.00    +0.006 A 
ATOM     38 CL   UNL     1      17.884  -4.190  -2.528  0.00  0.00    -0.084 Cl
ENDBRANCH  31  32
ENDBRANCH  27  31
ENDBRANCH  23  24
ENDBRANCH  16  23
TORSDOF 5
