REMARK  Name = ZINC39483510
REMARK  8 active torsions:
REMARK  status: ('A' for Active; 'I' for Inactive)
REMARK    1  A    between atoms: C_1  and  C_2
REMARK    2  A    between atoms: C_2  and  C_3
REMARK    3  A    between atoms: C_2  and  S_4
REMARK    4  A    between atoms: S_4  and  C_7
REMARK    5  A    between atoms: C_9  and  C_14
REMARK    6  A    between atoms: C_11  and  O_13
REMARK    7  A    between atoms: C_29  and  C_30
REMARK    8  A    between atoms: C_35  and  O_36
REMARK                            x       y       z     vdW  Elec       q    Type
REMARK                         _______ _______ _______ _____ _____    ______ ____
ROOT
ATOM      1  C   UNL     1      -1.211  -5.372  -2.091  0.00  0.00    +0.015 C 
ATOM      2  C   UNL     1      -0.984  -6.696  -1.984  0.00  0.00    -0.004 C 
ATOM      3  C   UNL     1      -0.952  -7.346  -0.631  0.00  0.00    +0.040 C 
ATOM      4  C   UNL     1      -1.474  -8.771  -0.715  0.00  0.00    +0.026 C 
ATOM      5  C   UNL     1      -0.817  -9.568  -1.819  0.00  0.00    +0.127 C 
ATOM      6  N   UNL     1      -0.754  -8.873  -3.098  0.00  0.00    -0.293 N 
ATOM      7  C   UNL     1      -0.775  -7.505  -3.192  0.00  0.00    +0.140 A 
ATOM      8  N   UNL     1      -0.612  -6.873  -4.338  0.00  0.00    -0.228 NA
ATOM      9  C   UNL     1      -0.460  -7.523  -5.500  0.00  0.00    +0.086 A 
ATOM     10  C   UNL     1      -0.501  -8.936  -5.508  0.00  0.00    +0.066 A 
ATOM     11  C   UNL     1      -0.666  -9.626  -4.226  0.00  0.00    +0.262 A 
ATOM     12  O   UNL     1      -0.736 -10.841  -4.176  0.00  0.00    -0.267 OA
ATOM     13  C   UNL     1      -0.369  -9.632  -6.708  0.00  0.00    +0.015 A 
ATOM     14  C   UNL     1      -0.189  -8.939  -7.887  0.00  0.00    +0.001 A 
ATOM     15  C   UNL     1      -0.135  -7.555  -7.895  0.00  0.00    +0.011 A 
ATOM     16  C   UNL     1      -0.267  -6.834  -6.714  0.00  0.00    +0.012 A 
ENDROOT
BRANCH   1  19
ATOM     17  C   UNL     1      -2.154  -2.644   0.308  0.00  0.00    +0.092 A 
ATOM     18  C   UNL     1      -2.112  -3.427  -0.827  0.00  0.00    +0.035 A 
ATOM     19  C   UNL     1      -1.259  -4.533  -0.881  0.00  0.00    -0.019 A 
ATOM     20  C   UNL     1      -0.453  -4.840   0.218  0.00  0.00    +0.053 A 
ATOM     21  C   UNL     1      -0.504  -4.048   1.351  0.00  0.00    +0.119 A 
ATOM     22  C   UNL     1      -1.351  -2.948   1.393  0.00  0.00    +0.072 A 
BRANCH  17  23
ATOM     23  S   UNL     1      -3.229  -1.250   0.374  0.00  0.00    -0.001 S 
ATOM     24  O   UNL     1      -3.494  -1.062   1.758  0.00  0.00    -0.169 OA
ATOM     25  O   UNL     1      -4.282  -1.560  -0.529  0.00  0.00    -0.169 OA
BRANCH  23  27
ATOM     26  C   UNL     1      -3.040   1.430  -0.140  0.00  0.00    +0.032 C 
ATOM     27  C   UNL     1      -2.242   0.130  -0.267  0.00  0.00    +0.130 C 
ATOM     28  C   UNL     1      -0.946   0.247   0.537  0.00  0.00    +0.032 C 
ENDBRANCH  23  27
ENDBRANCH  17  23
BRANCH  21  29
ATOM     29  O   UNL     1       0.278  -4.343   2.423  0.00  0.00    -0.507 OA
ATOM     30  H   UNL     1       1.146  -3.918   2.405  0.00  0.00    +0.292 HD
ENDBRANCH  21  29
ENDBRANCH   1  19
BRANCH  16  31
ATOM     31  C   UNL     1      -0.206  -5.355  -6.732  0.00  0.00    +0.026 A 
ATOM     32  C   UNL     1      -1.194  -4.620  -7.388  0.00  0.00    +0.012 A 
ATOM     33  C   UNL     1      -1.132  -3.242  -7.400  0.00  0.00    +0.001 A 
ATOM     34  C   UNL     1      -0.093  -2.585  -6.765  0.00  0.00    +0.004 A 
ATOM     35  C   UNL     1       0.891  -3.302  -6.112  0.00  0.00    +0.046 A 
ATOM     36  C   UNL     1       0.840  -4.686  -6.086  0.00  0.00    +0.125 A 
BRANCH  36  37
ATOM     37  O   UNL     1       1.803  -5.393  -5.439  0.00  0.00    -0.506 OA
ATOM     38  H   UNL     1       2.560  -5.625  -5.995  0.00  0.00    +0.292 HD
ENDBRANCH  36  37
ENDBRANCH  16  31
TORSDOF 6
