REMARK  Name = ZINC08766598
REMARK  9 active torsions:
REMARK  status: ('A' for Active; 'I' for Inactive)
REMARK    1  A    between atoms: C_1  and  C_2
REMARK    2  A    between atoms: C_2  and  C_36
REMARK    3  A    between atoms: C_7  and  C_35
REMARK    4  A    between atoms: N_10  and  S_11
REMARK    5  A    between atoms: S_11  and  C_14
REMARK    6  A    between atoms: C_17  and  C_20
REMARK    7  A    between atoms: N_22  and  C_23
REMARK    8  A    between atoms: C_24  and  C_32
REMARK    9  A    between atoms: C_31  and  N_70
REMARK                            x       y       z     vdW  Elec       q    Type
REMARK                         _______ _______ _______ _____ _____    ______ ____
ROOT
ATOM      1  C   UNL     1       3.456  -0.087  -0.314  0.00  0.00    +0.106 A 
ATOM      2  C   UNL     1       3.091  -1.421  -0.316  0.00  0.00    +0.029 A 
ATOM      3  C   UNL     1       3.702  -2.305  -1.181  0.00  0.00    +0.015 A 
ATOM      4  C   UNL     1       4.697  -1.853  -2.048  0.00  0.00    +0.037 A 
ATOM      5  C   UNL     1       5.065  -0.506  -2.038  0.00  0.00    +0.015 A 
ATOM      6  C   UNL     1       4.442   0.368  -1.171  0.00  0.00    +0.029 A 
ENDROOT
BRANCH   4   7
ATOM      7  C   UNL     1       5.360  -2.796  -2.974  0.00  0.00    +0.249 C 
ATOM      8  O   UNL     1       6.226  -2.398  -3.728  0.00  0.00    -0.270 OA
ATOM      9  N   UNL     1       5.003  -4.095  -2.982  0.00  0.00    -0.275 N 
ATOM     10  H   UNL     1       4.312  -4.412  -2.380  0.00  0.00    +0.156 HD
BRANCH   9  11
ATOM     11  C   UNL     1       5.624  -4.979  -3.850  0.00  0.00    +0.085 A 
ATOM     12  C   UNL     1       5.396  -6.340  -4.004  0.00  0.00    +0.068 A 
ATOM     13  C   UNL     1       6.190  -7.043  -4.994  0.00  0.00    -0.027 A 
ATOM     14  C   UNL     1       7.080  -6.280  -5.668  0.00  0.00    -0.021 A 
ATOM     15  S   UNL     1       6.868  -4.652  -5.012  0.00  0.00    -0.079 S 
ATOM     16  C   UNL     1       8.021  -6.745  -6.736  0.00  0.00    -0.036 C 
ATOM     17  C   UNL     1       6.728  -8.793  -6.659  0.00  0.00    -0.074 C 
ATOM     18  C   UNL     1       6.073  -8.531  -5.300  0.00  0.00    +0.018 C 
ATOM     19  C   UNL     1       8.855  -8.752  -7.816  0.00  0.00    -0.096 C 
ATOM     20  N   UNL     1       8.092  -8.225  -6.664  0.00  0.00    +0.381 N 
ATOM     21  H   UNL     1       8.569  -8.495  -5.796  0.00  0.00    -0.082 HD
BRANCH  12  22
ATOM     22  C   UNL     1       4.393  -7.040  -3.197  0.00  0.00    +0.244 C 
ATOM     23  O   UNL     1       3.245  -7.127  -3.593  0.00  0.00    -0.270 OA
ATOM     24  N   UNL     1       4.741  -7.589  -2.016  0.00  0.00    -0.325 N 
ATOM     25  H   UNL     1       5.656  -7.520  -1.700  0.00  0.00    +0.145 HD
ATOM     26  H   UNL     1       4.077  -8.052  -1.482  0.00  0.00    +0.145 HD
ENDBRANCH  12  22
ENDBRANCH   9  11
ENDBRANCH   4   7
BRANCH   1  27
ATOM     27  S   UNL     1       2.666   1.037   0.790  0.00  0.00    +0.061 S 
ATOM     28  O   UNL     1       3.569   2.117   0.985  0.00  0.00    -0.153 OA
ATOM     29  O   UNL     1       2.163   0.261   1.868  0.00  0.00    -0.153 OA
BRANCH  27  38
ATOM     30  C   UNL     1       0.400   3.682   2.070  0.00  0.00    +0.011 C 
ATOM     31  C   UNL     1      -0.794   3.171   1.251  0.00  0.00    -0.033 C 
ATOM     32  C   UNL     1      -0.774   1.652   1.211  0.00  0.00    +0.027 C 
ATOM     33  C   UNL     1      -0.013   1.092   0.008  0.00  0.00    +0.081 C 
ATOM     34  C   UNL     1      -0.702   1.665  -1.257  0.00  0.00    +0.028 C 
ATOM     35  C   UNL     1      -0.134   3.111  -1.230  0.00  0.00    -0.016 C 
ATOM     36  C   UNL     1      -0.834   3.861  -0.099  0.00  0.00    +0.014 C 
ATOM     37  C   UNL     1       1.342   2.868  -0.838  0.00  0.00    +0.116 C 
ATOM     38  N   UNL     1       1.350   1.658  -0.002  0.00  0.00    -0.173 NA
ATOM     39  C   UNL     1      -0.270   3.818  -2.587  0.00  0.00    +0.012 C 
ATOM     40  C   UNL     1      -2.068   3.592   2.022  0.00  0.00    +0.011 C 
ENDBRANCH  27  38
ENDBRANCH   1  27
TORSDOF 5
