REMARK  Name = ZINC44096510
REMARK  7 active torsions:
REMARK  status: ('A' for Active; 'I' for Inactive)
REMARK    1  A    between atoms: C_1  and  C_2
REMARK    2  A    between atoms: C_2  and  C_3
REMARK    3  A    between atoms: C_2  and  C_4
REMARK    4  A    between atoms: C_2  and  O_28
REMARK    5  A    between atoms: C_15  and  C_18
REMARK    6  A    between atoms: C_20  and  C_23
REMARK    7  A    between atoms: O_28  and  C_29
REMARK                            x       y       z     vdW  Elec       q    Type
REMARK                         _______ _______ _______ _____ _____    ______ ____
ROOT
ATOM      1  C   UNL     1      -1.494  -0.589  -0.043  0.00  0.00    +0.259 C 
ATOM      2  O   UNL     1      -1.909  -1.303  -0.930  0.00  0.00    -0.271 OA
ATOM      3  N   UNL     1      -2.285  -0.289   1.007  0.00  0.00    -0.295 N 
ATOM      4  C   UNL     1      -1.821   0.633   2.053  0.00  0.00    +0.127 C 
ATOM      5  C   UNL     1      -2.842   1.768   2.195  0.00  0.00    +0.125 C 
ATOM      6  N   UNL     1      -4.184   1.180   2.313  0.00  0.00    -0.314 N 
ATOM      7  C   UNL     1      -4.648   0.258   1.266  0.00  0.00    +0.125 C 
ATOM      8  C   UNL     1      -3.628  -0.872   1.121  0.00  0.00    +0.127 C 
ATOM      9  C   UNL     1      -4.999   1.489   3.393  0.00  0.00    +0.099 A 
ATOM     10  C   UNL     1      -4.596   2.467   4.300  0.00  0.00    +0.042 A 
ATOM     11  C   UNL     1      -5.411   2.768   5.372  0.00  0.00    +0.016 A 
ATOM     12  C   UNL     1      -6.620   2.074   5.505  0.00  0.00    +0.038 A 
ATOM     13  C   UNL     1      -6.955   1.110   4.559  0.00  0.00    +0.095 A 
ATOM     14  N   UNL     1      -6.151   0.854   3.546  0.00  0.00    -0.349 N 
ATOM     15  H   UNL     1      -6.409   0.181   2.897  0.00  0.00    +0.167 HD
ENDROOT
BRANCH  12  16
ATOM     16  C   UNL     1      -7.530   2.361   6.641  0.00  0.00    +0.203 A 
ATOM     17  N   UNL     1      -8.709   1.756   6.873  0.00  0.00    -0.191 NA
ATOM     18  C   UNL     1      -9.255   2.242   7.952  0.00  0.00    +0.231 A 
ATOM     19  O   UNL     1      -8.442   3.181   8.453  0.00  0.00    -0.337 OA
ATOM     20  N   UNL     1      -7.318   3.243   7.587  0.00  0.00    -0.056 NA
BRANCH  18  21
ATOM     21  C   UNL     1     -10.578   1.820   8.537  0.00  0.00    +0.078 C 
ATOM     22  C   UNL     1     -11.516   3.038   8.656  0.00  0.00    +0.013 C 
ATOM     23  C   UNL     1     -12.284   2.798   9.980  0.00  0.00    +0.001 C 
ATOM     24  C   UNL     1     -11.197   2.189  10.900  0.00  0.00    +0.001 C 
ATOM     25  C   UNL     1     -10.375   1.280   9.963  0.00  0.00    +0.013 C 
ENDBRANCH  18  21
ENDBRANCH  12  16
BRANCH   1  27
ATOM     26  C   UNL     1       0.779  -0.724   0.939  0.00  0.00    +0.065 C 
ATOM     27  C   UNL     1      -0.093  -0.037  -0.113  0.00  0.00    +0.180 C 
ATOM     28  C   UNL     1       0.487  -0.295  -1.505  0.00  0.00    +0.065 C 
BRANCH  27  29
ATOM     29  O   UNL     1      -0.123   1.370   0.137  0.00  0.00    -0.477 OA
BRANCH  29  30
ATOM     30  C   UNL     1      -0.884   2.129  -0.694  0.00  0.00    +0.122 A 
ATOM     31  C   UNL     1      -1.650   1.524  -1.680  0.00  0.00    +0.047 A 
ATOM     32  C   UNL     1      -2.423   2.297  -2.525  0.00  0.00    +0.023 A 
ATOM     33  C   UNL     1      -2.434   3.674  -2.387  0.00  0.00    +0.041 A 
ATOM     34  C   UNL     1      -1.671   4.279  -1.405  0.00  0.00    +0.023 A 
ATOM     35  C   UNL     1      -0.901   3.509  -0.554  0.00  0.00    +0.047 A 
ATOM     36 CL   UNL     1      -3.406   4.643  -3.450  0.00  0.00    -0.084 Cl
ENDBRANCH  29  30
ENDBRANCH  27  29
ENDBRANCH   1  27
TORSDOF 5
