REMARK  Name = ZINC39676366
REMARK  5 active torsions:
REMARK  status: ('A' for Active; 'I' for Inactive)
REMARK    1  A    between atoms: C_1  and  C_2
REMARK    2  A    between atoms: C_6  and  C_15
REMARK    3  A    between atoms: N_17  and  C_18
REMARK    4  A    between atoms: C_18  and  C_19
REMARK    5  A    between atoms: C_19  and  C_20
REMARK                            x       y       z     vdW  Elec       q    Type
REMARK                         _______ _______ _______ _____ _____    ______ ____
ROOT
ATOM      1  C   UNL     1       0.408  -1.213  -4.745  0.00  0.00    +0.218 C 
ATOM      2  O   UNL     1      -0.787  -1.278  -4.938  0.00  0.00    -0.275 OA
ATOM      3  N   UNL     1       1.265  -1.318  -5.780  0.00  0.00    -0.315 N 
ATOM      4  H   UNL     1       2.221  -1.265  -5.626  0.00  0.00    +0.149 HD
ENDROOT
BRANCH   1  10
ATOM      5  C   UNL     1      -0.158   1.339   0.086  0.00  0.00    +0.109 C 
ATOM      6  C   UNL     1      -0.030  -0.162   0.037  0.00  0.00    +0.212 C 
ATOM      7  O   UNL     1       0.043  -0.799   1.066  0.00  0.00    -0.276 OA
ATOM      8  N   UNL     1       0.002  -0.797  -1.152  0.00  0.00    -0.300 N 
ATOM      9  C   UNL     1      -0.067  -0.196  -2.505  0.00  0.00    +0.121 C 
ATOM     10  C   UNL     1       0.936  -1.015  -3.348  0.00  0.00    +0.100 C 
ATOM     11  C   UNL     1       1.050  -2.365  -2.619  0.00  0.00    -0.004 C 
ATOM     12  C   UNL     1       0.122  -2.254  -1.401  0.00  0.00    +0.115 C 
ATOM     13  C   UNL     1       0.592  -3.498  -3.532  0.00  0.00    -0.010 C 
ATOM     14  C   UNL     1       0.770  -4.835  -2.807  0.00  0.00    -0.082 C 
ATOM     15  N   UNL     1       2.181  -5.013  -2.443  0.00  0.00    +0.379 N 
ATOM     16  C   UNL     1       2.587  -3.971  -1.492  0.00  0.00    -0.082 C 
ATOM     17  C   UNL     1       2.487  -2.598  -2.162  0.00  0.00    -0.010 C 
ATOM     18  H   UNL     1       2.306  -5.920  -2.020  0.00  0.00    -0.086 HD
ATOM     19  H   UNL     1       2.751  -4.950  -3.273  0.00  0.00    -0.086 HD
ENDBRANCH   1  10
BRANCH   3  20
ATOM     20  C   UNL     1       0.752  -1.510  -7.139  0.00  0.00    +0.109 C 
BRANCH  20  21
ATOM     21  C   UNL     1       1.923  -1.597  -8.119  0.00  0.00    +0.056 C 
BRANCH  21  22
ATOM     22  C   UNL     1       1.396  -1.795  -9.517  0.00  0.00    -0.021 A 
ATOM     23  C   UNL     1       0.955  -0.745 -10.439  0.00  0.00    +0.004 A 
ATOM     24  C   UNL     1       0.878   0.646 -10.358  0.00  0.00    +0.030 A 
ATOM     25  C   UNL     1       0.405   1.366 -11.433  0.00  0.00    +0.042 A 
ATOM     26  C   UNL     1       0.005   0.714 -12.592  0.00  0.00    +0.022 A 
ATOM     27  C   UNL     1       0.075  -0.658 -12.687  0.00  0.00    +0.027 A 
ATOM     28  C   UNL     1       0.550  -1.404 -11.614  0.00  0.00    +0.047 A 
ATOM     29  N   UNL     1       0.736  -2.754 -11.407  0.00  0.00    -0.360 N 
ATOM     30  C   UNL     1       1.246  -2.966 -10.155  0.00  0.00    +0.087 A 
ATOM     31 CL   UNL     1       0.307   3.096 -11.338  0.00  0.00    -0.084 Cl
ATOM     32  H   UNL     1       0.538  -3.449 -12.054  0.00  0.00    +0.165 HD
ENDBRANCH  21  22
ENDBRANCH  20  21
ENDBRANCH   3  20
TORSDOF 4
