REMARK  Name = ZINC34806422
REMARK  11 active torsions:
REMARK  status: ('A' for Active; 'I' for Inactive)
REMARK    1  A    between atoms: C_1  and  C_2
REMARK    2  A    between atoms: C_3  and  N_9
REMARK    3  A    between atoms: N_9  and  N_10
REMARK    4  A    between atoms: C_11  and  C_12
REMARK    5  A    between atoms: C_11  and  S_15
REMARK    6  A    between atoms: C_12  and  C_14
REMARK    7  A    between atoms: S_15  and  C_16
REMARK    8  A    between atoms: C_19  and  C_27
REMARK    9  A    between atoms: N_20  and  C_21
REMARK   10  A    between atoms: C_27  and  C_29
REMARK   11  A    between atoms: C_27  and  O_35
REMARK                            x       y       z     vdW  Elec       q    Type
REMARK                         _______ _______ _______ _____ _____    ______ ____
ROOT
ATOM      1  C   UNL     1      -0.266  -2.612  -5.780  0.00  0.00    +0.202 A 
ATOM      2  N   UNL     1      -0.050  -3.069  -4.568  0.00  0.00    -0.122 NA
ATOM      3  N   UNL     1      -0.032  -4.354  -4.581  0.00  0.00    -0.130 NA
ATOM      4  C   UNL     1      -0.234  -4.793  -5.791  0.00  0.00    +0.172 A 
ATOM      5  N   UNL     1      -0.396  -3.700  -6.599  0.00  0.00    -0.272 N 
ENDROOT
BRANCH   5   6
ATOM      6  C   UNL     1      -0.642  -3.696  -7.980  0.00  0.00    +0.050 A 
ATOM      7  C   UNL     1      -1.831  -4.211  -8.476  0.00  0.00    +0.026 A 
ATOM      8  C   UNL     1      -2.071  -4.206  -9.837  0.00  0.00    +0.002 A 
ATOM      9  C   UNL     1      -1.126  -3.688 -10.704  0.00  0.00    +0.000 A 
ATOM     10  C   UNL     1       0.060  -3.174 -10.213  0.00  0.00    +0.002 A 
ATOM     11  C   UNL     1       0.302  -3.171  -8.853  0.00  0.00    +0.026 A 
ENDBRANCH   5   6
BRANCH   1  12
ATOM     12  S   UNL     1      -0.374  -0.920  -6.258  0.00  0.00    -0.025 S 
BRANCH  12  14
ATOM     13  N   UNL     1       0.088  -0.687  -3.638  0.00  0.00    -0.172 NA
ATOM     14  C   UNL     1      -0.120  -0.035  -4.756  0.00  0.00    +0.164 C 
BRANCH  14  15
ATOM     15  C   UNL     1      -0.140   1.381  -4.756  0.00  0.00    +0.187 C 
ATOM     16  O   UNL     1       0.900   2.002  -4.670  0.00  0.00    -0.290 OA
ATOM     17  C   UNL     1      -1.451   2.116  -4.864  0.00  0.00    +0.094 C 
ENDBRANCH  14  15
BRANCH  13  18
ATOM     18  N   UNL     1       0.179   0.010  -2.427  0.00  0.00    -0.236 N 
ATOM     19  H   UNL     1       0.160   0.980  -2.423  0.00  0.00    +0.174 HD
BRANCH  18  22
ATOM     20  C   UNL     1       0.357   1.507  -0.014  0.00  0.00    +0.047 C 
ATOM     21  C   UNL     1       0.386   0.001  -0.023  0.00  0.00    -0.010 A 
ATOM     22  C   UNL     1       0.296  -0.690  -1.226  0.00  0.00    +0.053 A 
ATOM     23  C   UNL     1       0.322  -2.080  -1.230  0.00  0.00    +0.025 A 
ATOM     24  C   UNL     1       0.438  -2.770  -0.040  0.00  0.00    +0.003 A 
ATOM     25  C   UNL     1       0.527  -2.081   1.156  0.00  0.00    +0.020 A 
ATOM     26  C   UNL     1       0.507  -0.697   1.164  0.00  0.00    +0.046 A 
ATOM     27 CL   UNL     1       0.627   0.164   2.667  0.00  0.00    -0.083 Cl
ENDBRANCH  18  22
ENDBRANCH  13  18
ENDBRANCH  12  14
ENDBRANCH   1  12
BRANCH   4  28
ATOM     28  C   UNL     1      -0.286  -6.237  -6.220  0.00  0.00    +0.212 C 
BRANCH  28  29
ATOM     29  C   UNL     1      -1.595  -6.844  -5.783  0.00  0.00    -0.012 A 
ATOM     30  C   UNL     1      -1.763  -7.257  -4.475  0.00  0.00    +0.006 A 
ATOM     31  C   UNL     1      -2.963  -7.814  -4.075  0.00  0.00    +0.000 A 
ATOM     32  C   UNL     1      -3.996  -7.957  -4.982  0.00  0.00    +0.000 A 
ATOM     33  C   UNL     1      -3.828  -7.543  -6.291  0.00  0.00    +0.000 A 
ATOM     34  C   UNL     1      -2.629  -6.982  -6.690  0.00  0.00    +0.006 A 
ENDBRANCH  28  29
BRANCH  28  35
ATOM     35  O   UNL     1       0.794  -6.952  -5.618  0.00  0.00    -0.379 OA
ATOM     36  H   UNL     1       0.783  -6.941  -4.651  0.00  0.00    +0.211 HD
ENDBRANCH  28  35
ENDBRANCH   4  28
TORSDOF 9
