REMARK  Name = ZINC20366338
REMARK  9 active torsions:
REMARK  status: ('A' for Active; 'I' for Inactive)
REMARK    1  A    between atoms: C_3  and  C_9
REMARK    2  A    between atoms: C_9  and  O_10
REMARK    3  A    between atoms: O_10  and  N_11
REMARK    4  A    between atoms: N_11  and  C_12
REMARK    5  A    between atoms: C_13  and  C_14
REMARK    6  A    between atoms: N_16  and  N_17
REMARK    7  A    between atoms: C_18  and  C_19
REMARK    8  A    between atoms: C_19  and  O_20
REMARK    9  A    between atoms: O_20  and  C_21
REMARK                            x       y       z     vdW  Elec       q    Type
REMARK                         _______ _______ _______ _____ _____    ______ ____
ROOT
ATOM      1  C   UNL     1       1.148   1.656   0.000  0.00  0.00    +0.256 C 
ATOM      2  O   UNL     1       1.131   2.869   0.007  0.00  0.00    -0.269 OA
ATOM      3  N   UNL     1      -0.011   0.966   0.007  0.00  0.00    -0.225 N 
ATOM      4  H   UNL     1       0.004  -0.134   0.006  0.00  0.00    +0.175 HD
ENDROOT
BRANCH   3   5
ATOM      5  N   UNL     1      -1.234   1.650   0.017  0.00  0.00    -0.292 N 
ATOM      6  C   UNL     1      -2.346   0.988   0.018  0.00  0.00    +0.121 C 
ATOM      7  N   UNL     1      -2.327  -0.394   0.011  0.00  0.00    -0.344 N 
ATOM      8  H   UNL     1      -3.272  -0.957   0.012  0.00  0.00    +0.143 HD
ATOM      9  H   UNL     1      -1.367  -0.931   0.004  0.00  0.00    +0.143 HD
ATOM     10  H   UNL     1      -1.249   2.750   0.023  0.00  0.00    +0.186 HD
BRANCH   6  11
ATOM     11  C   UNL     1      -3.661   1.723   0.029  0.00  0.00    +0.299 C 
BRANCH  11  12
ATOM     12  O   UNL     1      -3.419   3.131   0.035  0.00  0.00    -0.483 OA
BRANCH  12  13
ATOM     13  C   UNL     1      -4.508   3.945   0.045  0.00  0.00    +0.139 A 
ATOM     14  C   UNL     1      -5.783   3.398   0.048  0.00  0.00    +0.048 A 
ATOM     15  C   UNL     1      -6.889   4.226   0.058  0.00  0.00    +0.023 A 
ATOM     16  C   UNL     1      -6.726   5.601   0.064  0.00  0.00    +0.043 A 
ATOM     17  C   UNL     1      -5.455   6.149   0.061  0.00  0.00    +0.043 A 
ATOM     18  C   UNL     1      -4.346   5.323   0.057  0.00  0.00    +0.084 A 
ATOM     19 CL   UNL     1      -2.752   6.011   0.061  0.00  0.00    -0.080 Cl
ATOM     20 CL   UNL     1      -8.117   6.638   0.076  0.00  0.00    -0.083 Cl
ENDBRANCH  12  13
ENDBRANCH  11  12
ENDBRANCH   6  11
ENDBRANCH   3   5
BRANCH   1  22
ATOM     21  C   UNL     1       3.595   1.915  -0.022  0.00  0.00    +0.113 C 
ATOM     22  C   UNL     1       2.463   0.920  -0.017  0.00  0.00    +0.088 C 
BRANCH  21  23
ATOM     23  N   UNL     1       4.807   1.505  -0.036  0.00  0.00    -0.273 N 
ATOM     24  H   UNL     1       5.633   2.231  -0.040  0.00  0.00    +0.193 HD
BRANCH  23  25
ATOM     25  O   UNL     1       5.084   0.117  -0.046  0.00  0.00    -0.270 OA
BRANCH  25  26
ATOM     26  C   UNL     1       6.478  -0.197  -0.061  0.00  0.00    +0.229 C 
BRANCH  26  29
ATOM     27  C   UNL     1       5.711  -3.894  -0.074  0.00  0.00    +0.020 A 
ATOM     28  C   UNL     1       5.549  -2.521  -0.064  0.00  0.00    +0.009 A 
ATOM     29  C   UNL     1       6.656  -1.694  -0.070  0.00  0.00    -0.001 A 
ATOM     30  C   UNL     1       7.928  -2.239  -0.091  0.00  0.00    +0.048 A 
ATOM     31  C   UNL     1       8.091  -3.613  -0.095  0.00  0.00    +0.040 A 
ATOM     32  C   UNL     1       6.982  -4.440  -0.089  0.00  0.00    +0.042 A 
ATOM     33 CL   UNL     1       7.186  -6.164  -0.100  0.00  0.00    -0.083 Cl
ATOM     34 CL   UNL     1       9.318  -1.200  -0.106  0.00  0.00    -0.083 Cl
ENDBRANCH  26  29
ENDBRANCH  25  26
ENDBRANCH  23  25
ENDBRANCH  21  23
ENDBRANCH   1  22
TORSDOF 9
