REMARK  Name = ZINC63362354
REMARK  13 active torsions:
REMARK  status: ('A' for Active; 'I' for Inactive)
REMARK    1  A    between atoms: C_1  and  C_2
REMARK    2  A    between atoms: C_2  and  C_4
REMARK    3  A    between atoms: C_2  and  N_10
REMARK    4  A    between atoms: C_4  and  C_5
REMARK    5  A    between atoms: C_5  and  C_6
REMARK    6  A    between atoms: C_6  and  C_7
REMARK    7  A    between atoms: C_7  and  C_8
REMARK    8  A    between atoms: C_7  and  C_9
REMARK    9  A    between atoms: C_11  and  C_13
REMARK   10  A    between atoms: C_16  and  N_19
REMARK   11  A    between atoms: C_22  and  C_40
REMARK   12  A    between atoms: C_28  and  O_33
REMARK   13  A    between atoms: O_33  and  C_34
REMARK                            x       y       z     vdW  Elec       q    Type
REMARK                         _______ _______ _______ _____ _____    ______ ____
ROOT
ATOM      1  N   UNL     1      -7.347  -2.595  -1.104  0.00  0.00    -0.192 N 
ATOM      2  C   UNL     1      -8.132  -2.680  -2.199  0.00  0.00    +0.253 C 
ATOM      3  O   UNL     1      -7.857  -2.332  -3.327  0.00  0.00    -0.272 OA
ATOM      4  C   UNL     1      -9.428  -3.300  -1.724  0.00  0.00    +0.137 C 
ATOM      5  C   UNL     1     -10.605  -2.364  -1.998  0.00  0.00    +0.139 C 
ATOM      6  C   UNL     1     -11.103  -1.857  -0.652  0.00  0.00    -0.034 C 
ATOM      7  C   UNL     1     -11.063  -0.529  -0.718  0.00  0.00    +0.003 A 
ATOM      8  C   UNL     1     -11.476   0.512   0.236  0.00  0.00    +0.055 A 
ATOM      9  C   UNL     1     -11.283   1.804  -0.149  0.00  0.00    +0.121 A 
ATOM     10  C   UNL     1     -10.724   2.180  -1.379  0.00  0.00    +0.047 A 
ATOM     11  C   UNL     1     -10.314   1.304  -2.332  0.00  0.00    +0.029 A 
ATOM     12  C   UNL     1     -10.476  -0.126  -2.033  0.00  0.00    +0.043 A 
ATOM     13  N   UNL     1     -10.195  -1.183  -2.760  0.00  0.00    -0.375 N 
ATOM     14  C   UNL     1     -11.476  -2.762   0.496  0.00  0.00    +0.052 C 
ATOM     15  C   UNL     1     -10.296  -3.733   0.705  0.00  0.00    +0.115 C 
ATOM     16  N   UNL     1      -9.249  -3.382  -0.260  0.00  0.00    -0.268 N 
ATOM     17  C   UNL     1      -7.978  -3.037  -0.008  0.00  0.00    +0.316 C 
ATOM     18  O   UNL     1      -7.459  -3.114   1.088  0.00  0.00    -0.252 OA
ATOM     19  C   UNL     1      -9.642  -4.684  -2.340  0.00  0.00    +0.044 C 
ATOM     20  H   UNL     1      -9.786  -1.188  -3.640  0.00  0.00    +0.160 HD
ENDROOT
BRANCH   1  24
ATOM     21  C   UNL     1      -3.436  -1.154  -1.134  0.00  0.00    +0.037 A 
ATOM     22  C   UNL     1      -4.056  -1.472   0.077  0.00  0.00    +0.015 A 
ATOM     23  C   UNL     1      -5.348  -1.948   0.083  0.00  0.00    +0.025 A 
ATOM     24  C   UNL     1      -6.036  -2.112  -1.114  0.00  0.00    +0.045 A 
ATOM     25  C   UNL     1      -5.422  -1.796  -2.322  0.00  0.00    +0.025 A 
ATOM     26  C   UNL     1      -4.132  -1.314  -2.335  0.00  0.00    +0.015 A 
BRANCH  21  28
ATOM     27  N   UNL     1      -1.381  -0.488   0.015  0.00  0.00    -0.309 N 
ATOM     28  C   UNL     1      -2.051  -0.643  -1.145  0.00  0.00    +0.244 C 
ATOM     29  O   UNL     1      -1.515  -0.361  -2.199  0.00  0.00    -0.270 OA
ATOM     30  H   UNL     1      -1.808  -0.713   0.856  0.00  0.00    +0.149 HD
BRANCH  27  32
ATOM     31  C   UNL     1      -0.027   1.548  -0.018  0.00  0.00    +0.028 C 
ATOM     32  C   UNL     1      -0.006   0.019   0.004  0.00  0.00    +0.070 C 
BRANCH  32  33
ATOM     33  C   UNL     1       0.725  -0.464   1.259  0.00  0.00    +0.022 C 
BRANCH  33  34
ATOM     34  C   UNL     1       0.855  -1.988   1.219  0.00  0.00    +0.002 C 
BRANCH  34  35
ATOM     35  C   UNL     1       1.586  -2.470   2.473  0.00  0.00    +0.003 C 
BRANCH  35  36
ATOM     36  C   UNL     1       1.717  -3.994   2.433  0.00  0.00    -0.017 C 
ATOM     37  C   UNL     1       2.614  -4.398   1.261  0.00  0.00    +0.007 C 
ATOM     38  C   UNL     1       2.335  -4.487   3.743  0.00  0.00    +0.007 C 
ENDBRANCH  35  36
ENDBRANCH  34  35
ENDBRANCH  33  34
ENDBRANCH  32  33
ENDBRANCH  27  32
ENDBRANCH  21  28
ENDBRANCH   1  24
BRANCH   9  39
ATOM     39  O   UNL     1     -11.655   2.788   0.711  0.00  0.00    -0.495 OA
ATOM     40  C   UNL     1     -11.443   4.136   0.285  0.00  0.00    +0.277 C 
ENDBRANCH   9  39
TORSDOF 8
