REMARK  Name = ZINC39677074
REMARK  12 active torsions:
REMARK  status: ('A' for Active; 'I' for Inactive)
REMARK    1  A    between atoms: C_1  and  C_2
REMARK    2  A    between atoms: C_5  and  C_38
REMARK    3  A    between atoms: C_6  and  C_8
REMARK    4  A    between atoms: C_8  and  C_9
REMARK    5  A    between atoms: C_9  and  N_10
REMARK    6  A    between atoms: C_11  and  C_13
REMARK    7  A    between atoms: C_24  and  C_26
REMARK    8  A    between atoms: C_26  and  C_28
REMARK    9  A    between atoms: C_26  and  O_31
REMARK   10  A    between atoms: C_28  and  C_29
REMARK   11  A    between atoms: C_28  and  C_30
REMARK   12  A    between atoms: O_31  and  C_32
REMARK                            x       y       z     vdW  Elec       q    Type
REMARK                         _______ _______ _______ _____ _____    ______ ____
ROOT
ATOM      1  C   UNL     1       3.507  -5.315   5.892  0.00  0.00    +0.100 C 
ATOM      2  C   UNL     1       2.809  -4.421   6.942  0.00  0.00    +0.121 C 
ATOM      3  N   UNL     1       3.530  -4.698   8.207  0.00  0.00    -0.297 N 
ATOM      4  C   UNL     1       4.952  -4.812   7.803  0.00  0.00    +0.115 C 
ATOM      5  C   UNL     1       4.913  -5.568   6.460  0.00  0.00    -0.004 C 
ATOM      6  C   UNL     1       5.974  -5.015   5.513  0.00  0.00    -0.010 C 
ATOM      7  C   UNL     1       7.365  -5.330   6.071  0.00  0.00    -0.082 C 
ATOM      8  N   UNL     1       7.518  -6.783   6.215  0.00  0.00    +0.379 N 
ATOM      9  C   UNL     1       6.555  -7.293   7.199  0.00  0.00    -0.082 C 
ATOM     10  C   UNL     1       5.130  -7.061   6.688  0.00  0.00    -0.010 C 
ATOM     11  C   UNL     1       3.010  -4.819   9.444  0.00  0.00    +0.257 C 
ATOM     12  O   UNL     1       1.808  -4.786   9.603  0.00  0.00    -0.272 OA
ATOM     13  H   UNL     1       7.355  -7.227   5.324  0.00  0.00    -0.086 HD
ATOM     14  H   UNL     1       8.456  -6.991   6.525  0.00  0.00    -0.086 HD
ENDROOT
BRANCH   1  16
ATOM     15  N   UNL     1       3.721  -5.303   3.427  0.00  0.00    -0.315 N 
ATOM     16  C   UNL     1       3.597  -4.598   4.569  0.00  0.00    +0.218 C 
ATOM     17  O   UNL     1       3.558  -3.386   4.533  0.00  0.00    -0.275 OA
ATOM     18  H   UNL     1       3.752  -6.272   3.457  0.00  0.00    +0.149 HD
BRANCH  15  19
ATOM     19  C   UNL     1       3.808  -4.606   2.142  0.00  0.00    +0.109 C 
BRANCH  19  20
ATOM     20  C   UNL     1       3.941  -5.631   1.014  0.00  0.00    +0.054 C 
BRANCH  20  26
ATOM     21  C   UNL     1       1.734  -3.848  -3.109  0.00  0.00    +0.044 C 
ATOM     22  C   UNL     1       2.975  -4.061  -2.281  0.00  0.00    -0.050 A 
ATOM     23  C   UNL     1       4.197  -3.599  -2.735  0.00  0.00    +0.003 A 
ATOM     24  C   UNL     1       5.335  -3.794  -1.976  0.00  0.00    +0.004 A 
ATOM     25  C   UNL     1       5.253  -4.452  -0.763  0.00  0.00    -0.047 A 
ATOM     26  C   UNL     1       4.031  -4.913  -0.309  0.00  0.00    -0.043 A 
ATOM     27  C   UNL     1       2.892  -4.714  -1.066  0.00  0.00    +0.007 A 
ATOM     28  C   UNL     1       6.494  -4.666   0.065  0.00  0.00    +0.044 C 
ENDBRANCH  20  26
ENDBRANCH  19  20
ENDBRANCH  15  19
ENDBRANCH   1  16
BRANCH  11  29
ATOM     29  C   UNL     1       3.923  -4.994  10.631  0.00  0.00    +0.261 C 
BRANCH  29  30
ATOM     30  C   UNL     1       4.773  -3.735  10.811  0.00  0.00    +0.033 C 
ATOM     31  C   UNL     1       3.867  -2.552  11.158  0.00  0.00    +0.011 C 
ATOM     32  C   UNL     1       5.779  -3.956  11.942  0.00  0.00    +0.011 C 
ENDBRANCH  29  30
BRANCH  29  33
ATOM     33  O   UNL     1       3.139  -5.211  11.806  0.00  0.00    -0.479 OA
BRANCH  33  34
ATOM     34  C   UNL     1       3.637  -6.077  12.728  0.00  0.00    +0.122 A 
ATOM     35  C   UNL     1       2.921  -6.347  13.885  0.00  0.00    +0.045 A 
ATOM     36  C   UNL     1       3.429  -7.227  14.821  0.00  0.00    +0.004 A 
ATOM     37  C   UNL     1       4.650  -7.839  14.605  0.00  0.00    +0.000 A 
ATOM     38  C   UNL     1       5.366  -7.571  13.452  0.00  0.00    +0.004 A 
ATOM     39  C   UNL     1       4.859  -6.696  12.511  0.00  0.00    +0.045 A 
ENDBRANCH  33  34
ENDBRANCH  29  33
ENDBRANCH  11  29
TORSDOF 8
