REMARK  Name = ZINC17794687
REMARK  9 active torsions:
REMARK  status: ('A' for Active; 'I' for Inactive)
REMARK    1  A    between atoms: C_1  and  N_65
REMARK    2  A    between atoms: C_2  and  N_65
REMARK    3  A    between atoms: C_3  and  C_5
REMARK    4  A    between atoms: C_3  and  C_27
REMARK    5  A    between atoms: C_3  and  N_65
REMARK    6  A    between atoms: C_5  and  N_6
REMARK    7  A    between atoms: C_7  and  C_9
REMARK    8  A    between atoms: N_12  and  S_15
REMARK    9  A    between atoms: S_15  and  C_18
REMARK                            x       y       z     vdW  Elec       q    Type
REMARK                         _______ _______ _______ _____ _____    ______ ____
ROOT
ATOM      1  C   UNL     1      -1.399   1.874  -0.994  0.00  0.00    +0.077 C 
ATOM      2  C   UNL     1      -1.819   1.353  -2.370  0.00  0.00    +0.030 C 
ATOM      3  C   UNL     1      -3.159   1.983  -2.763  0.00  0.00    +0.110 C 
ATOM      4  N   UNL     1      -3.036   3.445  -2.683  0.00  0.00    -0.177 NA
ATOM      5  C   UNL     1      -2.553   4.046  -1.432  0.00  0.00    +0.110 C 
ATOM      6  C   UNL     1      -1.220   3.393  -1.054  0.00  0.00    +0.030 C 
ENDROOT
BRANCH   1   8
ATOM      7  N   UNL     1      -0.017  -0.109  -0.470  0.00  0.00    -0.316 N 
ATOM      8  C   UNL     1      -0.098   1.231  -0.589  0.00  0.00    +0.216 C 
ATOM      9  O   UNL     1       0.878   1.918  -0.374  0.00  0.00    -0.276 OA
ATOM     10  H   UNL     1      -0.798  -0.659  -0.641  0.00  0.00    +0.149 HD
BRANCH   7  11
ATOM     11  C   UNL     1       1.249  -0.735  -0.082  0.00  0.00    +0.093 C 
BRANCH  11  12
ATOM     12  C   UNL     1       1.033  -2.235   0.131  0.00  0.00    -0.021 C 
BRANCH  12  13
ATOM     13  C   UNL     1       2.348  -2.889   0.470  0.00  0.00    -0.057 A 
ATOM     14  C   UNL     1       2.893  -2.731   1.730  0.00  0.00    +0.002 A 
ATOM     15  C   UNL     1       4.097  -3.334   2.044  0.00  0.00    +0.003 A 
ATOM     16  C   UNL     1       4.761  -4.088   1.095  0.00  0.00    +0.038 A 
ATOM     17  C   UNL     1       4.218  -4.242  -0.170  0.00  0.00    +0.124 A 
ATOM     18  C   UNL     1       3.010  -3.642  -0.481  0.00  0.00    +0.040 A 
ATOM     19  F   UNL     1       4.867  -4.978  -1.099  0.00  0.00    -0.205 F 
ENDBRANCH  12  13
BRANCH  12  22
ATOM     20  C   UNL     1       0.147  -1.332   2.196  0.00  0.00    -0.096 C 
ATOM     21  C   UNL     1      -1.282  -2.622   0.727  0.00  0.00    -0.096 C 
ATOM     22  N   UNL     1       0.092  -2.465   1.248  0.00  0.00    +0.382 N 
ATOM     23  H   UNL     1       0.362  -3.325   1.740  0.00  0.00    -0.082 HD
ENDBRANCH  12  22
ENDBRANCH  11  12
ENDBRANCH   7  11
ENDBRANCH   1   8
BRANCH   4  24
ATOM     24  S   UNL     1      -3.434   4.398  -3.978  0.00  0.00    +0.061 S 
ATOM     25  O   UNL     1      -4.348   3.649  -4.767  0.00  0.00    -0.153 OA
ATOM     26  O   UNL     1      -3.752   5.681  -3.455  0.00  0.00    -0.153 OA
BRANCH  24  27
ATOM     27  C   UNL     1      -1.976   4.596  -4.947  0.00  0.00    +0.106 A 
ATOM     28  C   UNL     1      -1.690   3.697  -5.958  0.00  0.00    +0.029 A 
ATOM     29  C   UNL     1      -0.547   3.855  -6.717  0.00  0.00    +0.006 A 
ATOM     30  C   UNL     1       0.315   4.910  -6.468  0.00  0.00    -0.044 A 
ATOM     31  C   UNL     1       0.029   5.809  -5.457  0.00  0.00    -0.042 A 
ATOM     32  C   UNL     1      -1.121   5.652  -4.701  0.00  0.00    +0.032 A 
ATOM     33  C   UNL     1       1.113   6.862  -5.387  0.00  0.00    +0.036 C 
ATOM     34  C   UNL     1       1.858   6.766  -6.735  0.00  0.00    +0.009 C 
ATOM     35  C   UNL     1       1.611   5.298  -7.146  0.00  0.00    +0.036 C 
ENDBRANCH  24  27
ENDBRANCH   4  24
TORSDOF 7
