REMARK  Name = ZINC47164171
REMARK  13 active torsions:
REMARK  status: ('A' for Active; 'I' for Inactive)
REMARK    1  A    between atoms: C_1  and  C_2
REMARK    2  A    between atoms: C_2  and  C_3
REMARK    3  A    between atoms: C_2  and  N_13
REMARK    4  A    between atoms: C_7  and  O_9
REMARK    5  A    between atoms: O_9  and  C_10
REMARK    6  A    between atoms: C_14  and  C_16
REMARK    7  A    between atoms: C_16  and  C_17
REMARK    8  A    between atoms: C_16  and  N_18
REMARK    9  A    between atoms: C_19  and  O_21
REMARK   10  A    between atoms: O_21  and  C_22
REMARK   11  A    between atoms: C_22  and  C_23
REMARK   12  A    between atoms: C_22  and  C_24
REMARK   13  A    between atoms: C_22  and  C_25
REMARK                            x       y       z     vdW  Elec       q    Type
REMARK                         _______ _______ _______ _____ _____    ______ ____
ROOT
ATOM      1  N   UNL     1       0.688  -0.476  -1.203  0.00  0.00    -0.307 N 
ATOM      2  C   UNL     1       0.006  -0.608  -2.358  0.00  0.00    +0.234 C 
ATOM      3  O   UNL     1      -1.175  -0.336  -2.400  0.00  0.00    -0.274 OA
ATOM      4  H   UNL     1       1.632  -0.695  -1.170  0.00  0.00    +0.149 HD
ENDROOT
BRANCH   1   6
ATOM      5  C   UNL     1      -0.019   1.526   0.010  0.00  0.00    +0.033 C 
ATOM      6  C   UNL     1       0.002  -0.004   0.002  0.00  0.00    +0.100 C 
BRANCH   6   7
ATOM      7  C   UNL     1       0.731  -0.503   1.223  0.00  0.00    -0.024 A 
ATOM      8  C   UNL     1       2.114  -0.513   1.246  0.00  0.00    +0.005 A 
ATOM      9  C   UNL     1       2.785  -0.971   2.365  0.00  0.00    +0.004 A 
ATOM     10  C   UNL     1       2.076  -1.419   3.462  0.00  0.00    +0.046 A 
ATOM     11  C   UNL     1       0.689  -1.410   3.442  0.00  0.00    +0.127 A 
ATOM     12  C   UNL     1       0.017  -0.945   2.320  0.00  0.00    +0.051 A 
BRANCH  11  13
ATOM     13  O   UNL     1      -0.011  -1.851   4.520  0.00  0.00    -0.434 OA
BRANCH  13  14
ATOM     14  C   UNL     1       0.747  -2.310   5.641  0.00  0.00    +0.541 C 
ATOM     15  F   UNL     1       1.553  -3.385   5.251  0.00  0.00    -0.166 F 
ATOM     16  F   UNL     1       1.554  -1.270   6.116  0.00  0.00    -0.166 F 
ENDBRANCH  13  14
ENDBRANCH  11  13
ENDBRANCH   6   7
ENDBRANCH   1   6
BRANCH   2  17
ATOM     17  C   UNL     1       0.712  -1.094  -3.598  0.00  0.00    +0.159 C 
ATOM     18  C   UNL     1       1.849  -0.133  -3.948  0.00  0.00    +0.038 C 
BRANCH  17  19
ATOM     19  N   UNL     1      -0.240  -1.150  -4.711  0.00  0.00    -0.270 N 
ATOM     20  C   UNL     1      -0.021  -1.989  -5.743  0.00  0.00    +0.401 C 
ATOM     21  O   UNL     1       0.965  -2.699  -5.751  0.00  0.00    -0.226 OA
ATOM     22  H   UNL     1      -1.027  -0.584  -4.705  0.00  0.00    +0.153 HD
BRANCH  20  23
ATOM     23  O   UNL     1      -0.895  -2.041  -6.766  0.00  0.00    -0.445 OA
BRANCH  23  24
ATOM     24  C   UNL     1      -0.600  -2.952  -7.826  0.00  0.00    +0.107 C 
ATOM     25  C   UNL     1      -0.533  -4.376  -7.270  0.00  0.00    +0.055 C 
ATOM     26  C   UNL     1      -1.698  -2.871  -8.889  0.00  0.00    +0.055 C 
ATOM     27  C   UNL     1       0.746  -2.586  -8.454  0.00  0.00    +0.055 C 
ENDBRANCH  23  24
ENDBRANCH  20  23
ENDBRANCH  17  19
ENDBRANCH   2  17
TORSDOF 8
