REMARK  Name = ZINC12250144
REMARK  12 active torsions:
REMARK  status: ('A' for Active; 'I' for Inactive)
REMARK    1  A    between atoms: C_1  and  C_2
REMARK    2  A    between atoms: C_2  and  C_3
REMARK    3  A    between atoms: C_7  and  C_38
REMARK    4  A    between atoms: C_8  and  N_9
REMARK    5  A    between atoms: C_10  and  C_12
REMARK    6  A    between atoms: C_13  and  C_37
REMARK    7  A    between atoms: C_15  and  S_26
REMARK    8  A    between atoms: C_16  and  C_24
REMARK    9  A    between atoms: C_17  and  C_19
REMARK   10  A    between atoms: S_26  and  C_27
REMARK   11  A    between atoms: C_27  and  C_28
REMARK   12  A    between atoms: N_30  and  C_31
REMARK                            x       y       z     vdW  Elec       q    Type
REMARK                         _______ _______ _______ _____ _____    ______ ____
ROOT
ATOM      1  C   UNL     1      -1.307   3.559   1.888  0.00  0.00    +0.047 C 
ATOM      2  C   UNL     1      -2.187   2.547   1.842  0.00  0.00    +0.015 C 
ATOM      3  N   UNL     1      -2.852   2.139   2.966  0.00  0.00    -0.312 N 
ATOM      4  C   UNL     1      -2.391   2.499   4.212  0.00  0.00    +0.080 C 
ATOM      5  C   UNL     1      -1.512   3.527   4.352  0.00  0.00    +0.072 C 
ATOM      6  C   UNL     1      -1.025   4.304   3.162  0.00  0.00    +0.134 C 
ATOM      7  C   UNL     1      -2.441   1.844   0.533  0.00  0.00    +0.061 C 
ATOM      8  H   UNL     1      -3.758   1.522   2.875  0.00  0.00    +0.152 HD
ENDROOT
BRANCH   6   9
ATOM      9  C   UNL     1       0.461   4.523   3.286  0.00  0.00    +0.118 A 
ATOM     10  C   UNL     1       1.066   5.703   3.511  0.00  0.00    +0.045 A 
ATOM     11  C   UNL     1       2.456   5.449   3.557  0.00  0.00    +0.041 A 
ATOM     12  C   UNL     1       2.617   4.130   3.348  0.00  0.00    +0.195 A 
ATOM     13  O   UNL     1       1.405   3.574   3.185  0.00  0.00    -0.467 OA
ENDBRANCH   6   9
BRANCH   1  15
ATOM     14  N   UNL     1       0.163   5.029   0.701  0.00  0.00    -0.281 N 
ATOM     15  C   UNL     1      -0.629   3.939   0.704  0.00  0.00    +0.247 C 
ATOM     16  O   UNL     1      -0.763   3.280  -0.311  0.00  0.00    -0.270 OA
ATOM     17  H   UNL     1       0.341   5.583   1.635  0.00  0.00    +0.155 HD
BRANCH  14  23
ATOM     18  C   UNL     1       0.525   6.741  -0.963  0.00  0.00    -0.026 A 
ATOM     19  C   UNL     1       1.115   7.160  -2.139  0.00  0.00    +0.005 A 
ATOM     20  C   UNL     1       1.938   6.303  -2.845  0.00  0.00    +0.001 A 
ATOM     21  C   UNL     1       2.174   5.023  -2.377  0.00  0.00    +0.005 A 
ATOM     22  C   UNL     1       1.591   4.599  -1.199  0.00  0.00    -0.029 A 
ATOM     23  C   UNL     1       0.759   5.457  -0.490  0.00  0.00    +0.040 A 
ATOM     24  C   UNL     1       1.852   3.206  -0.686  0.00  0.00    +0.045 C 
BRANCH  18  26
ATOM     25  C   UNL     1       0.442   8.390   0.887  0.00  0.00    +0.009 C 
ATOM     26  C   UNL     1      -0.372   7.676  -0.194  0.00  0.00    +0.033 C 
ENDBRANCH  18  26
ENDBRANCH  14  23
ENDBRANCH   1  15
BRANCH   5  27
ATOM     27  C   UNL     1      -1.040   3.875   5.659  0.00  0.00    +0.098 C 
ATOM     28  N   UNL     1      -0.666   4.151   6.695  0.00  0.00    -0.191 NA
ENDBRANCH   5  27
BRANCH   4  29
ATOM     29  S   UNL     1      -2.944   1.621   5.637  0.00  0.00    -0.100 S 
BRANCH  29  30
ATOM     30  C   UNL     1      -4.051   0.420   4.856  0.00  0.00    +0.171 C 
BRANCH  30  31
ATOM     31  C   UNL     1      -4.657  -0.465   5.913  0.00  0.00    +0.223 C 
ATOM     32  O   UNL     1      -4.370  -0.301   7.080  0.00  0.00    -0.275 OA
ATOM     33  N   UNL     1      -5.520  -1.440   5.563  0.00  0.00    -0.312 N 
ATOM     34  H   UNL     1      -5.780  -1.589   4.505  0.00  0.00    +0.149 HD
BRANCH  33  35
ATOM     35  C   UNL     1      -6.110  -2.301   6.591  0.00  0.00    +0.073 C 
ATOM     36  C   UNL     1      -5.155  -3.457   6.897  0.00  0.00    +0.022 C 
ATOM     37  C   UNL     1      -5.772  -4.356   7.971  0.00  0.00    +0.002 C 
ATOM     38  C   UNL     1      -7.104  -4.914   7.466  0.00  0.00    +0.000 C 
ATOM     39  C   UNL     1      -8.058  -3.758   7.160  0.00  0.00    +0.002 C 
ATOM     40  C   UNL     1      -7.442  -2.859   6.086  0.00  0.00    +0.022 C 
ENDBRANCH  33  35
ENDBRANCH  30  31
ENDBRANCH  29  30
ENDBRANCH   4  29
TORSDOF 9
