REMARK  Name = ZINC02827217
REMARK  8 active torsions:
REMARK  status: ('A' for Active; 'I' for Inactive)
REMARK    1  A    between atoms: C_1  and  C_2
REMARK    2  A    between atoms: C_2  and  C_3
REMARK    3  A    between atoms: C_5  and  N_29
REMARK    4  A    between atoms: C_6  and  C_19
REMARK    5  A    between atoms: C_15  and  C_17
REMARK    6  A    between atoms: C_15  and  C_18
REMARK    7  A    between atoms: N_21  and  C_22
REMARK    8  A    between atoms: C_22  and  C_23
REMARK                            x       y       z     vdW  Elec       q    Type
REMARK                         _______ _______ _______ _____ _____    ______ ____
ROOT
ATOM      1  C   UNL     1       1.341  -1.695  -1.522  0.00  0.00    -0.024 A 
ATOM      2  C   UNL     1       1.173  -0.479  -0.826  0.00  0.00    +0.033 A 
ATOM      3  C   UNL     1      -0.023   0.036  -0.173  0.00  0.00    +0.054 A 
ATOM      4  C   UNL     1       0.051   1.259   0.453  0.00  0.00    +0.097 A 
ATOM      5  S   UNL     1       1.739   1.762   0.185  0.00  0.00    -0.062 S 
ATOM      6  C   UNL     1       2.311   0.359  -0.743  0.00  0.00    +0.111 A 
ATOM      7  N   UNL     1       3.471   0.042  -1.282  0.00  0.00    -0.244 NA
ATOM      8  C   UNL     1       3.652  -1.086  -1.940  0.00  0.00    +0.054 A 
ATOM      9  C   UNL     1       2.587  -1.989  -2.073  0.00  0.00    +0.043 A 
ATOM     10  C   UNL     1       2.782  -3.258  -2.795  0.00  0.00    +0.166 C 
ATOM     11  O   UNL     1       1.952  -4.142  -2.746  0.00  0.00    -0.292 OA
ATOM     12  C   UNL     1       4.054  -3.422  -3.600  0.00  0.00    +0.086 C 
ATOM     13  C   UNL     1       5.208  -2.869  -2.753  0.00  0.00    -0.022 C 
ATOM     14  C   UNL     1       5.004  -1.372  -2.536  0.00  0.00    +0.063 C 
ATOM     15  C   UNL     1       6.533  -3.103  -3.481  0.00  0.00    +0.011 C 
ATOM     16  C   UNL     1       5.235  -3.582  -1.400  0.00  0.00    +0.011 C 
ENDROOT
BRANCH   4  17
ATOM     17  C   UNL     1      -0.973   1.956   1.142  0.00  0.00    +0.253 C 
ATOM     18  O   UNL     1      -2.086   1.470   1.232  0.00  0.00    -0.270 OA
ATOM     19  N   UNL     1      -0.715   3.156   1.699  0.00  0.00    -0.308 N 
ATOM     20  H   UNL     1       0.172   3.543   1.628  0.00  0.00    +0.149 HD
BRANCH  19  21
ATOM     21  C   UNL     1      -1.774   3.876   2.411  0.00  0.00    +0.136 C 
BRANCH  21  22
ATOM     22  C   UNL     1      -1.221   5.201   2.942  0.00  0.00    +0.135 C 
ATOM     23  C   UNL     1      -2.328   5.966   3.693  0.00  0.00    +0.035 C 
ATOM     24  C   UNL     1      -1.756   6.156   5.119  0.00  0.00    +0.031 C 
ATOM     25  C   UNL     1      -0.234   5.983   4.885  0.00  0.00    +0.160 C 
ATOM     26  O   UNL     1      -0.163   4.947   3.882  0.00  0.00    -0.375 OA
ENDBRANCH  21  22
ENDBRANCH  19  21
ENDBRANCH   4  17
BRANCH   3  27
ATOM     27  N   UNL     1      -1.206  -0.688  -0.183  0.00  0.00    -0.356 N 
ATOM     28  H   UNL     1      -2.058  -0.224  -0.184  0.00  0.00    +0.142 HD
ATOM     29  H   UNL     1      -1.181  -1.657  -0.189  0.00  0.00    +0.142 HD
ENDBRANCH   3  27
BRANCH   1  31
ATOM     30  C   UNL     1       0.202  -3.643  -0.495  0.00  0.00    +0.009 C 
ATOM     31  C   UNL     1       0.193  -2.660  -1.668  0.00  0.00    +0.033 C 
ENDBRANCH   1  31
TORSDOF 5
