REMARK  Name = ZINC09086299
REMARK  16 active torsions:
REMARK  status: ('A' for Active; 'I' for Inactive)
REMARK    1  A    between atoms: C_1  and  C_2
REMARK    2  A    between atoms: C_2  and  O_3
REMARK    3  A    between atoms: O_3  and  C_4
REMARK    4  A    between atoms: C_7  and  C_10
REMARK    5  A    between atoms: C_12  and  C_23
REMARK    6  A    between atoms: C_13  and  O_22
REMARK    7  A    between atoms: N_16  and  C_17
REMARK    8  A    between atoms: C_17  and  C_18
REMARK    9  A    between atoms: C_18  and  C_19
REMARK   10  A    between atoms: C_19  and  N_65
REMARK   11  A    between atoms: C_20  and  N_65
REMARK   12  A    between atoms: C_21  and  N_65
REMARK   13  A    between atoms: C_23  and  C_25
REMARK   14  A    between atoms: C_28  and  O_32
REMARK   15  A    between atoms: C_30  and  C_31
REMARK   16  A    between atoms: O_32  and  C_33
REMARK                            x       y       z     vdW  Elec       q    Type
REMARK                         _______ _______ _______ _____ _____    ______ ____
ROOT
ATOM      1  C   UNL     1       1.505   3.241  -0.385  0.00  0.00    +0.144 C 
ATOM      2  C   UNL     1       1.264   1.762  -0.193  0.00  0.00    +0.071 C 
ATOM      3  C   UNL     1       2.477   1.162  -0.219  0.00  0.00    +0.188 C 
ATOM      4  C   UNL     1       3.521   2.187  -0.432  0.00  0.00    +0.282 C 
ATOM      5  O   UNL     1       4.713   1.963  -0.505  0.00  0.00    -0.267 OA
ATOM      6  N   UNL     1       2.957   3.405  -0.525  0.00  0.00    -0.284 N 
ENDROOT
BRANCH   1  10
ATOM      7  C   UNL     1      -0.476   4.608  -3.916  0.00  0.00    +0.121 A 
ATOM      8  C   UNL     1      -0.970   4.950  -2.666  0.00  0.00    +0.046 A 
ATOM      9  C   UNL     1      -0.328   4.507  -1.526  0.00  0.00    +0.009 A 
ATOM     10  C   UNL     1       0.807   3.723  -1.630  0.00  0.00    -0.022 A 
ATOM     11  C   UNL     1       1.304   3.385  -2.875  0.00  0.00    +0.009 A 
ATOM     12  C   UNL     1       0.662   3.821  -4.018  0.00  0.00    +0.046 A 
BRANCH   7  13
ATOM     13  O   UNL     1      -1.105   5.043  -5.039  0.00  0.00    -0.492 OA
BRANCH  13  15
ATOM     14  C   UNL     1      -1.379   5.232  -7.433  0.00  0.00    +0.048 C 
ATOM     15  C   UNL     1      -0.540   4.652  -6.292  0.00  0.00    +0.225 C 
ENDBRANCH  13  15
ENDBRANCH   7  13
ENDBRANCH   1  10
BRANCH   3  16
ATOM     16  O   UNL     1       2.699  -0.165  -0.077  0.00  0.00    -0.502 OA
ATOM     17  H   UNL     1       3.680  -0.347  -0.135  0.00  0.00    +0.292 HD
ENDBRANCH   3  16
BRANCH   2  18
ATOM     18  C   UNL     1      -0.033   1.104  -0.008  0.00  0.00    +0.195 C 
ATOM     19  O   UNL     1      -0.098  -0.110   0.043  0.00  0.00    -0.287 OA
BRANCH  18  20
ATOM     20  C   UNL     1      -1.261   1.914   0.110  0.00  0.00    +0.025 A 
ATOM     21  C   UNL     1      -2.155   1.993  -0.963  0.00  0.00    +0.015 A 
ATOM     22  C   UNL     1      -3.302   2.745  -0.846  0.00  0.00    +0.046 A 
ATOM     23  C   UNL     1      -3.567   3.434   0.332  0.00  0.00    +0.120 A 
ATOM     24  C   UNL     1      -2.678   3.364   1.398  0.00  0.00    +0.049 A 
ATOM     25  C   UNL     1      -1.532   2.609   1.292  0.00  0.00    -0.036 A 
ATOM     26  C   UNL     1      -0.569   2.533   2.450  0.00  0.00    +0.044 C 
BRANCH  23  27
ATOM     27  O   UNL     1      -4.697   4.179   0.440  0.00  0.00    -0.495 OA
ATOM     28  C   UNL     1      -5.566   4.208  -0.693  0.00  0.00    +0.277 C 
ENDBRANCH  23  27
ENDBRANCH  18  20
ENDBRANCH   2  18
BRANCH   6  29
ATOM     29  C   UNL     1       3.666   4.670  -0.732  0.00  0.00    +0.107 C 
BRANCH  29  30
ATOM     30  C   UNL     1       4.033   5.276   0.625  0.00  0.00    +0.000 C 
BRANCH  30  31
ATOM     31  C   UNL     1       4.774   6.597   0.409  0.00  0.00    -0.078 C 
BRANCH  31  34
ATOM     32  C   UNL     1       6.105   6.340   2.416  0.00  0.00    -0.097 C 
ATOM     33  C   UNL     1       5.624   8.552   1.557  0.00  0.00    -0.097 C 
ATOM     34  N   UNL     1       5.102   7.180   1.728  0.00  0.00    +0.376 N 
ATOM     35  H   UNL     1       4.249   7.215   2.298  0.00  0.00    -0.083 HD
ENDBRANCH  31  34
ENDBRANCH  30  31
ENDBRANCH  29  30
ENDBRANCH   6  29
TORSDOF 11
