REMARK  Name = ZINC31054281
REMARK  8 active torsions:
REMARK  status: ('A' for Active; 'I' for Inactive)
REMARK    1  A    between atoms: C_1  and  C_2
REMARK    2  A    between atoms: C_2  and  C_3
REMARK    3  A    between atoms: C_3  and  C_5
REMARK    4  A    between atoms: C_3  and  N_6
REMARK    5  A    between atoms: C_7  and  C_9
REMARK    6  A    between atoms: N_14  and  C_16
REMARK    7  A    between atoms: C_16  and  C_17
REMARK    8  A    between atoms: C_19  and  C_22
REMARK                            x       y       z     vdW  Elec       q    Type
REMARK                         _______ _______ _______ _____ _____    ______ ____
ROOT
ATOM      1  C   UNL     1       3.715   1.668   3.270  0.00  0.00    +0.058 C 
ATOM      2  C   UNL     1       4.258   1.831   1.848  0.00  0.00    +0.009 C 
ATOM      3  C   UNL     1       5.677   2.404   1.914  0.00  0.00    -0.018 C 
ATOM      4  C   UNL     1       6.558   1.476   2.753  0.00  0.00    -0.078 C 
ATOM      5  N   UNL     1       5.996   1.354   4.105  0.00  0.00    +0.386 N 
ATOM      6  C   UNL     1       4.653   0.762   4.070  0.00  0.00    -0.065 C 
ATOM      7  H   UNL     1       5.905   2.368   4.522  0.00  0.00    -0.081 HD
ENDROOT
BRANCH   1   9
ATOM      8  N   UNL     1       1.346   1.674   2.558  0.00  0.00    -0.313 N 
ATOM      9  C   UNL     1       2.342   1.049   3.216  0.00  0.00    +0.215 C 
ATOM     10  O   UNL     1       2.134  -0.013   3.765  0.00  0.00    -0.276 OA
ATOM     11  H   UNL     1       1.535   2.637   2.061  0.00  0.00    +0.149 HD
BRANCH   8  12
ATOM     12  C   UNL     1       0.011   1.072   2.506  0.00  0.00    +0.070 C 
ATOM     13  C   UNL     1      -0.772   1.460   3.762  0.00  0.00    +0.028 C 
BRANCH  12  15
ATOM     14  C   UNL     1      -0.013   1.086   0.008  0.00  0.00    +0.005 C 
ATOM     15  C   UNL     1      -0.729   1.579   1.267  0.00  0.00    +0.018 C 
ENDBRANCH  12  15
ENDBRANCH   8  12
ENDBRANCH   1   9
BRANCH   5  16
ATOM     16  C   UNL     1       6.890   0.583   4.979  0.00  0.00    +0.022 C 
BRANCH  16  17
ATOM     17  C   UNL     1       8.173   1.346   5.186  0.00  0.00    +0.211 A 
ATOM     18  N   UNL     1       8.415   2.217   6.133  0.00  0.00    -0.193 NA
ATOM     19  C   UNL     1       9.684   2.637   5.924  0.00  0.00    +0.203 A 
ATOM     20  N   UNL     1      10.129   2.009   4.867  0.00  0.00    -0.056 NA
ATOM     21  O   UNL     1       9.274   1.266   4.433  0.00  0.00    -0.340 OA
BRANCH  19  22
ATOM     22  C   UNL     1      10.429   3.629   6.738  0.00  0.00    +0.041 A 
ATOM     23  C   UNL     1       9.821   4.226   7.841  0.00  0.00    +0.014 A 
ATOM     24  C   UNL     1      10.520   5.144   8.598  0.00  0.00    +0.021 A 
ATOM     25  C   UNL     1      11.819   5.481   8.258  0.00  0.00    +0.042 A 
ATOM     26  C   UNL     1      12.426   4.896   7.160  0.00  0.00    +0.040 A 
ATOM     27  C   UNL     1      11.737   3.971   6.398  0.00  0.00    +0.053 A 
ATOM     28 CL   UNL     1      12.499   3.238   5.021  0.00  0.00    -0.083 Cl
ATOM     29 CL   UNL     1      12.690   6.641   9.211  0.00  0.00    -0.083 Cl
ENDBRANCH  19  22
ENDBRANCH  16  17
ENDBRANCH   5  16
TORSDOF 6
