REMARK  Name = ZINC27574742
REMARK  12 active torsions:
REMARK  status: ('A' for Active; 'I' for Inactive)
REMARK    1  A    between atoms: C_1  and  C_2
REMARK    2  A    between atoms: C_2  and  C_3
REMARK    3  A    between atoms: C_3  and  C_5
REMARK    4  A    between atoms: C_3  and  N_6
REMARK    5  A    between atoms: N_6  and  S_7
REMARK    6  A    between atoms: S_7  and  C_10
REMARK    7  A    between atoms: C_13  and  C_16
REMARK    8  A    between atoms: N_18  and  C_19
REMARK    9  A    between atoms: C_19  and  C_20
REMARK   10  A    between atoms: C_20  and  C_22
REMARK   11  A    between atoms: C_20  and  N_27
REMARK   12  A    between atoms: C_30  and  C_33
REMARK                            x       y       z     vdW  Elec       q    Type
REMARK                         _______ _______ _______ _____ _____    ______ ____
ROOT
ATOM      1  C   UNL     1       2.636  -1.433   5.088  0.00  0.00    +0.244 C 
ATOM      2  O   UNL     1       1.870  -1.681   5.999  0.00  0.00    -0.270 OA
ATOM      3  N   UNL     1       3.949  -1.712   5.216  0.00  0.00    -0.313 N 
ATOM      4  H   UNL     1       4.641  -1.487   4.392  0.00  0.00    +0.149 HD
ENDROOT
BRANCH   1   8
ATOM      5  C   UNL     1       1.175   0.311   1.501  0.00  0.00    +0.105 A 
ATOM      6  C   UNL     1       2.522   0.021   1.627  0.00  0.00    +0.029 A 
ATOM      7  C   UNL     1       3.004  -0.540   2.792  0.00  0.00    +0.015 A 
ATOM      8  C   UNL     1       2.128  -0.826   3.840  0.00  0.00    +0.037 A 
ATOM      9  C   UNL     1       0.769  -0.536   3.703  0.00  0.00    +0.015 A 
ATOM     10  C   UNL     1       0.301   0.030   2.536  0.00  0.00    +0.029 A 
BRANCH   5  11
ATOM     11  S   UNL     1       0.570   1.034   0.013  0.00  0.00    +0.059 S 
ATOM     12  O   UNL     1      -0.809   0.700  -0.069  0.00  0.00    -0.153 OA
ATOM     13  O   UNL     1       1.497   0.697  -1.010  0.00  0.00    -0.153 OA
BRANCH  11  14
ATOM     14  N   UNL     1       0.648   2.678   0.200  0.00  0.00    -0.187 NA
ATOM     15  H   UNL     1      -0.278   3.243   0.381  0.00  0.00    +0.148 HD
BRANCH  14  16
ATOM     16  C   UNL     1       1.949   3.337   0.341  0.00  0.00    +0.073 C 
ATOM     17  C   UNL     1       2.270   3.519   1.825  0.00  0.00    +0.025 C 
BRANCH  16  19
ATOM     18  C   UNL     1       1.707   4.516  -1.849  0.00  0.00    +0.005 C 
ATOM     19  C   UNL     1       1.904   4.705  -0.343  0.00  0.00    +0.017 C 
ENDBRANCH  16  19
ENDBRANCH  14  16
ENDBRANCH  11  14
ENDBRANCH   5  11
ENDBRANCH   1   8
BRANCH   3  20
ATOM     20  C   UNL     1       4.452  -2.313   6.453  0.00  0.00    +0.094 C 
BRANCH  20  21
ATOM     21  C   UNL     1       5.938  -2.639   6.293  0.00  0.00    -0.013 C 
BRANCH  21  22
ATOM     22  N   UNL     1       6.127  -3.503   5.120  0.00  0.00    +0.386 N 
ATOM     23  C   UNL     1       7.515  -3.973   5.030  0.00  0.00    -0.078 C 
ATOM     24  C   UNL     1       7.710  -4.746   3.724  0.00  0.00    -0.015 C 
ATOM     25  C   UNL     1       6.746  -5.935   3.692  0.00  0.00    -0.018 C 
ATOM     26  C   UNL     1       5.310  -5.423   3.837  0.00  0.00    -0.015 C 
ATOM     27  C   UNL     1       5.185  -4.630   5.139  0.00  0.00    -0.078 C 
ATOM     28  C   UNL     1       6.893  -6.677   2.362  0.00  0.00    +0.007 C 
ATOM     29  H   UNL     1       5.916  -2.905   4.221  0.00  0.00    -0.081 HD
ENDBRANCH  21  22
BRANCH  21  30
ATOM     30  C   UNL     1       6.432  -3.352   7.526  0.00  0.00    -0.022 A 
ATOM     31  C   UNL     1       7.124  -2.855   8.580  0.00  0.00    +0.009 A 
ATOM     32  C   UNL     1       7.475  -3.705   9.613  0.00  0.00    +0.008 A 
ATOM     33  C   UNL     1       7.115  -5.010   9.541  0.00  0.00    +0.045 A 
ATOM     34  S   UNL     1       6.248  -5.069   7.981  0.00  0.00    -0.103 S 
ENDBRANCH  21  30
ENDBRANCH  20  21
ENDBRANCH   3  20
TORSDOF 9
