REMARK  Name = ZINC38847415
REMARK  10 active torsions:
REMARK  status: ('A' for Active; 'I' for Inactive)
REMARK    1  A    between atoms: C_1  and  C_2
REMARK    2  A    between atoms: C_5  and  S_8
REMARK    3  A    between atoms: S_8  and  N_11
REMARK    4  A    between atoms: C_14  and  C_17
REMARK    5  A    between atoms: N_19  and  C_20
REMARK    6  A    between atoms: C_20  and  C_21
REMARK    7  A    between atoms: C_21  and  C_22
REMARK    8  A    between atoms: C_22  and  N_23
REMARK    9  A    between atoms: N_23  and  C_24
REMARK   10  A    between atoms: N_23  and  C_25
REMARK                            x       y       z     vdW  Elec       q    Type
REMARK                         _______ _______ _______ _____ _____    ______ ____
ROOT
ATOM      1  C   UNL     1       4.513  -8.123  -0.089  0.00  0.00    +0.224 C 
ATOM      2  O   UNL     1       4.229  -8.914  -0.963  0.00  0.00    -0.275 OA
ATOM      3  N   UNL     1       5.394  -8.468   0.872  0.00  0.00    -0.250 N 
ATOM      4  C   UNL     1       5.650  -7.599   1.921  0.00  0.00    +0.168 A 
ATOM      5  N   UNL     1       6.543  -7.704   2.877  0.00  0.00    -0.221 NA
ATOM      6  C   UNL     1       6.683  -6.772   3.845  0.00  0.00    +0.115 A 
ATOM      7  C   UNL     1       7.599  -6.763   4.925  0.00  0.00    +0.150 A 
ATOM      8  C   UNL     1       7.608  -5.731   5.828  0.00  0.00    +0.040 A 
ATOM      9  C   UNL     1       6.727  -4.664   5.717  0.00  0.00    +0.004 A 
ATOM     10  C   UNL     1       5.819  -4.640   4.675  0.00  0.00    +0.017 A 
ATOM     11  C   UNL     1       5.803  -5.670   3.766  0.00  0.00    +0.044 A 
ATOM     12  S   UNL     1       4.852  -6.048   2.313  0.00  0.00    -0.052 S 
ATOM     13  F   UNL     1       8.473  -7.784   5.067  0.00  0.00    -0.203 F 
ENDROOT
BRANCH   1  17
ATOM     14  N   UNL     1       1.749  -4.939  -0.470  0.00  0.00    -0.177 NA
ATOM     15  C   UNL     1       2.814  -4.987  -1.482  0.00  0.00    +0.110 C 
ATOM     16  C   UNL     1       3.423  -6.393  -1.491  0.00  0.00    +0.030 C 
ATOM     17  C   UNL     1       3.883  -6.754  -0.077  0.00  0.00    +0.078 C 
ATOM     18  C   UNL     1       2.679  -6.755   0.869  0.00  0.00    +0.030 C 
ATOM     19  C   UNL     1       2.063  -5.349   0.906  0.00  0.00    +0.110 C 
BRANCH  14  20
ATOM     20  S   UNL     1       0.226  -4.428  -0.871  0.00  0.00    +0.061 S 
ATOM     21  O   UNL     1      -0.658  -4.996   0.085  0.00  0.00    -0.153 OA
ATOM     22  O   UNL     1       0.080  -4.645  -2.268  0.00  0.00    -0.153 OA
BRANCH  20  27
ATOM     23  C   UNL     1       0.068   1.545  -0.031  0.00  0.00    +0.044 C 
ATOM     24  C   UNL     1       0.108   0.053  -0.241  0.00  0.00    -0.050 A 
ATOM     25  C   UNL     1       0.481  -0.463  -1.468  0.00  0.00    +0.005 A 
ATOM     26  C   UNL     1       0.518  -1.831  -1.660  0.00  0.00    +0.029 A 
ATOM     27  C   UNL     1       0.181  -2.684  -0.625  0.00  0.00    +0.105 A 
ATOM     28  C   UNL     1      -0.192  -2.168   0.602  0.00  0.00    +0.029 A 
ATOM     29  C   UNL     1      -0.224  -0.800   0.795  0.00  0.00    +0.005 A 
ENDBRANCH  20  27
ENDBRANCH  14  20
ENDBRANCH   1  17
BRANCH   3  30
ATOM     30  C   UNL     1       6.080  -9.761   0.807  0.00  0.00    +0.114 C 
BRANCH  30  31
ATOM     31  C   UNL     1       7.385  -9.606   0.024  0.00  0.00    +0.001 C 
BRANCH  31  32
ATOM     32  C   UNL     1       8.102 -10.957  -0.044  0.00  0.00    -0.078 C 
BRANCH  32  33
ATOM     33  N   UNL     1       9.355 -10.809  -0.795  0.00  0.00    +0.376 N 
ATOM     34  C   UNL     1      10.100 -12.074  -0.759  0.00  0.00    -0.097 C 
ATOM     35  C   UNL     1       9.051 -10.459  -2.190  0.00  0.00    -0.097 C 
ATOM     36  H   UNL     1       9.912 -10.078  -0.379  0.00  0.00    -0.083 HD
ENDBRANCH  32  33
ENDBRANCH  31  32
ENDBRANCH  30  31
ENDBRANCH   3  30
TORSDOF 7
