REMARK  Name = ZINC16666486
REMARK  7 active torsions:
REMARK  status: ('A' for Active; 'I' for Inactive)
REMARK    1  A    between atoms: C_1  and  C_2
REMARK    2  A    between atoms: C_7  and  N_8
REMARK    3  A    between atoms: N_8  and  S_9
REMARK    4  A    between atoms: S_9  and  C_12
REMARK    5  A    between atoms: C_15  and  N_19
REMARK    6  A    between atoms: C_17  and  C_18
REMARK    7  A    between atoms: C_22  and  C_28
REMARK                            x       y       z     vdW  Elec       q    Type
REMARK                         _______ _______ _______ _____ _____    ______ ____
ROOT
ATOM      1  C   UNL     1       1.750  -4.708  -1.255  0.00  0.00    +0.111 A 
ATOM      2  C   UNL     1       2.791  -3.818  -1.061  0.00  0.00    +0.031 A 
ATOM      3  C   UNL     1       2.533  -2.467  -0.945  0.00  0.00    +0.027 A 
ATOM      4  C   UNL     1       1.225  -2.003  -1.012  0.00  0.00    +0.060 A 
ATOM      5  C   UNL     1       0.183  -2.899  -1.207  0.00  0.00    +0.030 A 
ATOM      6  C   UNL     1       0.448  -4.249  -1.328  0.00  0.00    -0.022 A 
ATOM      7  C   UNL     1      -0.682  -5.223  -1.540  0.00  0.00    +0.046 C 
ENDROOT
BRANCH   4   8
ATOM      8  N   UNL     1       0.960  -0.634  -0.889  0.00  0.00    -0.144 N 
ATOM      9  C   UNL     1      -0.194  -0.088  -0.476  0.00  0.00    +0.243 C 
ATOM     10  O   UNL     1      -1.124  -0.788  -0.135  0.00  0.00    -0.273 OA
ATOM     11  C   UNL     1      -0.306   1.406  -0.445  0.00  0.00    +0.097 C 
ATOM     12  C   UNL     1       1.122   2.012  -0.454  0.00  0.00    +0.201 C 
ATOM     13  S   UNL     1       2.026   0.611  -1.232  0.00  0.00    +0.053 S 
ATOM     14  O   UNL     1       3.213   0.310  -0.510  0.00  0.00    -0.155 OA
ATOM     15  O   UNL     1       2.032   0.733  -2.647  0.00  0.00    -0.155 OA
ATOM     16  C   UNL     1      -1.042   1.841   0.824  0.00  0.00    +0.019 C 
ENDBRANCH   4   8
BRANCH   1  17
ATOM     17  S   UNL     1       2.085  -6.432  -1.409  0.00  0.00    +0.073 S 
ATOM     18  O   UNL     1       1.409  -6.874  -2.578  0.00  0.00    -0.150 OA
ATOM     19  O   UNL     1       3.486  -6.591  -1.232  0.00  0.00    -0.150 OA
BRANCH  17  20
ATOM     20  N   UNL     1       1.357  -7.188  -0.128  0.00  0.00    -0.216 N 
ATOM     21  H   UNL     1       0.603  -7.779  -0.278  0.00  0.00    +0.174 HD
BRANCH  20  28
ATOM     22  C   UNL     1       1.299  -9.370   1.697  0.00  0.00    +0.046 C 
ATOM     23  C   UNL     1       1.820  -8.012   2.093  0.00  0.00    -0.028 A 
ATOM     24  C   UNL     1       2.289  -7.798   3.374  0.00  0.00    +0.005 A 
ATOM     25  C   UNL     1       2.767  -6.553   3.738  0.00  0.00    +0.000 A 
ATOM     26  C   UNL     1       2.779  -5.518   2.821  0.00  0.00    +0.002 A 
ATOM     27  C   UNL     1       2.316  -5.726   1.537  0.00  0.00    +0.025 A 
ATOM     28  C   UNL     1       1.830  -6.975   1.169  0.00  0.00    +0.051 A 
ENDBRANCH  20  28
ENDBRANCH  17  20
ENDBRANCH   1  17
TORSDOF 4
