REMARK  Name = ZINC39193459
REMARK  7 active torsions:
REMARK  status: ('A' for Active; 'I' for Inactive)
REMARK    1  A    between atoms: C_1  and  C_2
REMARK    2  A    between atoms: C_6  and  C_24
REMARK    3  A    between atoms: C_16  and  C_17
REMARK    4  A    between atoms: C_24  and  O_26
REMARK    5  A    between atoms: O_26  and  C_27
REMARK    6  A    between atoms: C_27  and  C_28
REMARK    7  A    between atoms: C_33  and  C_36
REMARK                            x       y       z     vdW  Elec       q    Type
REMARK                         _______ _______ _______ _____ _____    ______ ____
ROOT
ATOM      1  C   UNL     1      -0.075   1.347  -0.372  0.00  0.00    +0.008 C 
ATOM      2  C   UNL     1      -0.097  -0.165  -0.143  0.00  0.00    -0.005 C 
ATOM      3  C   UNL     1      -1.528  -0.618   0.132  0.00  0.00    +0.041 C 
ATOM      4  C   UNL     1      -1.578  -2.076   0.495  0.00  0.00    -0.007 A 
ATOM      5  C   UNL     1      -2.769  -2.770   0.319  0.00  0.00    +0.073 A 
ATOM      6  C   UNL     1      -2.790  -4.186   0.686  0.00  0.00    +0.015 A 
ATOM      7  C   UNL     1      -3.945  -4.962   0.542  0.00  0.00    +0.011 A 
ATOM      8  C   UNL     1      -3.920  -6.278   0.898  0.00  0.00    +0.001 A 
ATOM      9  C   UNL     1      -2.759  -6.860   1.402  0.00  0.00    +0.002 A 
ATOM     10  C   UNL     1      -1.618  -6.134   1.554  0.00  0.00    +0.028 A 
ATOM     11  C   UNL     1      -1.605  -4.772   1.199  0.00  0.00    +0.072 A 
ATOM     12  N   UNL     1      -0.504  -4.035   1.336  0.00  0.00    -0.247 NA
ATOM     13  C   UNL     1      -0.458  -2.754   1.008  0.00  0.00    +0.072 A 
ATOM     14  C   UNL     1       0.816  -2.022   1.184  0.00  0.00    -0.021 C 
ATOM     15  C   UNL     1       1.962  -2.674   1.443  0.00  0.00    +0.013 C 
ATOM     16  C   UNL     1       0.786  -0.513   1.063  0.00  0.00    +0.041 C 
ENDROOT
BRANCH  15  17
ATOM     17  C   UNL     1       3.180  -1.918   1.782  0.00  0.00    -0.025 A 
ATOM     18  C   UNL     1       3.087  -0.717   2.491  0.00  0.00    +0.008 A 
ATOM     19  C   UNL     1       4.231  -0.015   2.806  0.00  0.00    +0.001 A 
ATOM     20  C   UNL     1       5.470  -0.497   2.421  0.00  0.00    +0.000 A 
ATOM     21  C   UNL     1       5.571  -1.685   1.719  0.00  0.00    +0.001 A 
ATOM     22  C   UNL     1       4.436  -2.401   1.402  0.00  0.00    +0.008 A 
ENDBRANCH  15  17
BRANCH   5  23
ATOM     23  C   UNL     1      -3.972  -2.101  -0.220  0.00  0.00    +0.341 C 
ATOM     24  O   UNL     1      -4.172  -2.083  -1.418  0.00  0.00    -0.245 OA
BRANCH  23  25
ATOM     25  O   UNL     1      -4.846  -1.511   0.617  0.00  0.00    -0.452 OA
BRANCH  25  26
ATOM     26  C   UNL     1      -5.987  -0.883   0.028  0.00  0.00    +0.328 C 
BRANCH  26  27
ATOM     27  C   UNL     1      -6.845  -0.282   1.110  0.00  0.00    +0.253 C 
ATOM     28  O   UNL     1      -6.513  -0.381   2.273  0.00  0.00    -0.272 OA
ATOM     29  N   UNL     1      -7.982   0.366   0.787  0.00  0.00    -0.299 N 
ATOM     30  C   UNL     1      -8.400   0.489  -0.616  0.00  0.00    +0.108 C 
ATOM     31  C   UNL     1      -9.835  -0.031  -0.750  0.00  0.00    +0.032 C 
ATOM     32  C   UNL     1     -10.736   0.708   0.242  0.00  0.00    +0.078 C 
ATOM     33  C   UNL     1     -10.256   0.437   1.669  0.00  0.00    +0.032 C 
ATOM     34  C   UNL     1      -8.829   0.958   1.831  0.00  0.00    +0.108 C 
BRANCH  32  35
ATOM     35  C   UNL     1     -12.155   0.222   0.089  0.00  0.00    +0.214 C 
ATOM     36  O   UNL     1     -12.419  -0.631  -0.732  0.00  0.00    -0.276 OA
ATOM     37  N   UNL     1     -13.130   0.735   0.865  0.00  0.00    -0.329 N 
ATOM     38  H   UNL     1     -12.919   1.417   1.521  0.00  0.00    +0.145 HD
ATOM     39  H   UNL     1     -14.043   0.423   0.766  0.00  0.00    +0.145 HD
ENDBRANCH  32  35
ENDBRANCH  26  27
ENDBRANCH  25  26
ENDBRANCH  23  25
ENDBRANCH   5  23
TORSDOF 6
