REMARK  Name = ZINC12937225
REMARK  8 active torsions:
REMARK  status: ('A' for Active; 'I' for Inactive)
REMARK    1  A    between atoms: C_1  and  C_2
REMARK    2  A    between atoms: C_2  and  C_3
REMARK    3  A    between atoms: C_3  and  C_5
REMARK    4  A    between atoms: C_3  and  N_12
REMARK    5  A    between atoms: C_8  and  C_11
REMARK    6  A    between atoms: N_12  and  S_13
REMARK    7  A    between atoms: S_13  and  C_16
REMARK    8  A    between atoms: C_26  and  C_28
REMARK                            x       y       z     vdW  Elec       q    Type
REMARK                         _______ _______ _______ _____ _____    ______ ____
ROOT
ATOM      1  S   UNL     1      -0.865   0.815   2.591  0.00  0.00    +0.059 S 
ATOM      2  O   UNL     1      -1.585   1.461   3.633  0.00  0.00    -0.153 OA
ATOM      3  O   UNL     1      -1.201  -0.485   2.126  0.00  0.00    -0.153 OA
ENDROOT
BRANCH   1   4
ATOM      4  C   UNL     1       0.817   0.744   3.110  0.00  0.00    +0.106 A 
ATOM      5  C   UNL     1       1.674  -0.184   2.548  0.00  0.00    +0.030 A 
ATOM      6  C   UNL     1       2.993  -0.237   2.952  0.00  0.00    +0.026 A 
ATOM      7  C   UNL     1       3.456   0.635   3.931  0.00  0.00    +0.040 A 
ATOM      8  C   UNL     1       2.596   1.563   4.496  0.00  0.00    -0.024 A 
ATOM      9  C   UNL     1       1.276   1.613   4.082  0.00  0.00    +0.034 A 
ATOM     10  C   UNL     1       3.064   2.528   5.554  0.00  0.00    +0.038 C 
ATOM     11  C   UNL     1       4.336   2.010   6.225  0.00  0.00    +0.024 C 
ATOM     12  C   UNL     1       5.359   1.652   5.139  0.00  0.00    +0.114 C 
ATOM     13  N   UNL     1       4.796   0.558   4.336  0.00  0.00    -0.271 N 
ATOM     14  C   UNL     1       5.555  -0.502   3.994  0.00  0.00    +0.217 C 
ATOM     15  O   UNL     1       5.101  -1.365   3.273  0.00  0.00    -0.276 OA
ATOM     16  C   UNL     1       6.967  -0.615   4.508  0.00  0.00    +0.109 C 
ENDBRANCH   1   4
BRANCH   1  17
ATOM     17  N   UNL     1      -0.931   1.819   1.277  0.00  0.00    -0.183 NA
ATOM     18  H   UNL     1      -1.440   2.644   1.321  0.00  0.00    +0.149 HD
BRANCH  17  19
ATOM     19  C   UNL     1      -0.219   1.463   0.047  0.00  0.00    +0.106 C 
BRANCH  19  20
ATOM     20  C   UNL     1      -1.161   0.752  -0.890  0.00  0.00    -0.029 A 
ATOM     21  C   UNL     1      -2.470   1.180  -1.012  0.00  0.00    +0.005 A 
ATOM     22  C   UNL     1      -3.332   0.530  -1.875  0.00  0.00    +0.003 A 
ATOM     23  C   UNL     1      -2.889  -0.554  -2.609  0.00  0.00    -0.050 A 
ATOM     24  C   UNL     1      -1.581  -0.986  -2.483  0.00  0.00    +0.003 A 
ATOM     25  C   UNL     1      -0.718  -0.333  -1.624  0.00  0.00    +0.005 A 
ATOM     26  C   UNL     1      -3.830  -1.266  -3.546  0.00  0.00    +0.044 C 
ENDBRANCH  19  20
BRANCH  19  28
ATOM     27  C   UNL     1       1.361   3.386   0.270  0.00  0.00    +0.006 C 
ATOM     28  C   UNL     1       0.305   2.734  -0.625  0.00  0.00    +0.022 C 
ENDBRANCH  19  28
ENDBRANCH  17  19
ENDBRANCH   1  17
TORSDOF 5
