REMARK  Name = ZINC02072514
REMARK  6 active torsions:
REMARK  status: ('A' for Active; 'I' for Inactive)
REMARK    1  A    between atoms: C_1  and  C_2
REMARK    2  A    between atoms: C_2  and  C_4
REMARK    3  A    between atoms: C_2  and  N_16
REMARK    4  A    between atoms: C_4  and  N_5
REMARK    5  A    between atoms: N_8  and  C_9
REMARK    6  A    between atoms: N_19  and  C_20
REMARK                            x       y       z     vdW  Elec       q    Type
REMARK                         _______ _______ _______ _____ _____    ______ ____
ROOT
ATOM      1  C   UNL     1      -0.981   2.179   1.347  0.00  0.00    +0.029 C 
ATOM      2  C   UNL     1      -0.125   1.707   0.170  0.00  0.00    +0.088 C 
ENDROOT
BRANCH   2   3
ATOM      3  N   UNL     1      -0.746   2.134  -1.087  0.00  0.00    -0.295 N 
ATOM      4  C   UNL     1      -0.504   3.367  -1.573  0.00  0.00    +0.304 C 
ATOM      5  O   UNL     1       0.230   4.126  -0.969  0.00  0.00    -0.253 OA
ATOM      6  N   UNL     1      -1.075   3.760  -2.729  0.00  0.00    -0.269 N 
ATOM      7  H   UNL     1      -1.331   1.528  -1.569  0.00  0.00    +0.151 HD
ATOM      8  H   UNL     1      -1.718   3.184  -3.173  0.00  0.00    +0.156 HD
BRANCH   6   9
ATOM      9  C   UNL     1      -0.741   4.998  -3.290  0.00  0.00    +0.035 A 
ATOM     10  C   UNL     1      -1.692   5.721  -3.996  0.00  0.00    +0.025 A 
ATOM     11  C   UNL     1      -1.361   6.945  -4.544  0.00  0.00    +0.022 A 
ATOM     12  C   UNL     1      -0.079   7.445  -4.399  0.00  0.00    +0.041 A 
ATOM     13  C   UNL     1       0.873   6.724  -3.700  0.00  0.00    +0.022 A 
ATOM     14  C   UNL     1       0.545   5.502  -3.146  0.00  0.00    +0.025 A 
ATOM     15 CL   UNL     1       0.336   8.981  -5.095  0.00  0.00    -0.084 Cl
ENDBRANCH   6   9
ENDBRANCH   2   3
BRANCH   2  16
ATOM     16  C   UNL     1      -0.021   0.181   0.195  0.00  0.00    +0.127 C 
BRANCH  16  17
ATOM     17  N   UNL     1       0.696  -0.280  -0.997  0.00  0.00    -0.297 N 
ATOM     18  C   UNL     1       0.907  -1.597  -1.189  0.00  0.00    +0.304 C 
ATOM     19  O   UNL     1       0.503  -2.403  -0.374  0.00  0.00    -0.253 OA
ATOM     20  N   UNL     1       1.567  -2.020  -2.285  0.00  0.00    -0.269 N 
ATOM     21  H   UNL     1       1.018   0.363  -1.648  0.00  0.00    +0.150 HD
ATOM     22  H   UNL     1       1.831  -1.384  -2.969  0.00  0.00    +0.156 HD
BRANCH  20  23
ATOM     23  C   UNL     1       1.873  -3.378  -2.438  0.00  0.00    +0.035 A 
ATOM     24  C   UNL     1       3.061  -3.760  -3.047  0.00  0.00    +0.025 A 
ATOM     25  C   UNL     1       3.362  -5.100  -3.191  0.00  0.00    +0.022 A 
ATOM     26  C   UNL     1       2.476  -6.062  -2.739  0.00  0.00    +0.041 A 
ATOM     27  C   UNL     1       1.289  -5.684  -2.137  0.00  0.00    +0.022 A 
ATOM     28  C   UNL     1       0.985  -4.345  -1.985  0.00  0.00    +0.025 A 
ATOM     29 CL   UNL     1       2.855  -7.745  -2.928  0.00  0.00    -0.084 Cl
ENDBRANCH  20  23
ENDBRANCH  16  17
ENDBRANCH   2  16
TORSDOF 5
