REMARK  Name = ZINC63258948
REMARK  8 active torsions:
REMARK  status: ('A' for Active; 'I' for Inactive)
REMARK    1  A    between atoms: C_7  and  C_10
REMARK    2  A    between atoms: C_10  and  C_11
REMARK    3  A    between atoms: C_11  and  N_12
REMARK    4  A    between atoms: C_14  and  C_25
REMARK    5  A    between atoms: C_15  and  C_22
REMARK    6  A    between atoms: C_16  and  C_20
REMARK    7  A    between atoms: C_17  and  N_19
REMARK    8  A    between atoms: C_22  and  C_23
REMARK                            x       y       z     vdW  Elec       q    Type
REMARK                         _______ _______ _______ _____ _____    ______ ____
ROOT
ATOM      1  N   UNL     1      -0.458  -4.798  -1.460  0.00  0.00    -0.328 N 
ATOM      2  C   UNL     1      -0.819  -5.394  -2.651  0.00  0.00    +0.139 A 
ATOM      3  C   UNL     1      -1.704  -6.490  -2.640  0.00  0.00    +0.097 A 
ATOM      4  C   UNL     1      -2.063  -7.086  -3.852  0.00  0.00    +0.008 A 
ATOM      5  C   UNL     1      -1.525  -6.566  -5.031  0.00  0.00    +0.097 A 
ATOM      6  C   UNL     1      -0.647  -5.467  -4.957  0.00  0.00    +0.136 A 
ATOM      7  N   UNL     1      -0.334  -4.926  -3.790  0.00  0.00    -0.215 NA
ATOM      8  H   UNL     1      -0.810  -5.136  -0.622  0.00  0.00    +0.147 HD
ENDROOT
BRANCH   6   9
ATOM      9  N   UNL     1      -0.109  -4.945  -6.116  0.00  0.00    -0.342 N 
ATOM     10  H   UNL     1      -0.337  -5.335  -6.975  0.00  0.00    +0.144 HD
ATOM     11  H   UNL     1       0.496  -4.188  -6.072  0.00  0.00    +0.144 HD
ENDBRANCH   6   9
BRANCH   5  12
ATOM     12  C   UNL     1      -1.861  -7.141  -6.298  0.00  0.00    +0.103 C 
ATOM     13  N   UNL     1      -2.128  -7.598  -7.303  0.00  0.00    -0.191 NA
ENDBRANCH   5  12
BRANCH   3  14
ATOM     14  C   UNL     1      -2.228  -6.988  -1.404  0.00  0.00    +0.103 C 
ATOM     15  N   UNL     1      -2.644  -7.382  -0.423  0.00  0.00    -0.191 NA
ENDBRANCH   3  14
BRANCH   1  16
ATOM     16  C   UNL     1       0.457  -3.653  -1.462  0.00  0.00    +0.107 C 
BRANCH  16  17
ATOM     17  C   UNL     1       0.691  -3.186  -0.024  0.00  0.00    +0.052 C 
BRANCH  17  24
ATOM     18  C   UNL     1      -0.016   1.348   0.009  0.00  0.00    +0.001 A 
ATOM     19  C   UNL     1       1.166   2.101   0.002  0.00  0.00    +0.002 A 
ATOM     20  C   UNL     1       2.391   1.535  -0.013  0.00  0.00    +0.026 A 
ATOM     21  C   UNL     1       2.529   0.120  -0.022  0.00  0.00    +0.043 A 
ATOM     22  N   UNL     1       3.587  -0.654  -0.037  0.00  0.00    -0.380 N 
ATOM     23  C   UNL     1       3.143  -2.053  -0.041  0.00  0.00    +0.144 C 
ATOM     24  C   UNL     1       1.631  -2.008  -0.025  0.00  0.00    -0.040 C 
ATOM     25  C   UNL     1       1.295  -0.698  -0.014  0.00  0.00    -0.001 A 
ATOM     26  C   UNL     1       0.002  -0.004   0.002  0.00  0.00    +0.010 A 
ATOM     27  H   UNL     1       4.509  -0.353  -0.045  0.00  0.00    +0.160 HD
ENDBRANCH  17  24
ENDBRANCH  16  17
ENDBRANCH   1  16
BRANCH   4  28
ATOM     28  C   UNL     1      -3.006  -8.261  -3.885  0.00  0.00    +0.156 C 
BRANCH  28  29
ATOM     29  C   UNL     1      -4.391  -7.776  -4.004  0.00  0.00    +0.067 C 
ATOM     30  N   UNL     1      -5.459  -7.401  -4.096  0.00  0.00    -0.196 NA
ENDBRANCH  28  29
ENDBRANCH   4  28
TORSDOF 8
