REMARK  Name = ZINC67101882
REMARK  8 active torsions:
REMARK  status: ('A' for Active; 'I' for Inactive)
REMARK    1  A    between atoms: C_1  and  C_2
REMARK    2  A    between atoms: C_2  and  C_3
REMARK    3  A    between atoms: C_3  and  S_4
REMARK    4  A    between atoms: S_4  and  N_7
REMARK    5  A    between atoms: N_7  and  C_8
REMARK    6  A    between atoms: N_16  and  N_17
REMARK    7  A    between atoms: C_18  and  C_20
REMARK    8  A    between atoms: C_21  and  C_25
REMARK                            x       y       z     vdW  Elec       q    Type
REMARK                         _______ _______ _______ _____ _____    ______ ____
ROOT
ATOM      1  C   UNL     1       1.023  -2.428   3.921  0.00  0.00    +0.079 C 
ATOM      2  C   UNL     1       1.596  -1.100   4.422  0.00  0.00    +0.039 C 
ATOM      3  C   UNL     1       0.977  -0.761   5.781  0.00  0.00    +0.111 C 
ATOM      4  N   UNL     1       1.190  -1.893   6.693  0.00  0.00    -0.284 N 
ATOM      5  C   UNL     1       0.757  -3.232   6.271  0.00  0.00    +0.111 C 
ATOM      6  C   UNL     1       1.379  -3.543   4.906  0.00  0.00    +0.039 C 
ATOM      7  C   UNL     1       1.771  -1.707   7.895  0.00  0.00    +0.319 C 
ATOM      8  O   UNL     1       2.211  -0.614   8.194  0.00  0.00    -0.251 OA
ATOM      9  N   UNL     1       1.865  -2.732   8.764  0.00  0.00    -0.218 N 
ATOM     10  H   UNL     1       1.581  -3.621   8.499  0.00  0.00    +0.174 HD
ENDROOT
BRANCH   9  11
ATOM     11  N   UNL     1       2.374  -2.515  10.051  0.00  0.00    -0.229 N 
ATOM     12  C   UNL     1       2.563  -3.556  10.886  0.00  0.00    +0.267 C 
ATOM     13  O   UNL     1       2.292  -4.685  10.522  0.00  0.00    -0.268 OA
ATOM     14  H   UNL     1       2.591  -1.615  10.342  0.00  0.00    +0.173 HD
BRANCH  12  15
ATOM     15  C   UNL     1       3.096  -3.329  12.233  0.00  0.00    +0.078 A 
ATOM     16  C   UNL     1       3.367  -4.250  13.232  0.00  0.00    -0.031 A 
ATOM     17  C   UNL     1       3.868  -3.732  14.403  0.00  0.00    +0.011 A 
ATOM     18  C   UNL     1       4.058  -2.393  14.502  0.00  0.00    +0.046 A 
ATOM     19  S   UNL     1       3.571  -1.796  13.009  0.00  0.00    -0.092 S 
ATOM     20  C   UNL     1       3.128  -5.727  13.048  0.00  0.00    +0.045 C 
ENDBRANCH  12  15
ENDBRANCH   9  11
BRANCH   1  21
ATOM     21  N   UNL     1       1.588  -2.739   2.606  0.00  0.00    -0.191 NA
ATOM     22  H   UNL     1       2.444  -3.191   2.540  0.00  0.00    +0.148 HD
BRANCH  21  23
ATOM     23  S   UNL     1       0.767  -2.317   1.231  0.00  0.00    +0.030 S 
ATOM     24  O   UNL     1      -0.544  -2.831   1.420  0.00  0.00    -0.158 OA
ATOM     25  O   UNL     1       1.582  -2.785   0.164  0.00  0.00    -0.158 OA
BRANCH  23  26
ATOM     26  C   UNL     1       0.736  -0.503   1.244  0.00  0.00    +0.185 C 
BRANCH  26  28
ATOM     27  C   UNL     1      -0.032   1.532   0.016  0.00  0.00    +0.005 C 
ATOM     28  C   UNL     1      -0.006   0.003   0.005  0.00  0.00    +0.021 C 
ENDBRANCH  26  28
ENDBRANCH  23  26
ENDBRANCH  21  23
ENDBRANCH   1  21
TORSDOF 6
