REMARK  Name = ZINC14456385
REMARK  4 active torsions:
REMARK  status: ('A' for Active; 'I' for Inactive)
REMARK    1  A    between atoms: C_1  and  C_2
REMARK    2  A    between atoms: C_5  and  N_24
REMARK    3  A    between atoms: C_9  and  C_18
REMARK    4  A    between atoms: C_21  and  C_23
REMARK                            x       y       z     vdW  Elec       q    Type
REMARK                         _______ _______ _______ _____ _____    ______ ____
ROOT
ATOM      1  C   UNL     1       1.685  -1.213  -0.098  0.00  0.00    +0.045 C 
ATOM      2  C   UNL     1       1.270   0.233  -0.190  0.00  0.00    -0.029 A 
ATOM      3  C   UNL     1       2.229   1.206  -0.365  0.00  0.00    +0.007 A 
ATOM      4  C   UNL     1       1.863   2.537  -0.452  0.00  0.00    +0.033 A 
ATOM      5  C   UNL     1       0.529   2.886  -0.355  0.00  0.00    +0.132 A 
ATOM      6  C   UNL     1      -0.436   1.920  -0.172  0.00  0.00    +0.011 A 
ATOM      7  C   UNL     1      -0.082   0.570  -0.098  0.00  0.00    +0.037 A 
ATOM      8  N   UNL     1      -0.997  -0.471   0.041  0.00  0.00    -0.336 N 
ATOM      9  C   UNL     1      -2.405  -0.093   0.239  0.00  0.00    +0.112 C 
ATOM     10  C   UNL     1      -2.679   1.094  -0.661  0.00  0.00    +0.029 C 
ATOM     11  C   UNL     1      -1.867   2.266  -0.027  0.00  0.00    +0.051 C 
ATOM     12  C   UNL     1      -2.467   3.469  -0.655  0.00  0.00    -0.023 C 
ATOM     13  C   UNL     1      -3.732   3.198  -0.961  0.00  0.00    -0.030 C 
ATOM     14  C   UNL     1      -4.062   1.751  -0.585  0.00  0.00    +0.033 C 
ATOM     15  H   UNL     1      -0.696  -1.126   0.748  0.00  0.00    +0.147 HD
ENDROOT
BRANCH   9  16
ATOM     16  C   UNL     1      -2.637   0.289   1.679  0.00  0.00    +0.010 A 
ATOM     17  C   UNL     1      -3.761   0.161   2.426  0.00  0.00    +0.013 A 
ATOM     18  C   UNL     1      -3.743   0.584   3.742  0.00  0.00    +0.011 A 
ATOM     19  C   UNL     1      -2.602   1.114   4.246  0.00  0.00    -0.013 A 
ATOM     20  S   UNL     1      -1.500   1.020   2.845  0.00  0.00    -0.097 S 
ATOM     21  C   UNL     1      -2.332   1.641   5.632  0.00  0.00    +0.051 C 
ENDBRANCH   9  16
BRANCH   5  22
ATOM     22  N   UNL     1       0.135   4.310  -0.449  0.00  0.00    +0.057 N 
ATOM     23  O   UNL     1       0.514   4.987  -1.388  0.00  0.00    -0.126 OA
ATOM     24  O   UNL     1      -0.570   4.805   0.413  0.00  0.00    -0.126 OA
ENDBRANCH   5  22
TORSDOF 2
