REMARK  Name = ZINC63830714
REMARK  10 active torsions:
REMARK  status: ('A' for Active; 'I' for Inactive)
REMARK    1  A    between atoms: C_1  and  C_2
REMARK    2  A    between atoms: C_13  and  C_15
REMARK    3  A    between atoms: C_15  and  C_16
REMARK    4  A    between atoms: N_18  and  C_19
REMARK    5  A    between atoms: C_19  and  C_20
REMARK    6  A    between atoms: C_20  and  C_22
REMARK    7  A    between atoms: C_20  and  C_31
REMARK    8  A    between atoms: C_25  and  N_28
REMARK    9  A    between atoms: N_28  and  C_29
REMARK   10  A    between atoms: N_28  and  C_30
REMARK                            x       y       z     vdW  Elec       q    Type
REMARK                         _______ _______ _______ _____ _____    ______ ____
ROOT
ATOM      1  C   UNL     1       0.206  -2.693  -6.004  0.00  0.00    +0.064 C 
ENDROOT
BRANCH   1   2
ATOM      2  C   UNL     1       0.211  -4.200  -6.022  0.00  0.00    -0.033 C 
ATOM      3  C   UNL     1      -0.825  -5.013  -6.327  0.00  0.00    -0.000 A 
ATOM      4  C   UNL     1      -2.215  -4.749  -6.719  0.00  0.00    +0.010 A 
ATOM      5  C   UNL     1      -3.037  -5.794  -6.966  0.00  0.00    +0.001 A 
ATOM      6  C   UNL     1      -2.596  -7.120  -6.857  0.00  0.00    +0.002 A 
ATOM      7  C   UNL     1      -1.334  -7.443  -6.503  0.00  0.00    +0.026 A 
ATOM      8  C   UNL     1      -0.384  -6.423  -6.220  0.00  0.00    +0.043 A 
ATOM      9  N   UNL     1       0.876  -6.478  -5.862  0.00  0.00    -0.380 N 
ATOM     10  C   UNL     1       1.379  -5.109  -5.707  0.00  0.00    +0.145 C 
ATOM     11  H   UNL     1       1.390  -7.289  -5.726  0.00  0.00    +0.160 HD
ENDBRANCH   1   2
BRANCH   1  12
ATOM     12  C   UNL     1       1.219  -2.175  -6.992  0.00  0.00    -0.039 A 
ATOM     13  C   UNL     1       2.553  -2.512  -6.852  0.00  0.00    +0.006 A 
ATOM     14  C   UNL     1       3.485  -2.039  -7.755  0.00  0.00    +0.023 A 
ATOM     15  C   UNL     1       3.080  -1.225  -8.806  0.00  0.00    +0.029 A 
ATOM     16  C   UNL     1       1.740  -0.889  -8.944  0.00  0.00    +0.023 A 
ATOM     17  C   UNL     1       0.812  -1.370  -8.040  0.00  0.00    +0.006 A 
BRANCH  15  18
ATOM     18  N   UNL     1       4.020  -0.745  -9.721  0.00  0.00    -0.336 N 
ATOM     19  C   UNL     1       5.447  -0.995  -9.505  0.00  0.00    +0.129 C 
ATOM     20  C   UNL     1       3.578   0.009 -10.897  0.00  0.00    +0.129 C 
ENDBRANCH  15  18
ENDBRANCH   1  12
BRANCH   1  21
ATOM     21  C   UNL     1       0.562  -2.198  -4.601  0.00  0.00    +0.116 C 
BRANCH  21  24
ATOM     22  C   UNL     1      -0.385  -2.272  -2.357  0.00  0.00    +0.215 C 
ATOM     23  O   UNL     1       0.574  -1.643  -1.964  0.00  0.00    -0.276 OA
ATOM     24  N   UNL     1      -0.486  -2.600  -3.660  0.00  0.00    -0.314 N 
ATOM     25  H   UNL     1      -1.254  -3.104  -3.975  0.00  0.00    +0.149 HD
BRANCH  22  26
ATOM     26  C   UNL     1      -1.464  -2.686  -1.389  0.00  0.00    +0.123 C 
BRANCH  26  39
ATOM     27  C   UNL     1       0.044   1.464   0.045  0.00  0.00    +0.109 C 
ATOM     28  C   UNL     1       0.051  -0.043   0.025  0.00  0.00    +0.217 C 
ATOM     29  O   UNL     1       1.105  -0.644   0.003  0.00  0.00    -0.276 OA
ATOM     30  N   UNL     1      -1.112  -0.723   0.033  0.00  0.00    -0.270 N 
ATOM     31  C   UNL     1      -2.320  -0.037   0.053  0.00  0.00    +0.079 C 
ATOM     32  C   UNL     1      -3.377  -0.576   0.672  0.00  0.00    +0.023 C 
ATOM     33  C   UNL     1      -3.246  -1.906   1.298  0.00  0.00    -0.019 A 
ATOM     34  C   UNL     1      -4.221  -2.380   2.175  0.00  0.00    +0.008 A 
ATOM     35  C   UNL     1      -4.067  -3.621   2.760  0.00  0.00    +0.001 A 
ATOM     36  C   UNL     1      -2.951  -4.390   2.480  0.00  0.00    +0.000 A 
ATOM     37  C   UNL     1      -1.983  -3.926   1.605  0.00  0.00    +0.006 A 
ATOM     38  C   UNL     1      -2.130  -2.694   1.008  0.00  0.00    -0.019 A 
ATOM     39  C   UNL     1      -1.107  -2.191   0.014  0.00  0.00    +0.120 C 
ENDBRANCH  26  39
ENDBRANCH  22  26
ENDBRANCH  21  24
ENDBRANCH   1  21
TORSDOF 7
