REMARK  Name = ZINC46081394
REMARK  7 active torsions:
REMARK  status: ('A' for Active; 'I' for Inactive)
REMARK    1  A    between atoms: C_1  and  C_2
REMARK    2  A    between atoms: C_5  and  C_9
REMARK    3  A    between atoms: C_6  and  C_8
REMARK    4  A    between atoms: C_10  and  C_22
REMARK    5  A    between atoms: N_18  and  C_21
REMARK    6  A    between atoms: C_25  and  O_28
REMARK    7  A    between atoms: O_28  and  C_29
REMARK                            x       y       z     vdW  Elec       q    Type
REMARK                         _______ _______ _______ _____ _____    ______ ____
ROOT
ATOM      1  C   UNL     1       0.114  -4.280   0.170  0.00  0.00    +0.078 C 
ATOM      2  C   UNL     1       0.346  -4.967   1.326  0.00  0.00    +0.005 C 
ATOM      3  C   UNL     1       0.628  -6.381   0.885  0.00  0.00    +0.173 C 
ATOM      4  C   UNL     1      -0.334  -7.384   1.470  0.00  0.00    +0.255 C 
ATOM      5  O   UNL     1      -0.750  -7.279   2.743  0.00  0.00    -0.272 OA
ATOM      6  N   UNL     1      -0.752  -8.361   0.705  0.00  0.00    -0.127 NA
ATOM      7  C   UNL     1      -0.419  -8.517  -0.585  0.00  0.00    +0.334 C 
ATOM      8  O   UNL     1      -0.619  -9.590  -1.123  0.00  0.00    -0.250 OA
ATOM      9  N   UNL     1       0.137  -7.507  -1.309  0.00  0.00    -0.244 N 
ATOM     10  C   UNL     1       0.329  -6.328  -0.610  0.00  0.00    +0.122 C 
ATOM     11  N   UNL     1       0.141  -5.098  -0.915  0.00  0.00    -0.235 NA
ATOM     12  C   UNL     1       0.525  -7.655  -2.713  0.00  0.00    +0.141 C 
ENDROOT
BRANCH   1  17
ATOM     13  C   UNL     1      -0.882   1.385  -0.077  0.00  0.00    +0.044 C 
ATOM     14  C   UNL     1      -0.622  -0.098  -0.012  0.00  0.00    -0.050 A 
ATOM     15  C   UNL     1       0.548  -0.568   0.560  0.00  0.00    +0.004 A 
ATOM     16  C   UNL     1       0.792  -1.924   0.623  0.00  0.00    +0.010 A 
ATOM     17  C   UNL     1      -0.142  -2.823   0.107  0.00  0.00    +0.004 A 
ATOM     18  C   UNL     1      -1.319  -2.343  -0.468  0.00  0.00    -0.041 A 
ATOM     19  C   UNL     1      -1.555  -0.985  -0.520  0.00  0.00    +0.007 A 
ATOM     20  C   UNL     1      -2.334  -3.307  -1.028  0.00  0.00    +0.044 C 
ENDBRANCH   1  17
BRANCH   2  21
ATOM     21  C   UNL     1       0.326  -4.444   2.699  0.00  0.00    -0.018 A 
ATOM     22  C   UNL     1       1.496  -4.441   3.467  0.00  0.00    +0.012 A 
ATOM     23  C   UNL     1       1.471  -3.950   4.753  0.00  0.00    +0.046 A 
ATOM     24  C   UNL     1       0.288  -3.457   5.289  0.00  0.00    +0.120 A 
ATOM     25  C   UNL     1      -0.876  -3.458   4.531  0.00  0.00    +0.046 A 
ATOM     26  C   UNL     1      -0.862  -3.941   3.241  0.00  0.00    +0.012 A 
BRANCH  24  27
ATOM     27  O   UNL     1       0.269  -2.974   6.559  0.00  0.00    -0.495 OA
ATOM     28  C   UNL     1      -0.981  -2.483   7.048  0.00  0.00    +0.277 C 
ENDBRANCH  24  27
ENDBRANCH   2  21
TORSDOF 3
