REMARK  Name = ZINC59238659
REMARK  13 active torsions:
REMARK  status: ('A' for Active; 'I' for Inactive)
REMARK    1  A    between atoms: C_1  and  C_2
REMARK    2  A    between atoms: C_2  and  O_3
REMARK    3  A    between atoms: O_3  and  C_4
REMARK    4  A    between atoms: C_7  and  C_12
REMARK    5  A    between atoms: C_9  and  O_10
REMARK    6  A    between atoms: O_10  and  C_11
REMARK    7  A    between atoms: C_14  and  C_21
REMARK    8  A    between atoms: C_15  and  C_20
REMARK    9  A    between atoms: N_23  and  C_24
REMARK   10  A    between atoms: C_26  and  O_33
REMARK   11  A    between atoms: C_29  and  O_30
REMARK   12  A    between atoms: O_30  and  C_31
REMARK   13  A    between atoms: O_33  and  C_34
REMARK                            x       y       z     vdW  Elec       q    Type
REMARK                         _______ _______ _______ _____ _____    ______ ____
ROOT
ATOM      1  C   UNL     1      -1.729  -6.498   0.173  0.00  0.00    +0.139 C 
ATOM      2  C   UNL     1      -1.526  -6.632  -1.322  0.00  0.00    +0.056 C 
ATOM      3  C   UNL     1      -0.444  -7.316  -1.751  0.00  0.00    +0.017 C 
ATOM      4  N   UNL     1       0.437  -7.868  -0.865  0.00  0.00    -0.300 N 
ATOM      5  C   UNL     1       0.306  -7.781   0.464  0.00  0.00    +0.135 C 
ATOM      6  S   UNL     1       1.484  -8.521   1.463  0.00  0.00    -0.019 S 
ATOM      7  N   UNL     1      -0.722  -7.130   1.042  0.00  0.00    -0.315 N 
ATOM      8  C   UNL     1      -0.204  -7.473  -3.230  0.00  0.00    +0.061 C 
ATOM      9  H   UNL     1       1.200  -8.351  -1.220  0.00  0.00    +0.154 HD
ATOM     10  H   UNL     1      -0.797  -7.079   2.008  0.00  0.00    +0.149 HD
ENDROOT
BRANCH   1  14
ATOM     11  C   UNL     1      -1.851  -2.329   1.119  0.00  0.00    +0.162 A 
ATOM     12  C   UNL     1      -0.634  -2.966   0.938  0.00  0.00    +0.050 A 
ATOM     13  C   UNL     1      -0.598  -4.314   0.632  0.00  0.00    +0.009 A 
ATOM     14  C   UNL     1      -1.774  -5.029   0.507  0.00  0.00    -0.019 A 
ATOM     15  C   UNL     1      -2.992  -4.400   0.686  0.00  0.00    +0.055 A 
ATOM     16  C   UNL     1      -3.035  -3.050   0.998  0.00  0.00    +0.162 A 
BRANCH  16  17
ATOM     17  O   UNL     1      -4.232  -2.431   1.181  0.00  0.00    -0.491 OA
ATOM     18  C   UNL     1      -5.399  -3.255   1.155  0.00  0.00    +0.277 C 
ENDBRANCH  16  17
BRANCH  11  19
ATOM     19  O   UNL     1      -1.888  -1.004   1.420  0.00  0.00    -0.489 OA
BRANCH  19  21
ATOM     20  C   UNL     1      -0.876   1.144   1.869  0.00  0.00    +0.048 C 
ATOM     21  C   UNL     1      -0.634  -0.327   1.528  0.00  0.00    +0.226 C 
ENDBRANCH  19  21
ENDBRANCH  11  19
ENDBRANCH   1  14
BRANCH   2  22
ATOM     22  C   UNL     1      -2.440  -6.059  -2.240  0.00  0.00    +0.248 C 
ATOM     23  O   UNL     1      -3.510  -6.600  -2.452  0.00  0.00    -0.270 OA
ATOM     24  N   UNL     1      -2.126  -4.914  -2.878  0.00  0.00    -0.279 N 
ATOM     25  H   UNL     1      -1.247  -4.520  -2.763  0.00  0.00    +0.155 HD
BRANCH  24  26
ATOM     26  C   UNL     1      -3.069  -4.293  -3.707  0.00  0.00    +0.079 A 
ATOM     27  C   UNL     1      -4.415  -4.602  -3.581  0.00  0.00    +0.074 A 
ATOM     28  C   UNL     1      -5.346  -3.986  -4.403  0.00  0.00    +0.140 A 
ATOM     29  C   UNL     1      -4.932  -3.061  -5.351  0.00  0.00    +0.086 A 
ATOM     30  C   UNL     1      -3.590  -2.751  -5.478  0.00  0.00    +0.071 A 
ATOM     31  C   UNL     1      -2.657  -3.359  -4.655  0.00  0.00    +0.143 A 
ATOM     32 CL   UNL     1      -6.101  -2.291  -6.378  0.00  0.00    -0.080 Cl
BRANCH  31  33
ATOM     33  O   UNL     1      -1.338  -3.049  -4.777  0.00  0.00    -0.493 OA
ATOM     34  C   UNL     1      -0.998  -2.004  -5.689  0.00  0.00    +0.277 C 
ENDBRANCH  31  33
BRANCH  28  35
ATOM     35  O   UNL     1      -6.667  -4.289  -4.280  0.00  0.00    -0.494 OA
ATOM     36  C   UNL     1      -7.022  -5.251  -3.284  0.00  0.00    +0.277 C 
ENDBRANCH  28  35
ENDBRANCH  24  26
ENDBRANCH   2  22
TORSDOF 8
