REMARK  Name = ZINC38581348
REMARK  5 active torsions:
REMARK  status: ('A' for Active; 'I' for Inactive)
REMARK    1  A    between atoms: C_7  and  C_10
REMARK    2  A    between atoms: N_11  and  N_12
REMARK    3  A    between atoms: C_23  and  S_28
REMARK    4  A    between atoms: C_25  and  N_27
REMARK    5  A    between atoms: S_28  and  C_31
REMARK                            x       y       z     vdW  Elec       q    Type
REMARK                         _______ _______ _______ _____ _____    ______ ____
ROOT
ATOM      1  N   UNL     1       0.087  -5.445  -0.022  0.00  0.00    -0.186 N 
ATOM      2  C   UNL     1      -1.285  -5.556  -0.191  0.00  0.00    +0.166 A 
ATOM      3  C   UNL     1      -1.667  -6.886  -0.429  0.00  0.00    +0.111 A 
ATOM      4  N   UNL     1      -2.926  -7.206  -0.616  0.00  0.00    -0.245 NA
ATOM      5  C   UNL     1      -3.869  -6.258  -0.580  0.00  0.00    +0.090 A 
ATOM      6  C   UNL     1      -5.224  -6.573  -0.776  0.00  0.00    +0.030 A 
ATOM      7  C   UNL     1      -6.160  -5.586  -0.734  0.00  0.00    +0.002 A 
ATOM      8  C   UNL     1      -5.794  -4.262  -0.499  0.00  0.00    +0.002 A 
ATOM      9  C   UNL     1      -4.492  -3.919  -0.305  0.00  0.00    +0.030 A 
ATOM     10  C   UNL     1      -3.496  -4.912  -0.341  0.00  0.00    +0.091 A 
ATOM     11  N   UNL     1      -2.210  -4.604  -0.155  0.00  0.00    -0.227 NA
ATOM     12  C   UNL     1      -0.422  -7.746  -0.417  0.00  0.00    +0.225 C 
ATOM     13  C   UNL     1       0.725  -6.757  -0.150  0.00  0.00    +0.195 C 
ENDROOT
BRANCH  13  14
ATOM     14  N   UNL     1       1.416  -7.110   1.097  0.00  0.00    -0.309 NA
ATOM     15  H   UNL     1       2.213  -6.511   1.251  0.00  0.00    +0.120 HD
ATOM     16  H   UNL     1       0.783  -7.080   1.883  0.00  0.00    +0.120 HD
ENDBRANCH  13  14
BRANCH  12  17
ATOM     17  S   UNL     1      -0.522  -8.986   0.903  0.00  0.00    +0.015 S 
ATOM     18  O   UNL     1       0.580  -9.880   0.818  0.00  0.00    -0.168 OA
ATOM     19  O   UNL     1      -0.856  -8.363   2.136  0.00  0.00    -0.168 OA
BRANCH  17  20
ATOM     20  C   UNL     1      -1.929  -9.966   0.499  0.00  0.00    +0.126 A 
ATOM     21  C   UNL     1      -1.998 -11.091  -0.255  0.00  0.00    +0.035 A 
ATOM     22  C   UNL     1      -3.225 -11.700  -0.439  0.00  0.00    +0.009 A 
ATOM     23  C   UNL     1      -4.323 -11.154   0.139  0.00  0.00    +0.047 A 
ATOM     24  S   UNL     1      -3.633  -9.739   0.981  0.00  0.00    -0.078 S 
ENDBRANCH  17  20
ENDBRANCH  12  17
BRANCH   1  26
ATOM     25  C   UNL     1       2.025  -4.325   0.238  0.00  0.00    +0.136 C 
ATOM     26  N   UNL     1       0.714  -4.341   0.209  0.00  0.00    -0.185 NA
BRANCH  25  33
ATOM     27  C   UNL     1       6.443  -3.374   0.605  0.00  0.00    +0.001 A 
ATOM     28  C   UNL     1       6.700  -2.061   1.007  0.00  0.00    +0.002 A 
ATOM     29  C   UNL     1       5.699  -1.181   1.255  0.00  0.00    +0.026 A 
ATOM     30  C   UNL     1       4.348  -1.588   1.107  0.00  0.00    +0.043 A 
ATOM     31  N   UNL     1       3.216  -0.936   1.285  0.00  0.00    -0.380 N 
ATOM     32  C   UNL     1       2.091  -1.830   0.994  0.00  0.00    +0.150 C 
ATOM     33  C   UNL     1       2.702  -3.158   0.603  0.00  0.00    +0.000 C 
ATOM     34  C   UNL     1       4.083  -2.973   0.684  0.00  0.00    +0.004 A 
ATOM     35  C   UNL     1       5.176  -3.833   0.443  0.00  0.00    +0.010 A 
ATOM     36  H   UNL     1       3.139  -0.010   1.563  0.00  0.00    +0.160 HD
ENDBRANCH  25  33
ENDBRANCH   1  26
TORSDOF 5
