REMARK  Name = ZINC47687781
REMARK  8 active torsions:
REMARK  status: ('A' for Active; 'I' for Inactive)
REMARK    1  A    between atoms: C_1  and  C_2
REMARK    2  A    between atoms: C_2  and  C_3
REMARK    3  A    between atoms: C_2  and  C_4
REMARK    4  A    between atoms: C_8  and  N_13
REMARK    5  A    between atoms: C_14  and  C_16
REMARK    6  A    between atoms: C_16  and  C_17
REMARK    7  A    between atoms: C_17  and  C_19
REMARK    8  A    between atoms: C_17  and  N_24
REMARK                            x       y       z     vdW  Elec       q    Type
REMARK                         _______ _______ _______ _____ _____    ______ ____
ROOT
ATOM      1  N   UNL     1      -6.493  -3.143  -1.161  0.00  0.00    -0.285 N 
ATOM      2  C   UNL     1      -7.667  -3.316  -0.521  0.00  0.00    +0.219 C 
ATOM      3  O   UNL     1      -7.873  -2.750   0.532  0.00  0.00    -0.275 OA
ATOM      4  H   UNL     1      -6.357  -3.533  -2.039  0.00  0.00    +0.155 HD
ENDROOT
BRANCH   1   9
ATOM      5  C   UNL     1      -2.871  -0.702   2.708  0.00  0.00    +0.199 A 
ATOM      6  N   UNL     1      -3.891  -1.506   2.698  0.00  0.00    -0.213 NA
ATOM      7  C   UNL     1      -4.295  -1.686   1.411  0.00  0.00    +0.111 A 
ATOM      8  C   UNL     1      -5.316  -2.427   0.815  0.00  0.00    +0.055 A 
ATOM      9  C   UNL     1      -5.470  -2.400  -0.559  0.00  0.00    +0.036 A 
ATOM     10  C   UNL     1      -4.611  -1.637  -1.347  0.00  0.00    +0.027 A 
ATOM     11  C   UNL     1      -3.600  -0.902  -0.766  0.00  0.00    +0.050 A 
ATOM     12  C   UNL     1      -3.434  -0.920   0.611  0.00  0.00    +0.155 A 
ATOM     13  O   UNL     1      -2.567  -0.320   1.458  0.00  0.00    -0.439 OA
BRANCH   5  15
ATOM     14  C   UNL     1      -0.671  -0.681   3.852  0.00  0.00    +0.017 C 
ATOM     15  C   UNL     1      -2.138  -0.256   3.947  0.00  0.00    +0.069 C 
ATOM     16  C   UNL     1      -2.220   1.267   4.069  0.00  0.00    +0.017 C 
ENDBRANCH   5  15
ENDBRANCH   1   9
BRANCH   2  17
ATOM     17  C   UNL     1      -8.723  -4.212  -1.114  0.00  0.00    +0.123 C 
BRANCH  17  18
ATOM     18  C   UNL     1      -9.947  -4.234  -0.196  0.00  0.00    +0.120 C 
BRANCH  18  19
ATOM     19  N   UNL     1     -10.550  -2.900  -0.154  0.00  0.00    -0.292 N 
ATOM     20  C   UNL     1     -11.004  -2.329  -1.288  0.00  0.00    +0.298 C 
ATOM     21  O   UNL     1     -10.912  -2.922  -2.346  0.00  0.00    -0.253 OA
ATOM     22  N   UNL     1     -11.558  -1.101  -1.250  0.00  0.00    -0.313 N 
ATOM     23  H   UNL     1     -10.623  -2.426   0.689  0.00  0.00    +0.151 HD
ATOM     24  H   UNL     1     -11.631  -0.628  -0.406  0.00  0.00    +0.146 HD
ATOM     25  H   UNL     1     -11.884  -0.691  -2.066  0.00  0.00    +0.146 HD
ENDBRANCH  18  19
BRANCH  18  26
ATOM     26  C   UNL     1     -10.954  -5.224  -0.724  0.00  0.00    +0.010 A 
ATOM     27  C   UNL     1     -11.201  -6.492  -0.314  0.00  0.00    +0.013 A 
ATOM     28  C   UNL     1     -12.184  -7.223  -0.952  0.00  0.00    +0.008 A 
ATOM     29  C   UNL     1     -12.872  -6.652  -1.970  0.00  0.00    +0.045 A 
ATOM     30  S   UNL     1     -12.135  -5.027  -2.048  0.00  0.00    -0.100 S 
ENDBRANCH  18  26
ENDBRANCH  17  18
ENDBRANCH   2  17
TORSDOF 6
