REMARK  Name = ZINC13022186
REMARK  15 active torsions:
REMARK  status: ('A' for Active; 'I' for Inactive)
REMARK    1  A    between atoms: C_1  and  C_2
REMARK    2  A    between atoms: C_2  and  C_3
REMARK    3  A    between atoms: C_3  and  C_4
REMARK    4  A    between atoms: C_4  and  N_5
REMARK    5  A    between atoms: N_5  and  C_6
REMARK    6  A    between atoms: C_7  and  N_18
REMARK    7  A    between atoms: N_8  and  C_15
REMARK    8  A    between atoms: C_15  and  C_16
REMARK    9  A    between atoms: C_16  and  C_17
REMARK   10  A    between atoms: C_19  and  C_21
REMARK   11  A    between atoms: C_21  and  S_22
REMARK   12  A    between atoms: S_22  and  C_23
REMARK   13  A    between atoms: C_24  and  C_31
REMARK   14  A    between atoms: C_25  and  C_30
REMARK   15  A    between atoms: C_27  and  C_29
REMARK                            x       y       z     vdW  Elec       q    Type
REMARK                         _______ _______ _______ _____ _____    ______ ____
ROOT
ATOM      1  N   UNL     1      -2.555   2.679   6.342  0.00  0.00    -0.264 N 
ATOM      2  C   UNL     1      -1.667   2.421   5.360  0.00  0.00    +0.230 C 
ATOM      3  O   UNL     1      -0.554   2.025   5.638  0.00  0.00    -0.274 OA
ENDROOT
BRANCH   1   4
ATOM      4  C   UNL     1      -2.225   2.397   7.684  0.00  0.00    +0.140 A 
ATOM      5  C   UNL     1      -1.982   1.101   8.090  0.00  0.00    +0.127 A 
ATOM      6  N   UNL     1      -1.662   0.857   9.405  0.00  0.00    -0.280 N 
ATOM      7  C   UNL     1      -1.587   1.871  10.287  0.00  0.00    +0.331 A 
ATOM      8  O   UNL     1      -1.304   1.635  11.445  0.00  0.00    -0.246 OA
ATOM      9  N   UNL     1      -1.821   3.141   9.910  0.00  0.00    -0.273 N 
ATOM     10  H   UNL     1      -1.764   3.876  10.586  0.00  0.00    +0.173 HD
ATOM     11  C   UNL     1      -2.132   3.434   8.632  0.00  0.00    +0.277 A 
ATOM     12  O   UNL     1      -2.337   4.589   8.300  0.00  0.00    -0.266 OA
BRANCH   5  13
ATOM     13  N   UNL     1      -2.058   0.065   7.190  0.00  0.00    -0.343 N 
ATOM     14  H   UNL     1      -2.390   0.226   6.293  0.00  0.00    +0.144 HD
ATOM     15  H   UNL     1      -1.780  -0.827   7.452  0.00  0.00    +0.144 HD
ENDBRANCH   5  13
BRANCH   6  16
ATOM     16  C   UNL     1      -1.401  -0.514   9.849  0.00  0.00    +0.128 C 
BRANCH  16  17
ATOM     17  C   UNL     1       0.089  -0.825   9.695  0.00  0.00    +0.018 C 
ATOM     18  C   UNL     1       0.362  -2.257  10.158  0.00  0.00    +0.005 C 
ENDBRANCH  16  17
ENDBRANCH   6  16
ENDBRANCH   1   4
BRANCH   1  19
ATOM     19  C   UNL     1      -3.863   3.253   6.014  0.00  0.00    +0.114 C 
BRANCH  19  20
ATOM     20  C   UNL     1      -4.878   2.126   5.815  0.00  0.00    +0.019 C 
BRANCH  20  22
ATOM     21  C   UNL     1      -7.259   1.597   5.272  0.00  0.00    +0.004 C 
ATOM     22  C   UNL     1      -6.244   2.724   5.472  0.00  0.00    -0.002 C 
ENDBRANCH  20  22
ENDBRANCH  19  20
ENDBRANCH   1  19
BRANCH   2  23
ATOM     23  C   UNL     1      -2.056   2.625   3.919  0.00  0.00    +0.172 C 
BRANCH  23  24
ATOM     24  S   UNL     1      -0.660   2.197   2.850  0.00  0.00    -0.096 S 
BRANCH  24  25
ATOM     25  C   UNL     1      -1.373   2.518   1.271  0.00  0.00    +0.112 A 
ATOM     26  C   UNL     1      -0.613   2.314   0.105  0.00  0.00    +0.098 A 
ATOM     27  C   UNL     1      -1.200   2.582  -1.137  0.00  0.00    -0.032 A 
ATOM     28  C   UNL     1      -2.509   3.028  -1.163  0.00  0.00    +0.027 A 
ATOM     29  C   UNL     1      -3.193   3.206   0.027  0.00  0.00    +0.040 A 
ATOM     30  N   UNL     1      -2.622   2.953   1.188  0.00  0.00    -0.245 NA
ATOM     31  C   UNL     1      -4.617   3.697  -0.005  0.00  0.00    +0.065 C 
ATOM     32  C   UNL     1      -0.426   2.385  -2.416  0.00  0.00    +0.045 C 
BRANCH  26  33
ATOM     33  C   UNL     1       0.776   1.832   0.190  0.00  0.00    +0.389 C 
ATOM     34  O   UNL     1       1.007   0.639   0.176  0.00  0.00    -0.240 OA
ATOM     35  O   UNL     1       1.791   2.714   0.276  0.00  0.00    -0.240 OA
ENDBRANCH  26  33
ENDBRANCH  24  25
ENDBRANCH  23  24
ENDBRANCH   2  23
TORSDOF 11
