REMARK  Name = ZINC16484660
REMARK  13 active torsions:
REMARK  status: ('A' for Active; 'I' for Inactive)
REMARK    1  A    between atoms: C_1  and  C_2
REMARK    2  A    between atoms: C_2  and  O_3
REMARK    3  A    between atoms: O_3  and  C_4
REMARK    4  A    between atoms: C_4  and  C_6
REMARK    5  A    between atoms: C_7  and  C_33
REMARK    6  A    between atoms: C_8  and  C_22
REMARK    7  A    between atoms: C_10  and  N_11
REMARK    8  A    between atoms: C_12  and  C_14
REMARK    9  A    between atoms: C_14  and  N_66
REMARK   10  A    between atoms: C_19  and  C_21
REMARK   11  A    between atoms: N_24  and  C_25
REMARK   12  A    between atoms: C_28  and  C_32
REMARK   13  A    between atoms: C_30  and  C_31
REMARK                            x       y       z     vdW  Elec       q    Type
REMARK                         _______ _______ _______ _____ _____    ______ ____
ROOT
ATOM      1  C   UNL     1       1.243  -3.825   6.094  0.00  0.00    +0.091 A 
ATOM      2  C   UNL     1       1.524  -3.948   7.447  0.00  0.00    -0.015 A 
ATOM      3  C   UNL     1       1.482  -2.813   8.210  0.00  0.00    +0.080 A 
ATOM      4  S   UNL     1       1.053  -1.555   7.021  0.00  0.00    -0.068 S 
ATOM      5  C   UNL     1       0.949  -2.548   5.604  0.00  0.00    +0.087 A 
ATOM      6  C   UNL     1       1.856  -5.285   8.056  0.00  0.00    +0.046 C 
ENDROOT
BRANCH   5   7
ATOM      7  N   UNL     1       0.645  -2.171   4.310  0.00  0.00    -0.281 N 
ATOM      8  C   UNL     1       0.382  -0.880   4.028  0.00  0.00    +0.201 C 
ATOM      9  O   UNL     1       0.412  -0.049   4.910  0.00  0.00    -0.278 OA
ATOM     10  H   UNL     1       0.620  -2.837   3.605  0.00  0.00    +0.155 HD
BRANCH   8  11
ATOM     11  C   UNL     1       0.050  -0.470   2.617  0.00  0.00    +0.019 C 
BRANCH  11  18
ATOM     12  C   UNL     1       1.179   1.645   2.954  0.00  0.00    -0.078 C 
ATOM     13  C   UNL     1       1.064   3.155   2.732  0.00  0.00    -0.019 C 
ATOM     14  C   UNL     1      -0.107   3.699   3.554  0.00  0.00    -0.003 C 
ATOM     15  C   UNL     1      -1.390   2.969   3.146  0.00  0.00    -0.016 C 
ATOM     16  C   UNL     1      -1.204   1.465   3.356  0.00  0.00    -0.071 C 
ATOM     17  C   UNL     1      -2.476   0.730   2.931  0.00  0.00    -0.013 C 
ATOM     18  N   UNL     1      -0.078   0.999   2.519  0.00  0.00    +0.387 N 
ATOM     19  H   UNL     1      -0.262   1.254   1.542  0.00  0.00    -0.081 HD
ENDBRANCH  11  18
ENDBRANCH   8  11
ENDBRANCH   5   7
BRANCH   3  20
ATOM     20  C   UNL     1       1.727  -2.667   9.646  0.00  0.00    +0.255 C 
ATOM     21  O   UNL     1       2.012  -3.643  10.317  0.00  0.00    -0.269 OA
ATOM     22  N   UNL     1       1.638  -1.454  10.226  0.00  0.00    -0.281 N 
ATOM     23  H   UNL     1       1.492  -0.665   9.680  0.00  0.00    +0.155 HD
BRANCH  22  24
ATOM     24  C   UNL     1       1.755  -1.331  11.614  0.00  0.00    +0.037 A 
ATOM     25  C   UNL     1       1.450  -2.409  12.436  0.00  0.00    +0.024 A 
ATOM     26  C   UNL     1       1.567  -2.285  13.806  0.00  0.00    +0.005 A 
ATOM     27  C   UNL     1       1.987  -1.090  14.360  0.00  0.00    -0.050 A 
ATOM     28  C   UNL     1       2.291  -0.015  13.545  0.00  0.00    +0.008 A 
ATOM     29  C   UNL     1       2.181  -0.134  12.173  0.00  0.00    -0.029 A 
ATOM     30  C   UNL     1       2.518   1.036  11.285  0.00  0.00    +0.045 C 
ATOM     31  C   UNL     1       2.114  -0.958  15.856  0.00  0.00    +0.044 C 
ENDBRANCH  22  24
ENDBRANCH   3  20
BRANCH   1  32
ATOM     32  C   UNL     1       1.259  -4.993   5.207  0.00  0.00    +0.342 C 
ATOM     33  O   UNL     1       2.288  -5.316   4.646  0.00  0.00    -0.245 OA
BRANCH  32  34
ATOM     34  O   UNL     1       0.132  -5.708   5.013  0.00  0.00    -0.461 OA
BRANCH  34  36
ATOM     35  C   UNL     1      -1.145  -7.533   4.028  0.00  0.00    +0.048 C 
ATOM     36  C   UNL     1       0.222  -6.851   4.122  0.00  0.00    +0.229 C 
ENDBRANCH  34  36
ENDBRANCH  32  34
ENDBRANCH   1  32
TORSDOF 8
