REMARK  Name = ZINC12316249
REMARK  9 active torsions:
REMARK  status: ('A' for Active; 'I' for Inactive)
REMARK    1  A    between atoms: C_1  and  C_2
REMARK    2  A    between atoms: C_2  and  C_3
REMARK    3  A    between atoms: C_4  and  C_31
REMARK    4  A    between atoms: C_5  and  C_9
REMARK    5  A    between atoms: N_11  and  C_12
REMARK    6  A    between atoms: C_12  and  C_14
REMARK    7  A    between atoms: C_12  and  C_15
REMARK    8  A    between atoms: N_18  and  C_21
REMARK    9  A    between atoms: C_19  and  C_20
REMARK                            x       y       z     vdW  Elec       q    Type
REMARK                         _______ _______ _______ _____ _____    ______ ____
ROOT
ATOM      1  C   UNL     1      -5.807   2.717   0.134  0.00  0.00    +0.013 A 
ATOM      2  C   UNL     1      -5.114   1.510  -0.001  0.00  0.00    +0.140 A 
ATOM      3  N   UNL     1      -3.833   1.773  -0.050  0.00  0.00    -0.174 NA
ATOM      4  N   UNL     1      -3.666   3.160   0.052  0.00  0.00    -0.236 N 
ATOM      5  C   UNL     1      -4.898   3.719   0.171  0.00  0.00    +0.047 A 
ATOM      6  C   UNL     1      -5.198   5.189   0.314  0.00  0.00    +0.066 C 
ENDROOT
BRANCH   4   7
ATOM      7  C   UNL     1      -2.447   3.847   0.040  0.00  0.00    +0.073 A 
ATOM      8  C   UNL     1      -2.273   4.940  -0.780  0.00  0.00    +0.028 A 
ATOM      9  C   UNL     1      -1.065   5.630  -0.799  0.00  0.00    +0.003 A 
ATOM     10  C   UNL     1      -0.023   5.247  -0.010  0.00  0.00    +0.008 A 
ATOM     11  C   UNL     1      -0.160   4.137   0.841  0.00  0.00    -0.016 A 
ATOM     12  C   UNL     1      -1.385   3.426   0.869  0.00  0.00    +0.008 A 
ATOM     13  C   UNL     1      -1.518   2.314   1.715  0.00  0.00    +0.010 A 
ATOM     14  C   UNL     1      -0.474   1.940   2.505  0.00  0.00    +0.001 A 
ATOM     15  C   UNL     1       0.731   2.638   2.478  0.00  0.00    +0.001 A 
ATOM     16  C   UNL     1       0.898   3.718   1.666  0.00  0.00    +0.008 A 
ENDBRANCH   4   7
BRANCH   1  17
ATOM     17  C   UNL     1      -7.303   2.875   0.229  0.00  0.00    +0.104 C 
ATOM     18  C   UNL     1      -7.874   3.167  -1.160  0.00  0.00    +0.033 C 
BRANCH  17  21
ATOM     19  C   UNL     1      -9.079   1.673   1.386  0.00  0.00    +0.263 C 
ATOM     20  O   UNL     1      -9.661   2.732   1.530  0.00  0.00    -0.269 OA
ATOM     21  N   UNL     1      -7.892   1.638   0.749  0.00  0.00    -0.303 N 
ATOM     22  H   UNL     1      -7.428   0.794   0.635  0.00  0.00    +0.150 HD
BRANCH  19  25
ATOM     23  C   UNL     1     -10.994  -1.058   2.868  0.00  0.00    +0.066 A 
ATOM     24  C   UNL     1     -10.874   0.303   2.581  0.00  0.00    +0.002 A 
ATOM     25  C   UNL     1      -9.671   0.431   1.909  0.00  0.00    +0.123 A 
ATOM     26  N   UNL     1      -9.146  -0.827   1.823  0.00  0.00    -0.272 N 
ATOM     27  H   UNL     1      -8.279  -1.060   1.382  0.00  0.00    +0.189 HD
ATOM     28  N   UNL     1      -9.935  -1.664   2.393  0.00  0.00    -0.178 NA
ATOM     29  C   UNL     1     -11.847   1.400   2.930  0.00  0.00    +0.048 C 
BRANCH  23  31
ATOM     30  C   UNL     1     -13.207  -2.141   2.584  0.00  0.00    +0.010 C 
ATOM     31  C   UNL     1     -12.140  -1.714   3.595  0.00  0.00    +0.054 C 
ENDBRANCH  23  31
ENDBRANCH  19  25
ENDBRANCH  17  21
ENDBRANCH   1  17
TORSDOF 5
