REMARK  Name = ZINC52594545
REMARK  5 active torsions:
REMARK  status: ('A' for Active; 'I' for Inactive)
REMARK    1  A    between atoms: C_15  and  C_17
REMARK    2  A    between atoms: C_17  and  C_19
REMARK    3  A    between atoms: C_17  and  N_29
REMARK    4  A    between atoms: C_19  and  C_20
REMARK    5  A    between atoms: N_32  and  C_33
REMARK                            x       y       z     vdW  Elec       q    Type
REMARK                         _______ _______ _______ _____ _____    ______ ____
ROOT
ATOM      1  C   UNL     1       8.058  -1.679   1.946  0.00  0.00    +0.165 C 
ENDROOT
BRANCH   1  16
ATOM      2  C   UNL     1       2.418  -7.714  -1.548  0.00  0.00    +0.000 A 
ATOM      3  C   UNL     1       3.723  -7.814  -1.103  0.00  0.00    +0.000 A 
ATOM      4  C   UNL     1       4.397  -6.684  -0.682  0.00  0.00    +0.004 A 
ATOM      5  C   UNL     1       3.770  -5.449  -0.705  0.00  0.00    -0.038 A 
ATOM      6  C   UNL     1       2.466  -5.349  -1.153  0.00  0.00    -0.044 A 
ATOM      7  C   UNL     1       1.791  -6.483  -1.572  0.00  0.00    +0.004 A 
ATOM      8  C   UNL     1       2.011  -3.906  -1.086  0.00  0.00    +0.036 C 
ATOM      9  C   UNL     1       3.019  -3.208  -0.147  0.00  0.00    +0.016 C 
ATOM     10  C   UNL     1       4.275  -4.084  -0.303  0.00  0.00    -0.001 C 
ATOM     11  C   UNL     1       5.021  -4.165   1.026  0.00  0.00    +0.030 C 
ATOM     12  C   UNL     1       5.468  -2.761   1.445  0.00  0.00    +0.108 C 
ATOM     13  N   UNL     1       6.234  -2.161   0.345  0.00  0.00    -0.300 N 
ATOM     14  C   UNL     1       5.625  -2.100  -0.991  0.00  0.00    +0.108 C 
ATOM     15  C   UNL     1       5.177  -3.510  -1.392  0.00  0.00    +0.030 C 
ATOM     16  C   UNL     1       7.473  -1.674   0.557  0.00  0.00    +0.236 C 
ATOM     17  O   UNL     1       8.118  -1.231  -0.371  0.00  0.00    -0.274 OA
ENDBRANCH   1  16
BRANCH   1  18
ATOM     18  N   UNL     1       9.467  -1.285   1.884  0.00  0.00    -0.288 N 
ATOM     19  C   UNL     1      10.320  -1.681   2.849  0.00  0.00    +0.300 C 
ATOM     20  O   UNL     1       9.920  -2.365   3.771  0.00  0.00    -0.253 OA
ATOM     21  N   UNL     1      11.617  -1.318   2.793  0.00  0.00    -0.298 N 
ATOM     22  H   UNL     1       9.786  -0.739   1.149  0.00  0.00    +0.151 HD
ATOM     23  H   UNL     1      11.936  -0.772   2.057  0.00  0.00    +0.150 HD
BRANCH  21  24
ATOM     24  C   UNL     1      12.545  -1.749   3.842  0.00  0.00    +0.061 C 
ATOM     25  C   UNL     1      13.080  -3.144   3.512  0.00  0.00    -0.056 C 
ATOM     26  N   UNL     1      14.538  -3.102   3.375  0.00  0.00    +0.381 N 
ATOM     27  C   UNL     1      15.162  -2.678   4.630  0.00  0.00    -0.078 C 
ATOM     28  C   UNL     1      14.696  -1.267   4.997  0.00  0.00    -0.014 C 
ATOM     29  C   UNL     1      13.723  -0.769   3.920  0.00  0.00    +0.004 C 
ATOM     30  C   UNL     1      14.453  -0.781   2.570  0.00  0.00    -0.014 C 
ATOM     31  C   UNL     1      14.927  -2.212   2.278  0.00  0.00    -0.078 C 
ATOM     32  H   UNL     1      14.865  -4.033   3.162  0.00  0.00    -0.082 HD
ENDBRANCH  21  24
ENDBRANCH   1  18
BRANCH   1  33
ATOM     33  C   UNL     1       7.290  -0.691   2.826  0.00  0.00    +0.065 C 
BRANCH  33  34
ATOM     34  C   UNL     1       7.782  -0.796   4.246  0.00  0.00    -0.039 C 
ATOM     35  C   UNL     1       8.723  -0.028   4.840  0.00  0.00    -0.001 A 
ATOM     36  C   UNL     1       9.541   1.092   4.358  0.00  0.00    +0.010 A 
ATOM     37  C   UNL     1      10.419   1.675   5.205  0.00  0.00    +0.001 A 
ATOM     38  C   UNL     1      10.569   1.236   6.528  0.00  0.00    +0.002 A 
ATOM     39  C   UNL     1       9.854   0.214   7.043  0.00  0.00    +0.026 A 
ATOM     40  C   UNL     1       8.900  -0.471   6.241  0.00  0.00    +0.043 A 
ATOM     41  N   UNL     1       8.099  -1.475   6.504  0.00  0.00    -0.380 N 
ATOM     42  C   UNL     1       7.318  -1.778   5.299  0.00  0.00    +0.144 C 
ATOM     43  H   UNL     1       8.031  -1.938   7.354  0.00  0.00    +0.160 HD
ENDBRANCH  33  34
ENDBRANCH   1  33
TORSDOF 5
