REMARK  Name = ZINC51168950
REMARK  3 active torsions:
REMARK  status: ('A' for Active; 'I' for Inactive)
REMARK    1  A    between atoms: C_5  and  C_6
REMARK    2  A    between atoms: C_10  and  N_12
REMARK    3  A    between atoms: N_12  and  N_13
REMARK                            x       y       z     vdW  Elec       q    Type
REMARK                         _______ _______ _______ _____ _____    ______ ____
ROOT
ATOM      1  C   UNL     1      -1.180  -0.886   0.009  0.00  0.00    +0.198 A 
ATOM      2  N   UNL     1      -1.008  -2.201   0.005  0.00  0.00    -0.229 NA
ATOM      3  C   UNL     1      -2.046  -3.032   0.013  0.00  0.00    +0.050 A 
ATOM      4  C   UNL     1      -3.318  -2.511   0.028  0.00  0.00    +0.015 A 
ATOM      5  C   UNL     1      -3.472  -1.117   0.027  0.00  0.00    +0.139 A 
ATOM      6  N   UNL     1      -2.394  -0.345   0.023  0.00  0.00    -0.208 NA
ATOM      7  C   UNL     1      -4.551  -3.371   0.052  0.00  0.00    +0.040 C 
ATOM      8  C   UNL     1      -4.216  -4.799  -0.377  0.00  0.00    +0.005 C 
ATOM      9  C   UNL     1      -3.018  -5.285   0.447  0.00  0.00    +0.006 C 
ATOM     10  C   UNL     1      -1.777  -4.512   0.001  0.00  0.00    +0.056 C 
ENDROOT
BRANCH   1  15
ATOM     11  C   UNL     1      -0.016   1.357   0.009  0.00  0.00    +0.054 A 
ATOM     12  C   UNL     1       1.325   1.781  -0.001  0.00  0.00    +0.057 A 
ATOM     13  C   UNL     1       2.091   0.669  -0.014  0.00  0.00    +0.171 A 
ATOM     14  O   UNL     1       1.289  -0.406  -0.012  0.00  0.00    -0.445 OA
ATOM     15  C   UNL     1       0.002  -0.004   0.002  0.00  0.00    +0.173 A 
ATOM     16 BR   UNL     1       3.982   0.633  -0.033  0.00  0.00    -0.008 Br
ENDBRANCH   1  15
BRANCH   5  17
ATOM     17  N   UNL     1      -4.738  -0.553   0.035  0.00  0.00    -0.267 N 
ATOM     18  H   UNL     1      -5.523  -1.123   0.042  0.00  0.00    +0.167 HD
BRANCH  17  19
ATOM     19  N   UNL     1      -4.879   0.806   0.034  0.00  0.00    -0.255 NA
ATOM     20  H   UNL     1      -4.399   1.219  -0.751  0.00  0.00    +0.140 HD
ATOM     21  H   UNL     1      -5.854   1.068   0.041  0.00  0.00    +0.140 HD
ENDBRANCH  17  19
ENDBRANCH   5  17
TORSDOF 3
