REMARK  Name = ZINC39882604
REMARK  6 active torsions:
REMARK  status: ('A' for Active; 'I' for Inactive)
REMARK    1  A    between atoms: C_1  and  O_2
REMARK    2  A    between atoms: O_2  and  C_3
REMARK    3  A    between atoms: C_3  and  C_5
REMARK    4  A    between atoms: C_8  and  N_11
REMARK    5  A    between atoms: C_12  and  C_14
REMARK    6  A    between atoms: C_14  and  C_15
REMARK                            x       y       z     vdW  Elec       q    Type
REMARK                         _______ _______ _______ _____ _____    ______ ____
ROOT
ATOM      1  N   UNL     1       0.822  -6.230  -1.335  0.00  0.00    -0.285 N 
ATOM      2  C   UNL     1       1.335  -6.830  -2.428  0.00  0.00    +0.222 C 
ATOM      3  O   UNL     1       1.831  -6.161  -3.309  0.00  0.00    -0.275 OA
ATOM      4  H   UNL     1       0.494  -6.767  -0.596  0.00  0.00    +0.155 HD
ENDROOT
BRANCH   1   8
ATOM      5  C   UNL     1       0.642  -2.074  -1.129  0.00  0.00    +0.059 A 
ATOM      6  C   UNL     1       0.482  -2.722  -2.358  0.00  0.00    +0.017 A 
ATOM      7  C   UNL     1       0.543  -4.096  -2.422  0.00  0.00    +0.024 A 
ATOM      8  C   UNL     1       0.762  -4.839  -1.266  0.00  0.00    +0.033 A 
ATOM      9  C   UNL     1       0.920  -4.197  -0.042  0.00  0.00    +0.024 A 
ATOM     10  C   UNL     1       0.867  -2.824   0.029  0.00  0.00    +0.017 A 
BRANCH   5  11
ATOM     11  C   UNL     1       0.578  -0.602  -1.057  0.00  0.00    +0.339 C 
ATOM     12  O   UNL     1       0.722  -0.040   0.011  0.00  0.00    -0.245 OA
BRANCH  11  14
ATOM     13  C   UNL     1       0.311   1.540  -2.030  0.00  0.00    +0.280 C 
ATOM     14  O   UNL     1       0.361   0.119  -2.174  0.00  0.00    -0.464 OA
ENDBRANCH  11  14
ENDBRANCH   5  11
ENDBRANCH   1   8
BRANCH   2  15
ATOM     15  C   UNL     1       1.292  -8.331  -2.554  0.00  0.00    +0.135 C 
BRANCH  15  16
ATOM     16  C   UNL     1       1.925  -8.743  -3.858  0.00  0.00    +0.007 A 
ATOM     17  C   UNL     1       1.298  -8.979  -5.018  0.00  0.00    +0.200 A 
ATOM     18  O   UNL     1       2.188  -9.326  -5.964  0.00  0.00    -0.463 OA
ATOM     19  C   UNL     1       3.442  -9.333  -5.465  0.00  0.00    +0.135 A 
ATOM     20  C   UNL     1       3.354  -8.961  -4.113  0.00  0.00    +0.025 A 
ATOM     21  C   UNL     1       4.507  -8.876  -3.335  0.00  0.00    +0.027 A 
ATOM     22  C   UNL     1       5.733  -9.155  -3.900  0.00  0.00    +0.019 A 
ATOM     23  C   UNL     1       5.820  -9.519  -5.237  0.00  0.00    +0.019 A 
ATOM     24  C   UNL     1       4.686  -9.614  -6.015  0.00  0.00    +0.048 A 
ATOM     25 BR   UNL     1       7.302  -9.041  -2.851  0.00  0.00    -0.050 Br
ENDBRANCH  15  16
ENDBRANCH   2  15
TORSDOF 5
