REMARK  Name = ZINC20997357
REMARK  9 active torsions:
REMARK  status: ('A' for Active; 'I' for Inactive)
REMARK    1  A    between atoms: C_5  and  N_7
REMARK    2  A    between atoms: N_10  and  C_13
REMARK    3  A    between atoms: N_17  and  C_33
REMARK    4  A    between atoms: C_19  and  C_21
REMARK    5  A    between atoms: C_21  and  C_22
REMARK    6  A    between atoms: C_22  and  C_23
REMARK    7  A    between atoms: N_25  and  C_26
REMARK    8  A    between atoms: C_26  and  C_27
REMARK    9  A    between atoms: C_33  and  C_34
REMARK                            x       y       z     vdW  Elec       q    Type
REMARK                         _______ _______ _______ _____ _____    ______ ____
ROOT
ATOM      1  C   UNL     1       0.444   5.541  -0.986  0.00  0.00    +0.056 C 
ATOM      2  C   UNL     1      -0.437   6.118   0.125  0.00  0.00    +0.000 C 
ATOM      3  C   UNL     1      -0.489   7.641  -0.010  0.00  0.00    -0.077 C 
ATOM      4  N   UNL     1      -1.034   7.998  -1.326  0.00  0.00    +0.384 N 
ATOM      5  C   UNL     1      -0.179   7.496  -2.409  0.00  0.00    -0.073 C 
ATOM      6  C   UNL     1      -0.118   5.968  -2.345  0.00  0.00    -0.010 C 
ATOM      7  H   UNL     1      -2.018   7.516  -1.424  0.00  0.00    -0.081 HD
ENDROOT
BRANCH   1  11
ATOM      8  N   UNL     1       1.645   1.517  -0.532  0.00  0.00    -0.325 N 
ATOM      9  C   UNL     1       0.797   2.105   0.515  0.00  0.00    +0.120 C 
ATOM     10  C   UNL     1       0.880   3.631   0.437  0.00  0.00    +0.103 C 
ATOM     11  N   UNL     1       0.450   4.075  -0.896  0.00  0.00    -0.296 NA
ATOM     12  C   UNL     1       1.298   3.487  -1.943  0.00  0.00    +0.103 C 
ATOM     13  C   UNL     1       1.216   1.961  -1.865  0.00  0.00    +0.120 C 
BRANCH   8  18
ATOM     14  C   UNL     1       0.489  -1.973  -0.564  0.00  0.00    +0.002 A 
ATOM     15  C   UNL     1       1.664  -2.642  -0.277  0.00  0.00    +0.003 A 
ATOM     16  C   UNL     1       2.835  -1.935  -0.074  0.00  0.00    +0.040 A 
ATOM     17  C   UNL     1       2.833  -0.554  -0.157  0.00  0.00    +0.144 A 
ATOM     18  C   UNL     1       1.652   0.121  -0.446  0.00  0.00    +0.065 A 
ATOM     19  C   UNL     1       0.478  -0.594  -0.644  0.00  0.00    +0.026 A 
ATOM     20  F   UNL     1       3.976   0.137   0.041  0.00  0.00    -0.204 F 
ENDBRANCH   8  18
ENDBRANCH   1  11
BRANCH   6  21
ATOM     21  C   UNL     1      -1.525   5.393  -2.520  0.00  0.00    +0.012 C 
BRANCH  21  22
ATOM     22  C   UNL     1      -2.028   5.695  -3.933  0.00  0.00    +0.096 C 
BRANCH  22  23
ATOM     23  C   UNL     1      -3.413   5.129  -4.105  0.00  0.00    +0.213 C 
ATOM     24  O   UNL     1      -3.946   4.540  -3.188  0.00  0.00    -0.276 OA
ATOM     25  N   UNL     1      -4.061   5.275  -5.278  0.00  0.00    -0.315 N 
ATOM     26  H   UNL     1      -3.577   5.809  -6.110  0.00  0.00    +0.149 HD
BRANCH  25  27
ATOM     27  C   UNL     1      -5.407   4.724  -5.446  0.00  0.00    +0.107 C 
BRANCH  27  28
ATOM     28  C   UNL     1      -5.910   5.027  -6.859  0.00  0.00    +0.006 C 
ATOM     29  C   UNL     1      -6.067   6.539  -7.031  0.00  0.00    +0.005 C 
ATOM     30  C   UNL     1      -6.570   6.842  -8.444  0.00  0.00    +0.000 C 
ATOM     31  C   UNL     1      -7.923   6.161  -8.661  0.00  0.00    +0.000 C 
ATOM     32  C   UNL     1      -7.766   4.649  -8.488  0.00  0.00    +0.000 C 
ATOM     33  C   UNL     1      -7.263   4.346  -7.075  0.00  0.00    +0.005 C 
ENDBRANCH  27  28
ENDBRANCH  25  27
ENDBRANCH  22  23
ENDBRANCH  21  22
ENDBRANCH   6  21
BRANCH   4  34
ATOM     34  C   UNL     1      -1.228   9.450  -1.439  0.00  0.00    -0.022 C 
BRANCH  34  35
ATOM     35  C   UNL     1      -1.897   9.966  -0.191  0.00  0.00    +0.025 A 
ATOM     36  C   UNL     1      -1.125  10.480   0.834  0.00  0.00    +0.021 A 
ATOM     37  C   UNL     1      -1.750  10.953   1.978  0.00  0.00    +0.003 A 
ATOM     38  C   UNL     1      -3.134  10.891   2.047  0.00  0.00    +0.020 A 
ATOM     39  C   UNL     1      -3.839  10.364   0.982  0.00  0.00    +0.111 A 
ATOM     40  N   UNL     1      -3.211   9.928  -0.093  0.00  0.00    -0.262 NA
ENDBRANCH  34  35
ENDBRANCH   4  34
TORSDOF 9
