REMARK  Name = ZINC40003802
REMARK  12 active torsions:
REMARK  status: ('A' for Active; 'I' for Inactive)
REMARK    1  A    between atoms: C_1  and  C_2
REMARK    2  A    between atoms: C_2  and  N_3
REMARK    3  A    between atoms: N_3  and  C_4
REMARK    4  A    between atoms: N_3  and  C_6
REMARK    5  A    between atoms: C_4  and  C_5
REMARK    6  A    between atoms: C_6  and  C_7
REMARK    7  A    between atoms: C_7  and  N_8
REMARK    8  A    between atoms: C_9  and  C_29
REMARK    9  A    between atoms: C_11  and  C_16
REMARK   10  A    between atoms: C_16  and  C_18
REMARK   11  A    between atoms: C_19  and  C_28
REMARK   12  A    between atoms: C_26  and  C_27
REMARK                            x       y       z     vdW  Elec       q    Type
REMARK                         _______ _______ _______ _____ _____    ______ ____
ROOT
ATOM      1  N   UNL     1      -2.212  -4.984  -0.296  0.00  0.00    -0.285 N 
ATOM      2  C   UNL     1      -2.303  -6.029  -1.323  0.00  0.00    +0.145 C 
ATOM      3  C   UNL     1      -2.191  -7.347  -0.593  0.00  0.00    +0.078 C 
ATOM      4  C   UNL     1      -2.050  -7.054   0.720  0.00  0.00    +0.249 C 
ATOM      5  C   UNL     1      -2.059  -5.589   0.895  0.00  0.00    +0.288 C 
ATOM      6  O   UNL     1      -1.948  -5.014   1.960  0.00  0.00    -0.266 OA
ATOM      7  O   UNL     1      -1.919  -7.962   1.716  0.00  0.00    -0.282 OA
ENDROOT
BRANCH   2   8
ATOM      8  C   UNL     1      -1.174  -5.885  -2.311  0.00  0.00    -0.022 A 
ATOM      9  C   UNL     1       0.121  -5.714  -1.860  0.00  0.00    +0.006 A 
ATOM     10  C   UNL     1       1.157  -5.581  -2.766  0.00  0.00    +0.000 A 
ATOM     11  C   UNL     1       0.897  -5.620  -4.123  0.00  0.00    +0.000 A 
ATOM     12  C   UNL     1      -0.398  -5.792  -4.574  0.00  0.00    +0.000 A 
ATOM     13  C   UNL     1      -1.433  -5.929  -3.668  0.00  0.00    +0.006 A 
ENDBRANCH   2   8
BRANCH   3  14
ATOM     14  C   UNL     1      -2.228  -8.686  -1.192  0.00  0.00    +0.213 C 
ATOM     15  O   UNL     1      -1.221  -9.157  -1.695  0.00  0.00    -0.285 OA
BRANCH  14  16
ATOM     16  C   UNL     1      -3.432  -9.432  -1.186  0.00  0.00    +0.116 A 
ATOM     17  C   UNL     1      -4.679  -8.996  -0.755  0.00  0.00    +0.068 A 
ATOM     18  N   UNL     1      -5.539  -9.987  -0.913  0.00  0.00    -0.232 NA
ATOM     19  C   UNL     1      -4.918 -11.049  -1.426  0.00  0.00    +0.141 A 
ATOM     20  N   UNL     1      -3.602 -10.736  -1.615  0.00  0.00    -0.296 N 
ATOM     21  C   UNL     1      -2.740 -11.649  -2.135  0.00  0.00    +0.093 A 
ATOM     22  C   UNL     1      -3.169 -12.885  -2.481  0.00  0.00    +0.018 A 
ATOM     23  C   UNL     1      -4.514 -13.237  -2.303  0.00  0.00    +0.008 A 
ATOM     24  C   UNL     1      -5.383 -12.329  -1.774  0.00  0.00    -0.008 A 
ATOM     25  C   UNL     1      -6.833 -12.690  -1.577  0.00  0.00    +0.047 C 
ATOM     26  C   UNL     1      -4.995  -7.630  -0.203  0.00  0.00    +0.068 C 
ENDBRANCH  14  16
ENDBRANCH   3  14
BRANCH   1  27
ATOM     27  C   UNL     1      -2.271  -3.539  -0.529  0.00  0.00    +0.090 C 
BRANCH  27  28
ATOM     28  C   UNL     1      -0.859  -3.004  -0.777  0.00  0.00    -0.060 C 
BRANCH  28  29
ATOM     29  N   UNL     1      -0.927  -1.573  -1.102  0.00  0.00    +0.380 N 
ATOM     30  H   UNL     1      -1.538  -1.437  -1.893  0.00  0.00    -0.082 HD
BRANCH  29  32
ATOM     31  C   UNL     1      -1.638   0.637  -0.324  0.00  0.00    -0.017 C 
ATOM     32  C   UNL     1      -1.450  -0.833   0.054  0.00  0.00    -0.082 C 
ENDBRANCH  29  32
BRANCH  29  33
ATOM     33  C   UNL     1       0.418  -1.081  -1.430  0.00  0.00    -0.082 C 
ATOM     34  C   UNL     1       0.910  -1.759  -2.711  0.00  0.00    -0.017 C 
ENDBRANCH  29  33
ENDBRANCH  28  29
ENDBRANCH  27  28
ENDBRANCH   1  27
TORSDOF 8
