REMARK  Name = ZINC27605353
REMARK  7 active torsions:
REMARK  status: ('A' for Active; 'I' for Inactive)
REMARK    1  A    between atoms: C_3  and  C_6
REMARK    2  A    between atoms: N_13  and  C_16
REMARK    3  A    between atoms: C_16  and  C_17
REMARK    4  A    between atoms: N_19  and  C_20
REMARK    5  A    between atoms: C_20  and  C_21
REMARK    6  A    between atoms: C_21  and  C_23
REMARK    7  A    between atoms: C_21  and  N_28
REMARK                            x       y       z     vdW  Elec       q    Type
REMARK                         _______ _______ _______ _____ _____    ______ ____
ROOT
ATOM      1  C   UNL     1      -1.292   5.284  -0.154  0.00  0.00    +0.233 C 
ATOM      2  O   UNL     1      -0.869   6.012   0.719  0.00  0.00    -0.274 OA
ATOM      3  N   UNL     1      -1.199   3.946  -0.020  0.00  0.00    -0.315 N 
ATOM      4  H   UNL     1      -1.583   3.286  -0.812  0.00  0.00    +0.149 HD
ENDROOT
BRANCH   1   5
ATOM      5  C   UNL     1      -1.921   5.876  -1.389  0.00  0.00    +0.221 C 
BRANCH   5  13
ATOM      6  C   UNL     1      -3.908  10.312  -0.077  0.00  0.00    +0.010 A 
ATOM      7  C   UNL     1      -3.661  11.646  -0.107  0.00  0.00    +0.057 A 
ATOM      8  S   UNL     1      -2.067  11.753  -0.898  0.00  0.00    -0.076 S 
ATOM      9  C   UNL     1      -1.772  10.025  -1.169  0.00  0.00    +0.116 A 
ATOM     10  C   UNL     1      -2.915   9.404  -0.640  0.00  0.00    +0.080 A 
ATOM     11  C   UNL     1      -2.944   7.976  -0.732  0.00  0.00    +0.263 A 
ATOM     12  O   UNL     1      -3.897   7.348  -0.304  0.00  0.00    -0.267 OA
ATOM     13  N   UNL     1      -1.901   7.338  -1.294  0.00  0.00    -0.290 N 
ATOM     14  C   UNL     1      -0.834   8.022  -1.781  0.00  0.00    +0.203 A 
ATOM     15  N   UNL     1      -0.781   9.325  -1.715  0.00  0.00    -0.230 NA
BRANCH   6  18
ATOM     16  C   UNL     1      -6.909   9.457   2.067  0.00  0.00    +0.008 A 
ATOM     17  C   UNL     1      -5.719  10.068   1.731  0.00  0.00    +0.016 A 
ATOM     18  C   UNL     1      -5.158   9.791   0.513  0.00  0.00    +0.021 A 
ATOM     19  S   UNL     1      -6.327   8.628  -0.173  0.00  0.00    -0.097 S 
ATOM     20  C   UNL     1      -7.479   8.593   1.189  0.00  0.00    +0.046 A 
ENDBRANCH   6  18
ENDBRANCH   5  13
ENDBRANCH   1   5
BRANCH   3  21
ATOM     21  C   UNL     1      -0.588   3.371   1.181  0.00  0.00    +0.094 C 
BRANCH  21  22
ATOM     22  C   UNL     1      -0.451   1.857   1.008  0.00  0.00    -0.013 C 
BRANCH  22  23
ATOM     23  N   UNL     1       0.434   1.572  -0.129  0.00  0.00    +0.386 N 
ATOM     24  C   UNL     1       0.764   0.125  -0.197  0.00  0.00    -0.078 C 
ATOM     25  C   UNL     1       1.218  -0.067  -1.666  0.00  0.00    -0.020 C 
ATOM     26  C   UNL     1       0.265   0.868  -2.447  0.00  0.00    -0.020 C 
ATOM     27  C   UNL     1      -0.230   1.894  -1.411  0.00  0.00    -0.078 C 
ATOM     28  H   UNL     1       1.331   2.189   0.027  0.00  0.00    -0.081 HD
ENDBRANCH  22  23
BRANCH  22  29
ATOM     29  C   UNL     1       0.134   1.259   2.262  0.00  0.00    -0.022 A 
ATOM     30  C   UNL     1      -0.480   0.533   3.228  0.00  0.00    +0.009 A 
ATOM     31  C   UNL     1       0.264   0.081   4.301  0.00  0.00    +0.008 A 
ATOM     32  C   UNL     1       1.586   0.377   4.356  0.00  0.00    +0.045 A 
ATOM     33  S   UNL     1       1.816   1.317   2.856  0.00  0.00    -0.103 S 
ENDBRANCH  22  29
ENDBRANCH  21  22
ENDBRANCH   3  21
TORSDOF 7
