REMARK  Name = ZINC44249355
REMARK  9 active torsions:
REMARK  status: ('A' for Active; 'I' for Inactive)
REMARK    1  A    between atoms: C_1  and  C_2
REMARK    2  A    between atoms: C_2  and  O_3
REMARK    3  A    between atoms: O_3  and  C_4
REMARK    4  A    between atoms: C_4  and  C_6
REMARK    5  A    between atoms: C_7  and  C_28
REMARK    6  A    between atoms: C_10  and  C_25
REMARK    7  A    between atoms: C_11  and  C_13
REMARK    8  A    between atoms: C_16  and  N_19
REMARK    9  A    between atoms: C_25  and  N_26
REMARK                            x       y       z     vdW  Elec       q    Type
REMARK                         _______ _______ _______ _____ _____    ______ ____
ROOT
ATOM      1  C   UNL     1       1.512  -2.340  -2.428  0.00  0.00    +0.082 C 
ATOM      2  C   UNL     1       1.748  -3.650  -2.525  0.00  0.00    +0.115 C 
ATOM      3  O   UNL     1       2.341  -4.209  -3.598  0.00  0.00    -0.446 OA
ATOM      4  C   UNL     1       2.513  -3.422  -4.691  0.00  0.00    +0.191 C 
ATOM      5  C   UNL     1       2.922  -1.984  -4.438  0.00  0.00    +0.069 C 
ATOM      6  C   UNL     1       1.864  -1.363  -3.515  0.00  0.00    +0.069 C 
ATOM      7  N   UNL     1       2.337  -3.876  -5.886  0.00  0.00    -0.270 NA
ATOM      8  C   UNL     1       1.334  -4.543  -1.384  0.00  0.00    +0.087 C 
ATOM      9  H   UNL     1       2.467  -3.293  -6.650  0.00  0.00    +0.190 HD
ENDROOT
BRANCH   6  10
ATOM     10  C   UNL     1       0.628  -1.031  -4.311  0.00  0.00    -0.039 A 
ATOM     11  C   UNL     1      -0.060  -2.035  -4.967  0.00  0.00    +0.006 A 
ATOM     12  C   UNL     1      -1.193  -1.735  -5.698  0.00  0.00    +0.023 A 
ATOM     13  C   UNL     1      -1.641  -0.422  -5.774  0.00  0.00    +0.030 A 
ATOM     14  C   UNL     1      -0.947   0.584  -5.114  0.00  0.00    +0.023 A 
ATOM     15  C   UNL     1       0.182   0.276  -4.380  0.00  0.00    +0.006 A 
BRANCH  13  16
ATOM     16  N   UNL     1      -2.785  -0.115  -6.512  0.00  0.00    -0.326 N 
ATOM     17  C   UNL     1      -3.203   1.282  -6.716  0.00  0.00    +0.133 C 
ATOM     18  C   UNL     1      -3.449   1.499  -8.213  0.00  0.00    +0.178 C 
ATOM     19  O   UNL     1      -4.343   0.492  -8.694  0.00  0.00    -0.377 OA
ATOM     20  C   UNL     1      -3.836  -0.840  -8.588  0.00  0.00    +0.178 C 
ATOM     21  C   UNL     1      -3.606  -1.177  -7.114  0.00  0.00    +0.133 C 
ENDBRANCH  13  16
ENDBRANCH   6  10
BRANCH   1  22
ATOM     22  C   UNL     1       0.897  -1.849  -1.250  0.00  0.00    +0.339 C 
ATOM     23  O   UNL     1       1.573  -1.329  -0.382  0.00  0.00    -0.245 OA
BRANCH  22  24
ATOM     24  O   UNL     1      -0.438  -1.958  -1.090  0.00  0.00    -0.462 OA
BRANCH  24  26
ATOM     25  C   UNL     1      -2.506  -1.653   0.122  0.00  0.00    +0.048 C 
ATOM     26  C   UNL     1      -0.991  -1.441   0.122  0.00  0.00    +0.229 C 
ENDBRANCH  24  26
ENDBRANCH  22  24
ENDBRANCH   1  22
BRANCH   5  27
ATOM     27  C   UNL     1       4.295  -1.945  -3.764  0.00  0.00    -0.073 C 
BRANCH  27  28
ATOM     28  N   UNL     1       5.308  -2.476  -4.685  0.00  0.00    +0.379 N 
ATOM     29  H   UNL     1       5.329  -1.914  -5.523  0.00  0.00    -0.090 HD
ATOM     30  H   UNL     1       6.214  -2.450  -4.241  0.00  0.00    -0.090 HD
ATOM     31  H   UNL     1       5.078  -3.429  -4.925  0.00  0.00    -0.090 HD
ENDBRANCH  27  28
ENDBRANCH   5  27
TORSDOF 7
