REMARK  Name = ZINC08568873
REMARK  6 active torsions:
REMARK  status: ('A' for Active; 'I' for Inactive)
REMARK    1  A    between atoms: C_1  and  C_2
REMARK    2  A    between atoms: C_2  and  C_4
REMARK    3  A    between atoms: C_2  and  S_16
REMARK    4  A    between atoms: N_6  and  C_7
REMARK    5  A    between atoms: C_12  and  C_13
REMARK    6  A    between atoms: S_16  and  C_17
REMARK                            x       y       z     vdW  Elec       q    Type
REMARK                         _______ _______ _______ _____ _____    ______ ____
ROOT
ATOM      1  C   UNL     1      -0.735   1.601   1.264  0.00  0.00    +0.029 C 
ATOM      2  C   UNL     1      -0.018   1.091   0.013  0.00  0.00    +0.137 C 
ENDROOT
BRANCH   2   3
ATOM      3  C   UNL     1      -0.740   1.583  -1.215  0.00  0.00    +0.230 C 
ATOM      4  O   UNL     1      -0.318   2.544  -1.823  0.00  0.00    -0.274 OA
ATOM      5  N   UNL     1      -1.854   0.954  -1.639  0.00  0.00    -0.284 N 
ATOM      6  H   UNL     1      -2.186   0.029  -1.143  0.00  0.00    +0.155 HD
BRANCH   5   7
ATOM      7  C   UNL     1      -2.586   1.475  -2.703  0.00  0.00    +0.046 A 
ATOM      8  C   UNL     1      -2.525   2.831  -2.994  0.00  0.00    +0.024 A 
ATOM      9  C   UNL     1      -3.248   3.345  -4.052  0.00  0.00    +0.002 A 
ATOM     10  C   UNL     1      -4.045   2.516  -4.824  0.00  0.00    +0.001 A 
ATOM     11  C   UNL     1      -4.122   1.168  -4.547  0.00  0.00    +0.015 A 
ATOM     12  C   UNL     1      -3.393   0.633  -3.483  0.00  0.00    +0.058 A 
BRANCH  12  13
ATOM     13  C   UNL     1      -3.471  -0.809  -3.180  0.00  0.00    +0.243 C 
ATOM     14  O   UNL     1      -2.908  -1.255  -2.199  0.00  0.00    -0.270 OA
ATOM     15  N   UNL     1      -4.166  -1.631  -3.991  0.00  0.00    -0.325 N 
ATOM     16  H   UNL     1      -4.224  -2.706  -3.765  0.00  0.00    +0.145 HD
ATOM     17  H   UNL     1      -4.675  -1.227  -4.878  0.00  0.00    +0.145 HD
ENDBRANCH  12  13
ENDBRANCH   5   7
ENDBRANCH   2   3
BRANCH   2  18
ATOM     18  S   UNL     1       1.684   1.708  -0.001  0.00  0.00    -0.075 S 
BRANCH  18  19
ATOM     19  C   UNL     1       2.320   0.882   1.420  0.00  0.00    +0.170 A 
ATOM     20  N   UNL     1       3.626   1.087   1.762  0.00  0.00    -0.301 N 
ATOM     21  H   UNL     1       4.256   1.752   1.153  0.00  0.00    +0.171 HD
ATOM     22  C   UNL     1       4.155   0.477   2.849  0.00  0.00    +0.260 A 
ATOM     23  O   UNL     1       5.316   0.653   3.169  0.00  0.00    -0.267 OA
ATOM     24  C   UNL     1       3.276  -0.409   3.623  0.00  0.00    +0.065 A 
ATOM     25  C   UNL     1       3.727  -1.087   4.755  0.00  0.00    +0.015 A 
ATOM     26  C   UNL     1       2.867  -1.901   5.440  0.00  0.00    +0.001 A 
ATOM     27  C   UNL     1       1.552  -2.058   5.020  0.00  0.00    +0.002 A 
ATOM     28  C   UNL     1       1.084  -1.405   3.914  0.00  0.00    +0.028 A 
ATOM     29  C   UNL     1       1.939  -0.566   3.193  0.00  0.00    +0.079 A 
ATOM     30  N   UNL     1       1.519   0.096   2.096  0.00  0.00    -0.223 NA
ENDBRANCH  18  19
ENDBRANCH   2  18
TORSDOF 5
