REMARK  Name = ZINC35694657
REMARK  6 active torsions:
REMARK  status: ('A' for Active; 'I' for Inactive)
REMARK    1  A    between atoms: C_1  and  C_2
REMARK    2  A    between atoms: C_2  and  C_4
REMARK    3  A    between atoms: C_2  and  N_10
REMARK    4  A    between atoms: C_14  and  N_19
REMARK    5  A    between atoms: C_15  and  O_17
REMARK    6  A    between atoms: O_17  and  C_18
REMARK                            x       y       z     vdW  Elec       q    Type
REMARK                         _______ _______ _______ _____ _____    ______ ____
ROOT
ATOM      1  N   UNL     1       0.711  -0.489   1.189  0.00  0.00    -0.321 N 
ATOM      2  C   UNL     1       0.029  -0.638   2.395  0.00  0.00    +0.123 A 
ATOM      3  C   UNL     1      -1.324  -0.330   2.461  0.00  0.00    +0.045 A 
ATOM      4  C   UNL     1      -1.995  -0.481   3.663  0.00  0.00    +0.031 A 
ATOM      5  C   UNL     1      -1.284  -0.939   4.767  0.00  0.00    +0.087 A 
ATOM      6  C   UNL     1       0.071  -1.230   4.629  0.00  0.00    +0.238 A 
ATOM      7  N   UNL     1       0.677  -1.078   3.463  0.00  0.00    -0.197 NA
ATOM      8  H   UNL     1       1.654  -0.707   1.135  0.00  0.00    +0.148 HD
ENDROOT
BRANCH   5   9
ATOM      9  N   UNL     1      -1.924  -1.106   6.005  0.00  0.00    -0.354 N 
ATOM     10  H   UNL     1      -2.868  -0.902   6.095  0.00  0.00    +0.142 HD
ATOM     11  H   UNL     1      -1.422  -1.427   6.771  0.00  0.00    +0.142 HD
ENDBRANCH   5   9
BRANCH   1  13
ATOM     12  C   UNL     1      -0.019   1.526   0.010  0.00  0.00    +0.034 C 
ATOM     13  C   UNL     1       0.002  -0.004   0.002  0.00  0.00    +0.117 C 
BRANCH  13  14
ATOM     14  C   UNL     1       0.707  -0.490  -1.238  0.00  0.00    +0.061 A 
ATOM     15  C   UNL     1       0.002  -0.617  -2.420  0.00  0.00    +0.025 A 
ATOM     16  C   UNL     1       0.660  -1.065  -3.555  0.00  0.00    +0.003 A 
ATOM     17  C   UNL     1       2.010  -1.370  -3.458  0.00  0.00    +0.020 A 
ATOM     18  C   UNL     1       2.649  -1.218  -2.242  0.00  0.00    +0.111 A 
ATOM     19  N   UNL     1       1.992  -0.784  -1.184  0.00  0.00    -0.258 NA
ENDBRANCH  13  14
ENDBRANCH   1  13
BRANCH   6  20
ATOM     20  O   UNL     1       0.775  -1.677   5.700  0.00  0.00    -0.478 OA
ATOM     21  C   UNL     1       2.162  -1.958   5.493  0.00  0.00    +0.279 C 
ENDBRANCH   6  20
TORSDOF 4
