REMARK  Name = ZINC09515554
REMARK  5 active torsions:
REMARK  status: ('A' for Active; 'I' for Inactive)
REMARK    1  A    between atoms: C_4  and  C_7
REMARK    2  A    between atoms: C_7  and  C_9
REMARK    3  A    between atoms: C_7  and  S_17
REMARK    4  A    between atoms: S_17  and  C_18
REMARK    5  A    between atoms: N_31  and  C_32
REMARK                            x       y       z     vdW  Elec       q    Type
REMARK                         _______ _______ _______ _____ _____    ______ ____
ROOT
ATOM      1  C   UNL     1      -2.352   0.884   2.794  0.00  0.00    +0.180 C 
ATOM      2  N   UNL     1      -1.335   0.125   2.500  0.00  0.00    -0.158 NA
ATOM      3  N   UNL     1      -0.794  -0.367   3.695  0.00  0.00    -0.221 N 
ATOM      4  C   UNL     1      -1.532   0.130   4.707  0.00  0.00    +0.121 C 
ATOM      5  C   UNL     1      -1.333  -0.112   6.083  0.00  0.00    +0.040 C 
ATOM      6  C   UNL     1      -0.730  -1.234   6.675  0.00  0.00    +0.123 C 
ATOM      7  N   UNL     1      -0.729  -1.095   7.981  0.00  0.00    -0.254 NA
ATOM      8  C   UNL     1      -1.295   0.060   8.368  0.00  0.00    +0.072 A 
ATOM      9  C   UNL     1      -1.706   0.757   7.207  0.00  0.00    +0.012 A 
ATOM     10  C   UNL     1      -2.337   1.994   7.321  0.00  0.00    +0.011 A 
ATOM     11  C   UNL     1      -2.544   2.535   8.559  0.00  0.00    +0.001 A 
ATOM     12  C   UNL     1      -2.137   1.859   9.704  0.00  0.00    +0.002 A 
ATOM     13  C   UNL     1      -1.523   0.644   9.622  0.00  0.00    +0.028 A 
ATOM     14  N   UNL     1      -2.499   0.914   4.159  0.00  0.00    -0.262 N 
ATOM     15  H   UNL     1       0.080  -1.034   3.670  0.00  0.00    +0.176 HD
ENDROOT
BRANCH  14  16
ATOM     16  C   UNL     1      -3.522   1.659   4.897  0.00  0.00    +0.082 C 
ATOM     17  C   UNL     1      -4.728   2.174   4.108  0.00  0.00    +0.025 C 
ATOM     18  C   UNL     1      -3.660   3.153   4.601  0.00  0.00    +0.025 C 
ENDBRANCH  14  16
BRANCH   1  19
ATOM     19  S   UNL     1      -3.367   1.738   1.633  0.00  0.00    -0.071 S 
BRANCH  19  20
ATOM     20  C   UNL     1      -2.572   1.230   0.088  0.00  0.00    +0.170 C 
BRANCH  20  21
ATOM     21  C   UNL     1      -3.363   1.757  -1.081  0.00  0.00    +0.233 C 
ATOM     22  O   UNL     1      -4.059   2.742  -0.947  0.00  0.00    -0.274 OA
ATOM     23  N   UNL     1      -3.298   1.135  -2.274  0.00  0.00    -0.296 N 
ATOM     24  C   UNL     1      -2.456  -0.057  -2.462  0.00  0.00    +0.136 C 
ATOM     25  C   UNL     1      -3.314  -1.153  -3.114  0.00  0.00    +0.179 C 
ATOM     26  O   UNL     1      -3.936  -0.624  -4.288  0.00  0.00    -0.377 OA
ATOM     27  C   UNL     1      -4.838   0.456  -4.037  0.00  0.00    +0.179 C 
ATOM     28  C   UNL     1      -4.062   1.631  -3.430  0.00  0.00    +0.136 C 
ENDBRANCH  20  21
BRANCH  20  32
ATOM     29  C   UNL     1       1.397   2.805  -0.060  0.00  0.00    +0.000 A 
ATOM     30  C   UNL     1       1.193   1.438  -0.107  0.00  0.00    +0.000 A 
ATOM     31  C   UNL     1      -0.091   0.929  -0.055  0.00  0.00    +0.005 A 
ATOM     32  C   UNL     1      -1.172   1.786   0.038  0.00  0.00    -0.025 A 
ATOM     33  C   UNL     1      -0.968   3.152   0.091  0.00  0.00    +0.005 A 
ATOM     34  C   UNL     1       0.316   3.662   0.039  0.00  0.00    +0.000 A 
ENDBRANCH  20  32
ENDBRANCH  19  20
ENDBRANCH   1  19
TORSDOF 5
