REMARK  Name = ZINC39877093
REMARK  6 active torsions:
REMARK  status: ('A' for Active; 'I' for Inactive)
REMARK    1  A    between atoms: C_3  and  C_35
REMARK    2  A    between atoms: C_5  and  N_7
REMARK    3  A    between atoms: C_8  and  C_24
REMARK    4  A    between atoms: C_27  and  O_30
REMARK    5  A    between atoms: O_30  and  C_31
REMARK    6  A    between atoms: C_31  and  C_32
REMARK                            x       y       z     vdW  Elec       q    Type
REMARK                         _______ _______ _______ _____ _____    ______ ____
ROOT
ATOM      1  N   UNL     1       1.238  -2.078  -0.021  0.00  0.00    -0.253 N 
ATOM      2  C   UNL     1       0.061  -2.962  -0.020  0.00  0.00    +0.150 C 
ATOM      3  C   UNL     1       0.599  -4.356  -0.028  0.00  0.00    +0.072 A 
ATOM      4  C   UNL     1      -0.083  -5.654  -0.021  0.00  0.00    +0.199 A 
ATOM      5  O   UNL     1      -1.284  -5.778  -0.183  0.00  0.00    -0.287 OA
ATOM      6  C   UNL     1       0.831  -6.803   0.202  0.00  0.00    +0.067 A 
ATOM      7  C   UNL     1       0.316  -8.079   0.434  0.00  0.00    +0.053 A 
ATOM      8  C   UNL     1       1.179  -9.134   0.644  0.00  0.00    +0.124 A 
ATOM      9  C   UNL     1       2.553  -8.923   0.626  0.00  0.00    +0.042 A 
ATOM     10  C   UNL     1       3.070  -7.668   0.398  0.00  0.00    +0.050 A 
ATOM     11  C   UNL     1       2.218  -6.586   0.179  0.00  0.00    +0.140 A 
ATOM     12  O   UNL     1       2.754  -5.366  -0.054  0.00  0.00    -0.450 OA
ATOM     13  C   UNL     1       1.963  -4.276  -0.038  0.00  0.00    +0.199 A 
ATOM     14  C   UNL     1       2.342  -2.853  -0.036  0.00  0.00    +0.287 C 
ATOM     15  O   UNL     1       3.484  -2.437  -0.045  0.00  0.00    -0.266 OA
ATOM     16  F   UNL     1       0.689 -10.372   0.869  0.00  0.00    -0.205 F 
ENDROOT
BRANCH   1  21
ATOM     17  C   UNL     1      -0.017   1.377   0.010  0.00  0.00    +0.002 A 
ATOM     18  C   UNL     1       1.171   2.086   0.002  0.00  0.00    +0.012 A 
ATOM     19  C   UNL     1       2.380   1.416  -0.013  0.00  0.00    +0.057 A 
ATOM     20  C   UNL     1       2.406   0.035  -0.021  0.00  0.00    +0.036 A 
ATOM     21  C   UNL     1       1.216  -0.681  -0.013  0.00  0.00    +0.038 A 
ATOM     22  C   UNL     1       0.002  -0.004   0.002  0.00  0.00    +0.023 A 
BRANCH  19  23
ATOM     23  C   UNL     1       3.671   2.193  -0.023  0.00  0.00    +0.417 C 
ATOM     24  F   UNL     1       3.391   3.563  -0.013  0.00  0.00    -0.166 F 
ATOM     25  F   UNL     1       4.422   1.863   1.111  0.00  0.00    -0.166 F 
ATOM     26  F   UNL     1       4.399   1.874  -1.174  0.00  0.00    -0.166 F 
ENDBRANCH  19  23
ENDBRANCH   1  21
BRANCH   2  27
ATOM     27  C   UNL     1      -0.764  -2.728   1.220  0.00  0.00    -0.022 A 
ATOM     28  C   UNL     1      -0.139  -2.516   2.434  0.00  0.00    +0.009 A 
ATOM     29  C   UNL     1      -0.892  -2.302   3.572  0.00  0.00    +0.046 A 
ATOM     30  C   UNL     1      -2.278  -2.300   3.495  0.00  0.00    +0.121 A 
ATOM     31  C   UNL     1      -2.902  -2.513   2.275  0.00  0.00    +0.046 A 
ATOM     32  C   UNL     1      -2.144  -2.722   1.139  0.00  0.00    +0.009 A 
BRANCH  30  33
ATOM     33  O   UNL     1      -3.021  -2.090   4.613  0.00  0.00    -0.483 OA
BRANCH  33  34
ATOM     34  C   UNL     1      -4.442  -2.102   4.459  0.00  0.00    +0.324 C 
BRANCH  34  35
ATOM     35  C   UNL     1      -5.094  -1.854   5.795  0.00  0.00    +0.248 C 
ATOM     36  O   UNL     1      -4.410  -1.683   6.781  0.00  0.00    -0.272 OA
ATOM     37  N   UNL     1      -6.438  -1.821   5.893  0.00  0.00    -0.327 N 
ATOM     38  H   UNL     1      -6.985  -1.957   5.103  0.00  0.00    +0.145 HD
ATOM     39  H   UNL     1      -6.858  -1.661   6.752  0.00  0.00    +0.145 HD
ENDBRANCH  34  35
ENDBRANCH  33  34
ENDBRANCH  30  33
ENDBRANCH   2  27
TORSDOF 6
