REMARK  Name = ZINC15809351
REMARK  11 active torsions:
REMARK  status: ('A' for Active; 'I' for Inactive)
REMARK    1  A    between atoms: C_1  and  C_2
REMARK    2  A    between atoms: C_6  and  N_8
REMARK    3  A    between atoms: N_8  and  S_9
REMARK    4  A    between atoms: S_9  and  C_12
REMARK    5  A    between atoms: C_15  and  C_35
REMARK    6  A    between atoms: C_16  and  C_18
REMARK    7  A    between atoms: C_18  and  O_20
REMARK    8  A    between atoms: O_20  and  C_21
REMARK    9  A    between atoms: C_21  and  C_23
REMARK   10  A    between atoms: C_21  and  C_24
REMARK   11  A    between atoms: N_29  and  C_30
REMARK                            x       y       z     vdW  Elec       q    Type
REMARK                         _______ _______ _______ _____ _____    ______ ____
ROOT
ATOM      1  C   UNL     1       2.429   4.059  -0.104  0.00  0.00    +0.109 A 
ATOM      2  C   UNL     1       3.601   3.400   0.224  0.00  0.00    +0.029 A 
ATOM      3  C   UNL     1       3.622   2.020   0.321  0.00  0.00    +0.006 A 
ATOM      4  C   UNL     1       2.474   1.292   0.091  0.00  0.00    -0.036 A 
ATOM      5  C   UNL     1       1.288   1.950  -0.240  0.00  0.00    +0.064 A 
ATOM      6  C   UNL     1       1.275   3.343  -0.342  0.00  0.00    +0.044 A 
ATOM      7  C   UNL     1       2.498  -0.211   0.197  0.00  0.00    +0.044 C 
ENDROOT
BRANCH   1   8
ATOM      8  S   UNL     1       2.414   5.817  -0.225  0.00  0.00    +0.072 S 
ATOM      9  O   UNL     1       1.070   6.227  -0.009  0.00  0.00    -0.150 OA
ATOM     10  O   UNL     1       3.491   6.288   0.573  0.00  0.00    -0.150 OA
BRANCH   8  11
ATOM     11  N   UNL     1       2.781   6.203  -1.793  0.00  0.00    -0.216 N 
ATOM     12  H   UNL     1       3.601   6.680  -1.996  0.00  0.00    +0.174 HD
BRANCH  11  18
ATOM     13  C   UNL     1       2.085   4.312  -6.275  0.00  0.00    +0.044 C 
ATOM     14  C   UNL     1       1.545   4.923  -5.008  0.00  0.00    -0.049 A 
ATOM     15  C   UNL     1       0.184   5.128  -4.865  0.00  0.00    +0.003 A 
ATOM     16  C   UNL     1      -0.315   5.688  -3.704  0.00  0.00    +0.002 A 
ATOM     17  C   UNL     1       0.543   6.046  -2.683  0.00  0.00    +0.024 A 
ATOM     18  C   UNL     1       1.910   5.842  -2.823  0.00  0.00    +0.048 A 
ATOM     19  C   UNL     1       2.409   5.283  -3.993  0.00  0.00    +0.027 A 
ENDBRANCH  11  18
ENDBRANCH   8  11
ENDBRANCH   1   8
BRANCH   5  20
ATOM     20  C   UNL     1       0.054   1.177  -0.488  0.00  0.00    +0.340 C 
ATOM     21  O   UNL     1       0.092  -0.037  -0.511  0.00  0.00    -0.245 OA
BRANCH  20  22
ATOM     22  O   UNL     1      -1.113   1.818  -0.694  0.00  0.00    -0.449 OA
BRANCH  22  23
ATOM     23  C   UNL     1      -2.284   0.994  -0.937  0.00  0.00    +0.259 C 
ATOM     24  C   UNL     1      -2.964   0.669   0.394  0.00  0.00    +0.062 C 
BRANCH  23  25
ATOM     25  C   UNL     1      -3.247   1.739  -1.825  0.00  0.00    +0.261 C 
ATOM     26  O   UNL     1      -2.973   2.854  -2.214  0.00  0.00    -0.271 OA
ATOM     27  N   UNL     1      -4.412   1.166  -2.186  0.00  0.00    -0.237 N 
ATOM     28  C   UNL     1      -5.273   1.832  -2.980  0.00  0.00    +0.306 C 
ATOM     29  O   UNL     1      -4.999   2.950  -3.371  0.00  0.00    -0.252 OA
ATOM     30  N   UNL     1      -6.438   1.259  -3.341  0.00  0.00    -0.296 N 
ATOM     31  H   UNL     1      -4.630   0.274  -1.874  0.00  0.00    +0.159 HD
ATOM     32  H   UNL     1      -6.657   0.367  -3.030  0.00  0.00    +0.151 HD
BRANCH  30  33
ATOM     33  C   UNL     1      -7.374   1.984  -4.205  0.00  0.00    +0.074 C 
ATOM     34  C   UNL     1      -8.318   2.853  -3.348  0.00  0.00    +0.022 C 
ATOM     35  C   UNL     1      -9.683   2.761  -4.075  0.00  0.00    +0.002 C 
ATOM     36  C   UNL     1      -9.720   1.287  -4.549  0.00  0.00    +0.002 C 
ATOM     37  C   UNL     1      -8.265   0.988  -4.968  0.00  0.00    +0.022 C 
ENDBRANCH  30  33
ENDBRANCH  23  25
ENDBRANCH  22  23
ENDBRANCH  20  22
ENDBRANCH   5  20
TORSDOF 8
