REMARK  Name = ZINC13096635
REMARK  11 active torsions:
REMARK  status: ('A' for Active; 'I' for Inactive)
REMARK    1  A    between atoms: C_1  and  C_2
REMARK    2  A    between atoms: C_2  and  C_3
REMARK    3  A    between atoms: C_2  and  C_4
REMARK    4  A    between atoms: C_4  and  O_5
REMARK    5  A    between atoms: O_5  and  C_6
REMARK    6  A    between atoms: C_9  and  C_12
REMARK    7  A    between atoms: N_14  and  N_15
REMARK    8  A    between atoms: C_16  and  C_18
REMARK    9  A    between atoms: C_19  and  C_20
REMARK   10  A    between atoms: C_23  and  S_26
REMARK   11  A    between atoms: S_26  and  N_29
REMARK                            x       y       z     vdW  Elec       q    Type
REMARK                         _______ _______ _______ _____ _____    ______ ____
ROOT
ATOM      1  N   UNL     1       2.449  -4.215  -0.043  0.00  0.00    -0.231 N 
ATOM      2  C   UNL     1       3.627  -4.870  -0.058  0.00  0.00    +0.253 C 
ATOM      3  O   UNL     1       4.670  -4.244  -0.065  0.00  0.00    -0.269 OA
ATOM      4  H   UNL     1       1.617  -4.714  -0.037  0.00  0.00    +0.173 HD
ENDROOT
BRANCH   1   7
ATOM      5  C   UNL     1       1.247  -2.160  -0.021  0.00  0.00    +0.260 C 
ATOM      6  O   UNL     1       0.204  -2.785  -0.014  0.00  0.00    -0.269 OA
ATOM      7  N   UNL     1       2.425  -2.814  -0.036  0.00  0.00    -0.230 N 
ATOM      8  H   UNL     1       3.257  -2.315  -0.041  0.00  0.00    +0.173 HD
BRANCH   5  12
ATOM      9  C   UNL     1       1.177   2.086   0.002  0.00  0.00    +0.121 A 
ATOM     10  C   UNL     1      -0.017   1.373   0.010  0.00  0.00    +0.046 A 
ATOM     11  C   UNL     1       0.002  -0.004   0.002  0.00  0.00    +0.016 A 
ATOM     12  C   UNL     1       1.223  -0.684  -0.013  0.00  0.00    +0.038 A 
ATOM     13  C   UNL     1       2.420   0.036  -0.021  0.00  0.00    +0.016 A 
ATOM     14  C   UNL     1       2.393   1.413  -0.013  0.00  0.00    +0.046 A 
BRANCH   9  15
ATOM     15  O   UNL     1       1.154   3.443   0.010  0.00  0.00    -0.492 OA
BRANCH  15  16
ATOM     16  C   UNL     1       2.416   4.113   0.001  0.00  0.00    +0.232 C 
BRANCH  16  18
ATOM     17  C   UNL     1       1.525   6.033   1.327  0.00  0.00    +0.010 C 
ATOM     18  C   UNL     1       2.190   5.626   0.011  0.00  0.00    +0.020 C 
ATOM     19  C   UNL     1       3.535   6.343  -0.123  0.00  0.00    +0.010 C 
ENDBRANCH  16  18
ENDBRANCH  15  16
ENDBRANCH   9  15
ENDBRANCH   5  12
ENDBRANCH   1   7
BRANCH   2  20
ATOM     20  C   UNL     1       3.651  -6.333  -0.066  0.00  0.00    +0.069 C 
ATOM     21  C   UNL     1       4.830  -6.988  -0.080  0.00  0.00    +0.013 C 
BRANCH  21  22
ATOM     22  C   UNL     1       4.854  -8.460  -0.088  0.00  0.00    -0.025 A 
ATOM     23  C   UNL     1       3.657  -9.183  -0.074  0.00  0.00    +0.010 A 
ATOM     24  C   UNL     1       3.688 -10.561  -0.086  0.00  0.00    +0.029 A 
ATOM     25  C   UNL     1       4.900 -11.229  -0.102  0.00  0.00    +0.106 A 
ATOM     26  C   UNL     1       6.089 -10.521  -0.111  0.00  0.00    +0.029 A 
ATOM     27  C   UNL     1       6.075  -9.142  -0.103  0.00  0.00    +0.010 A 
BRANCH  25  28
ATOM     28  S   UNL     1       4.930 -12.991  -0.111  0.00  0.00    +0.061 S 
ATOM     29  O   UNL     1       3.686 -13.415  -0.651  0.00  0.00    -0.153 OA
ATOM     30  O   UNL     1       6.176 -13.374  -0.676  0.00  0.00    -0.153 OA
BRANCH  28  31
ATOM     31  N   UNL     1       4.954 -13.488   1.469  0.00  0.00    -0.177 NA
ATOM     32  C   UNL     1       6.232 -13.681   2.115  0.00  0.00    +0.109 C 
ATOM     33  C   UNL     1       6.719 -15.129   1.897  0.00  0.00    +0.017 C 
ATOM     34  C   UNL     1       5.904 -16.065   2.685  0.00  0.00    +0.001 C 
ATOM     35  C   UNL     1       4.430 -16.098   2.295  0.00  0.00    +0.001 C 
ATOM     36  C   UNL     1       3.696 -14.997   3.020  0.00  0.00    +0.017 C 
ATOM     37  C   UNL     1       3.669 -13.722   2.156  0.00  0.00    +0.109 C 
ENDBRANCH  28  31
ENDBRANCH  25  28
ENDBRANCH  21  22
ENDBRANCH   2  20
TORSDOF 9
