REMARK  Name = ZINC25943065
REMARK  6 active torsions:
REMARK  status: ('A' for Active; 'I' for Inactive)
REMARK    1  A    between atoms: C_1  and  C_2
REMARK    2  A    between atoms: C_7  and  N_12
REMARK    3  A    between atoms: C_9  and  C_11
REMARK    4  A    between atoms: C_13  and  C_15
REMARK    5  A    between atoms: C_15  and  C_16
REMARK    6  A    between atoms: C_19  and  C_21
REMARK                            x       y       z     vdW  Elec       q    Type
REMARK                         _______ _______ _______ _____ _____    ______ ____
ROOT
ATOM      1  N   UNL     1       6.886   4.648   1.328  0.00  0.00    -0.312 N 
ATOM      2  C   UNL     1       5.556   4.762   1.139  0.00  0.00    +0.219 C 
ATOM      3  O   UNL     1       4.786   4.212   1.898  0.00  0.00    -0.275 OA
ATOM      4  H   UNL     1       7.584   5.146   0.639  0.00  0.00    +0.149 HD
ENDROOT
BRANCH   1  10
ATOM      5  C   UNL     1       8.433   1.341   3.535  0.00  0.00    +0.008 C 
ATOM      6  C   UNL     1       9.350   2.542   3.292  0.00  0.00    -0.009 C 
ATOM      7  C   UNL     1       9.394   3.412   4.550  0.00  0.00    +0.003 C 
ATOM      8  C   UNL     1       7.984   3.905   4.879  0.00  0.00    +0.002 C 
ATOM      9  C   UNL     1       7.446   4.729   3.707  0.00  0.00    +0.022 C 
ATOM     10  C   UNL     1       7.401   3.859   2.450  0.00  0.00    +0.076 C 
ATOM     11  C   UNL     1       8.812   3.366   2.120  0.00  0.00    +0.009 C 
ATOM     12  C   UNL     1       8.767   2.495   0.863  0.00  0.00    +0.009 C 
ENDBRANCH   1  10
BRANCH   2  13
ATOM     13  C   UNL     1       5.026   5.573  -0.015  0.00  0.00    +0.151 C 
BRANCH  13  14
ATOM     14  C   UNL     1       3.519   5.541  -0.001  0.00  0.00    +0.058 A 
ATOM     15  C   UNL     1       2.814   6.703   0.013  0.00  0.00    +0.071 A 
ATOM     16  S   UNL     1       1.140   6.074   0.025  0.00  0.00    -0.072 S 
ATOM     17  C   UNL     1       1.559   4.336   0.011  0.00  0.00    +0.144 A 
ATOM     18  N   UNL     1       2.886   4.391   0.003  0.00  0.00    -0.240 NA
BRANCH  17  19
ATOM     19  C   UNL     1       0.674   3.162   0.013  0.00  0.00    +0.160 A 
ATOM     20  C   UNL     1      -0.689   3.187   0.026  0.00  0.00    +0.052 A 
ATOM     21  C   UNL     1      -1.119   1.846   0.017  0.00  0.00    +0.042 A 
ATOM     22  C   UNL     1      -0.013   1.076   0.008  0.00  0.00    +0.196 A 
ATOM     23  O   UNL     1       1.068   1.873   0.002  0.00  0.00    -0.461 OA
ENDBRANCH  17  19
ENDBRANCH  13  14
ENDBRANCH   2  13
TORSDOF 4
