REMARK  Name = ZINC41838709
REMARK  7 active torsions:
REMARK  status: ('A' for Active; 'I' for Inactive)
REMARK    1  A    between atoms: C_1  and  C_2
REMARK    2  A    between atoms: C_2  and  C_3
REMARK    3  A    between atoms: C_2  and  C_4
REMARK    4  A    between atoms: C_2  and  C_5
REMARK    5  A    between atoms: N_13  and  C_17
REMARK    6  A    between atoms: C_17  and  C_18
REMARK    7  A    between atoms: C_24  and  C_27
REMARK                            x       y       z     vdW  Elec       q    Type
REMARK                         _______ _______ _______ _____ _____    ______ ____
ROOT
ATOM      1  C   UNL     1       0.718  -0.497  -1.257  0.00  0.00    -0.005 C 
ATOM      2  C   UNL     1       0.738  -2.027  -1.265  0.00  0.00    +0.006 C 
ATOM      3  C   UNL     1       1.444  -2.520  -2.531  0.00  0.00    +0.035 C 
ATOM      4  C   UNL     1       2.868  -1.976  -2.567  0.00  0.00    +0.113 C 
ATOM      5  C   UNL     1       2.865  -0.452  -2.534  0.00  0.00    +0.035 C 
ATOM      6  C   UNL     1       2.154   0.032  -1.268  0.00  0.00    +0.006 C 
ATOM      7  C   UNL     1       3.673  -2.528  -1.413  0.00  0.00    +0.247 C 
ATOM      8  O   UNL     1       3.458  -2.379  -0.230  0.00  0.00    -0.273 OA
ATOM      9  N   UNL     1       4.683  -3.223  -1.978  0.00  0.00    -0.215 N 
ATOM     10  C   UNL     1       4.622  -3.182  -3.315  0.00  0.00    +0.310 C 
ATOM     11  O   UNL     1       5.422  -3.733  -4.045  0.00  0.00    -0.252 OA
ATOM     12  N   UNL     1       3.574  -2.462  -3.760  0.00  0.00    -0.285 N 
ATOM     13  H   UNL     1       3.333  -2.298  -4.685  0.00  0.00    +0.151 HD
ENDROOT
BRANCH   1  15
ATOM     14  C   UNL     1      -0.019   1.526   0.010  0.00  0.00    +0.011 C 
ATOM     15  C   UNL     1       0.002  -0.004   0.002  0.00  0.00    -0.035 C 
ATOM     16  C   UNL     1       0.742  -0.511   1.242  0.00  0.00    +0.011 C 
ATOM     17  C   UNL     1      -1.433  -0.534   0.013  0.00  0.00    +0.011 C 
ENDBRANCH   1  15
BRANCH   9  18
ATOM     18  C   UNL     1       5.718  -3.932  -1.222  0.00  0.00    +0.213 C 
BRANCH  18  19
ATOM     19  C   UNL     1       5.269  -5.347  -0.961  0.00  0.00    +0.234 C 
ATOM     20  O   UNL     1       4.190  -5.725  -1.367  0.00  0.00    -0.274 OA
ATOM     21  N   UNL     1       6.065  -6.192  -0.277  0.00  0.00    -0.299 N 
ATOM     22  C   UNL     1       7.372  -5.746   0.225  0.00  0.00    +0.108 C 
ATOM     23  C   UNL     1       8.448  -6.717  -0.272  0.00  0.00    +0.020 C 
ATOM     24  C   UNL     1       8.071  -8.143   0.135  0.00  0.00    +0.016 C 
ATOM     25  C   UNL     1       6.739  -8.525  -0.514  0.00  0.00    +0.092 C 
ATOM     26  C   UNL     1       5.641  -7.574  -0.015  0.00  0.00    +0.120 C 
BRANCH  25  27
ATOM     27  C   UNL     1       6.385  -9.941  -0.140  0.00  0.00    +0.215 C 
ATOM     28  O   UNL     1       7.125 -10.582   0.576  0.00  0.00    -0.276 OA
ATOM     29  N   UNL     1       5.246 -10.495  -0.600  0.00  0.00    -0.329 N 
ATOM     30  H   UNL     1       4.654  -9.982  -1.173  0.00  0.00    +0.145 HD
ATOM     31  H   UNL     1       5.018 -11.406  -0.359  0.00  0.00    +0.145 HD
ENDBRANCH  25  27
ENDBRANCH  18  19
ENDBRANCH   9  18
TORSDOF 4
