REMARK  Name = ZINC58201765
REMARK  8 active torsions:
REMARK  status: ('A' for Active; 'I' for Inactive)
REMARK    1  A    between atoms: C_1  and  C_2
REMARK    2  A    between atoms: C_3  and  C_25
REMARK    3  A    between atoms: C_4  and  C_24
REMARK    4  A    between atoms: C_7  and  C_8
REMARK    5  A    between atoms: C_19  and  N_20
REMARK    6  A    between atoms: C_21  and  C_23
REMARK    7  A    between atoms: C_25  and  O_27
REMARK    8  A    between atoms: O_27  and  C_28
REMARK                            x       y       z     vdW  Elec       q    Type
REMARK                         _______ _______ _______ _____ _____    ______ ____
ROOT
ATOM      1  C   UNL     1      -0.199  -0.288   2.491  0.00  0.00    +0.267 C 
ATOM      2  O   UNL     1      -0.058   0.885   2.781  0.00  0.00    -0.268 OA
ATOM      3  N   UNL     1      -0.272  -1.219   3.462  0.00  0.00    -0.266 N 
ATOM      4  C   UNL     1      -0.350  -2.647   3.124  0.00  0.00    +0.114 C 
ATOM      5  C   UNL     1      -1.432  -3.280   4.010  0.00  0.00    +0.024 C 
ATOM      6  C   UNL     1      -1.002  -3.166   5.472  0.00  0.00    +0.040 C 
ATOM      7  C   UNL     1      -0.621  -1.747   5.801  0.00  0.00    -0.005 A 
ATOM      8  C   UNL     1      -0.269  -0.842   4.812  0.00  0.00    +0.042 A 
ATOM      9  C   UNL     1       0.087   0.459   5.150  0.00  0.00    +0.024 A 
ATOM     10  C   UNL     1       0.094   0.856   6.473  0.00  0.00    +0.004 A 
ATOM     11  C   UNL     1      -0.253  -0.041   7.464  0.00  0.00    +0.024 A 
ATOM     12  C   UNL     1      -0.620  -1.342   7.131  0.00  0.00    +0.038 A 
ENDROOT
BRANCH   1  19
ATOM     13  C   UNL     1      -1.280   1.493   0.169  0.00  0.00    +0.047 C 
ATOM     14  C   UNL     1      -0.761   0.082   0.061  0.00  0.00    -0.006 A 
ATOM     15  C   UNL     1      -0.665  -0.690  -1.119  0.00  0.00    +0.083 A 
ATOM     16  C   UNL     1      -0.139  -1.917  -0.759  0.00  0.00    +0.028 A 
ATOM     17  N   UNL     1       0.081  -1.911   0.565  0.00  0.00    -0.354 N 
ATOM     18  H   UNL     1       0.447  -2.650   1.076  0.00  0.00    +0.166 HD
ATOM     19  C   UNL     1      -0.291  -0.689   1.082  0.00  0.00    +0.106 A 
ATOM     20  C   UNL     1       0.141  -3.065  -1.695  0.00  0.00    +0.064 C 
BRANCH  15  21
ATOM     21  C   UNL     1      -1.054  -0.268  -2.475  0.00  0.00    +0.341 C 
ATOM     22  O   UNL     1      -0.242   0.277  -3.198  0.00  0.00    -0.245 OA
BRANCH  21  23
ATOM     23  O   UNL     1      -2.309  -0.485  -2.915  0.00  0.00    -0.464 OA
ATOM     24  C   UNL     1      -2.616  -0.050  -4.241  0.00  0.00    +0.280 C 
ENDBRANCH  21  23
ENDBRANCH  15  21
ENDBRANCH   1  19
BRANCH  12  25
ATOM     25  N   UNL     1      -0.971  -2.248   8.138  0.00  0.00    -0.285 N 
ATOM     26  C   UNL     1      -0.587  -2.025   9.410  0.00  0.00    +0.214 C 
ATOM     27  O   UNL     1       0.146  -1.094   9.668  0.00  0.00    -0.276 OA
ATOM     28  C   UNL     1      -1.070  -2.932  10.513  0.00  0.00    +0.109 C 
ATOM     29  H   UNL     1      -1.491  -3.038   7.919  0.00  0.00    +0.155 HD
ENDBRANCH  12  25
TORSDOF 4
