REMARK  Name = ZINC35652426
REMARK  2 active torsions:
REMARK  status: ('A' for Active; 'I' for Inactive)
REMARK    1  A    between atoms: C_5  and  N_8
REMARK    2  A    between atoms: N_8  and  C_9
REMARK                            x       y       z     vdW  Elec       q    Type
REMARK                         _______ _______ _______ _____ _____    ______ ____
ROOT
ATOM      1  N   UNL     1       1.238  -2.080  -0.021  0.00  0.00    -0.339 N 
ATOM      2  H   UNL     1       2.033  -2.054   0.533  0.00  0.00    +0.146 HD
ENDROOT
BRANCH   1   7
ATOM      3  C   UNL     1       0.584   0.521  -2.539  0.00  0.00    +0.042 A 
ATOM      4  C   UNL     1       1.164  -0.048  -3.660  0.00  0.00    +0.044 A 
ATOM      5  C   UNL     1       1.768  -1.290  -3.575  0.00  0.00    +0.042 A 
ATOM      6  C   UNL     1       1.794  -1.966  -2.369  0.00  0.00    +0.065 A 
ATOM      7  C   UNL     1       1.213  -1.397  -1.243  0.00  0.00    +0.065 A 
ATOM      8  C   UNL     1       0.607  -0.150  -1.331  0.00  0.00    +0.065 A 
ATOM      9 CL   UNL     1      -0.121   0.564   0.074  0.00  0.00    -0.082 Cl
ATOM     10 CL   UNL     1       2.553  -3.524  -2.264  0.00  0.00    -0.082 Cl
ATOM     11 CL   UNL     1       1.133   0.799  -5.175  0.00  0.00    -0.083 Cl
ENDBRANCH   1   7
BRANCH   1  12
ATOM     12  C   UNL     1       0.062  -2.834   0.420  0.00  0.00    +0.073 C 
ATOM     13  C   UNL     1       0.020  -2.852   1.945  0.00  0.00    +0.045 C 
ATOM     14  C   UNL     1      -1.329  -3.395   2.425  0.00  0.00    +0.167 C 
ATOM     15  S   UNL     1      -1.500  -5.117   1.870  0.00  0.00    -0.031 S 
ATOM     16  O   UNL     1      -2.847  -5.524   2.068  0.00  0.00    -0.174 OA
ATOM     17  O   UNL     1      -0.452  -5.884   2.448  0.00  0.00    -0.174 OA
ATOM     18  C   UNL     1      -1.196  -4.972   0.085  0.00  0.00    +0.167 C 
ATOM     19  C   UNL     1       0.138  -4.253  -0.135  0.00  0.00    +0.045 C 
ENDBRANCH   1  12
TORSDOF 2
