REMARK  Name = ZINC04868918
REMARK  3 active torsions:
REMARK  status: ('A' for Active; 'I' for Inactive)
REMARK    1  A    between atoms: C_1  and  N_2
REMARK    2  A    between atoms: C_9  and  C_12
REMARK    3  A    between atoms: C_9  and  O_24
REMARK                            x       y       z     vdW  Elec       q    Type
REMARK                         _______ _______ _______ _____ _____    ______ ____
ROOT
ATOM      1  C   UNL     1       0.133   4.841  -2.820  0.00  0.00    +0.138 C 
ATOM      2  N   UNL     1      -0.107   3.457  -2.404  0.00  0.00    -0.271 N 
ATOM      3  C   UNL     1       0.289   2.342  -3.144  0.00  0.00    +0.042 A 
ATOM      4  C   UNL     1       0.956   2.249  -4.365  0.00  0.00    +0.025 A 
ATOM      5  C   UNL     1       1.242   1.013  -4.905  0.00  0.00    +0.017 A 
ATOM      6  C   UNL     1       0.869  -0.143  -4.243  0.00  0.00    +0.018 A 
ATOM      7  C   UNL     1       0.206  -0.059  -3.030  0.00  0.00    +0.024 A 
ATOM      8  C   UNL     1      -0.082   1.171  -2.489  0.00  0.00    +0.016 A 
ATOM      9  C   UNL     1      -0.772   1.602  -1.216  0.00  0.00    +0.178 C 
ATOM     10  C   UNL     1      -0.733   3.115  -1.265  0.00  0.00    +0.257 C 
ATOM     11  O   UNL     1      -1.182   3.875  -0.433  0.00  0.00    -0.272 OA
ATOM     12 BR   UNL     1       1.264  -1.834  -4.992  0.00  0.00    -0.050 Br
ENDROOT
BRANCH   9  13
ATOM     13  C   UNL     1      -0.013   1.086   0.008  0.00  0.00    +0.106 C 
ATOM     14  C   UNL     1      -0.683   1.591   1.292  0.00  0.00    +0.020 C 
ATOM     15  C   UNL     1       0.032   0.999   2.504  0.00  0.00    +0.036 C 
ATOM     16  C   UNL     1       1.507   1.288   2.462  0.00  0.00    -0.037 A 
ATOM     17  C   UNL     1       2.233   1.260   3.639  0.00  0.00    +0.004 A 
ATOM     18  C   UNL     1       3.592   1.511   3.628  0.00  0.00    +0.000 A 
ATOM     19  C   UNL     1       4.245   1.794   2.441  0.00  0.00    +0.001 A 
ATOM     20  C   UNL     1       3.537   1.830   1.258  0.00  0.00    +0.011 A 
ATOM     21  C   UNL     1       2.162   1.578   1.264  0.00  0.00    +0.021 A 
ATOM     22  C   UNL     1       1.405   1.620  -0.003  0.00  0.00    +0.170 C 
ATOM     23  O   UNL     1       1.900   2.066  -1.016  0.00  0.00    -0.292 OA
ENDBRANCH   9  13
BRANCH   9  24
ATOM     24  O   UNL     1      -2.124   1.137  -1.197  0.00  0.00    -0.374 OA
ATOM     25  H   UNL     1      -2.652   1.435  -1.950  0.00  0.00    +0.211 HD
ENDBRANCH   9  24
TORSDOF 2
