REMARK  Name = ZINC12167304
REMARK  6 active torsions:
REMARK  status: ('A' for Active; 'I' for Inactive)
REMARK    1  A    between atoms: C_1  and  C_2
REMARK    2  A    between atoms: C_2  and  N_3
REMARK    3  A    between atoms: C_7  and  N_14
REMARK    4  A    between atoms: C_15  and  C_17
REMARK    5  A    between atoms: C_17  and  C_18
REMARK    6  A    between atoms: C_17  and  C_24
REMARK                            x       y       z     vdW  Elec       q    Type
REMARK                         _______ _______ _______ _____ _____    ______ ____
ROOT
ATOM      1  N   UNL     1      -1.433  -3.147   1.919  0.00  0.00    -0.285 N 
ATOM      2  C   UNL     1      -1.710  -4.428   1.603  0.00  0.00    +0.229 C 
ATOM      3  O   UNL     1      -0.841  -5.143   1.151  0.00  0.00    -0.274 OA
ATOM      4  H   UNL     1      -2.107  -2.595   2.344  0.00  0.00    +0.155 HD
ENDROOT
BRANCH   1   9
ATOM      5  N   UNL     1       3.595  -1.027   0.779  0.00  0.00    -0.266 N 
ATOM      6  C   UNL     1       2.327  -1.552   1.075  0.00  0.00    +0.078 A 
ATOM      7  C   UNL     1       1.577  -1.038   2.120  0.00  0.00    +0.029 A 
ATOM      8  C   UNL     1       0.331  -1.568   2.398  0.00  0.00    +0.025 A 
ATOM      9  C   UNL     1      -0.169  -2.614   1.633  0.00  0.00    +0.037 A 
ATOM     10  C   UNL     1       0.581  -3.131   0.586  0.00  0.00    +0.070 A 
ATOM     11  C   UNL     1       1.828  -2.602   0.306  0.00  0.00    +0.144 A 
ATOM     12  O   UNL     1       2.577  -3.096  -0.717  0.00  0.00    -0.481 OA
ATOM     13  C   UNL     1       3.414  -2.167  -1.409  0.00  0.00    +0.325 C 
ATOM     14  C   UNL     1       4.163  -1.319  -0.411  0.00  0.00    +0.257 C 
ATOM     15  O   UNL     1       5.270  -0.902  -0.677  0.00  0.00    -0.272 OA
BRANCH   5  17
ATOM     16  C   UNL     1       5.153  -1.044   2.664  0.00  0.00    +0.025 C 
ATOM     17  C   UNL     1       4.292  -0.175   1.746  0.00  0.00    +0.110 C 
ENDBRANCH   5  17
ENDBRANCH   1   9
BRANCH   2  18
ATOM     18  C   UNL     1      -3.101  -4.970   1.810  0.00  0.00    +0.135 C 
BRANCH  18  19
ATOM     19  C   UNL     1      -3.145  -6.415   1.382  0.00  0.00    -0.031 A 
ATOM     20  C   UNL     1      -2.223  -7.313   1.884  0.00  0.00    +0.005 A 
ATOM     21  C   UNL     1      -2.267  -8.639   1.495  0.00  0.00    +0.000 A 
ATOM     22  C   UNL     1      -3.227  -9.064   0.596  0.00  0.00    +0.000 A 
ATOM     23  C   UNL     1      -4.146  -8.164   0.089  0.00  0.00    +0.000 A 
ATOM     24  C   UNL     1      -4.105  -6.839   0.483  0.00  0.00    +0.005 A 
ENDBRANCH  18  19
BRANCH  18  25
ATOM     25  C   UNL     1      -3.468  -4.867   3.268  0.00  0.00    -0.031 A 
ATOM     26  C   UNL     1      -2.630  -5.398   4.231  0.00  0.00    +0.005 A 
ATOM     27  C   UNL     1      -2.964  -5.299   5.569  0.00  0.00    +0.000 A 
ATOM     28  C   UNL     1      -4.141  -4.678   5.943  0.00  0.00    +0.000 A 
ATOM     29  C   UNL     1      -4.982  -4.153   4.980  0.00  0.00    +0.000 A 
ATOM     30  C   UNL     1      -4.645  -4.247   3.642  0.00  0.00    +0.005 A 
ENDBRANCH  18  25
ENDBRANCH   2  18
TORSDOF 5
