REMARK  Name = ZINC01226322
REMARK  3 active torsions:
REMARK  status: ('A' for Active; 'I' for Inactive)
REMARK    1  A    between atoms: C_9  and  C_12
REMARK    2  A    between atoms: N_14  and  N_15
REMARK    3  A    between atoms: C_16  and  C_17
REMARK                            x       y       z     vdW  Elec       q    Type
REMARK                         _______ _______ _______ _____ _____    ______ ____
ROOT
ATOM      1  C   UNL     1      -4.777  -0.197   0.045  0.00  0.00    +0.276 C 
ATOM      2  O   UNL     1      -4.796   1.016   0.051  0.00  0.00    -0.270 OA
ATOM      3  N   UNL     1      -3.599  -0.852   0.030  0.00  0.00    -0.204 N 
ATOM      4  H   UNL     1      -3.583  -1.821   0.025  0.00  0.00    +0.177 HD
ENDROOT
BRANCH   1  13
ATOM      5  C   UNL     1     -10.940  -1.555  -0.627  0.00  0.00    +0.004 A 
ATOM      6  C   UNL     1     -10.794  -0.379   0.084  0.00  0.00    +0.004 A 
ATOM      7  C   UNL     1      -9.532   0.115   0.355  0.00  0.00    +0.049 A 
ATOM      8  C   UNL     1      -8.409  -0.569  -0.087  0.00  0.00    +0.163 A 
ATOM      9  C   UNL     1      -8.556  -1.752  -0.800  0.00  0.00    +0.162 A 
ATOM     10  C   UNL     1      -9.825  -2.242  -1.069  0.00  0.00    +0.049 A 
ATOM     11  O   UNL     1      -7.467  -2.443  -1.236  0.00  0.00    -0.484 OA
ATOM     12  C   UNL     1      -6.226  -1.730  -1.272  0.00  0.00    +0.283 C 
ATOM     13  C   UNL     1      -6.069  -0.971   0.052  0.00  0.00    +0.297 C 
ATOM     14  O   UNL     1      -7.172  -0.068   0.185  0.00  0.00    -0.472 OA
ENDBRANCH   1  13
BRANCH   3  15
ATOM     15  N   UNL     1      -2.397  -0.131   0.023  0.00  0.00    -0.188 NA
ATOM     16  C   UNL     1      -1.263  -0.762   0.009  0.00  0.00    +0.139 C 
BRANCH  16  17
ATOM     17  C   UNL     1       0.002  -0.004   0.002  0.00  0.00    +0.013 A 
ATOM     18  C   UNL     1       1.225  -0.680  -0.013  0.00  0.00    +0.012 A 
ATOM     19  C   UNL     1       2.404   0.035  -0.021  0.00  0.00    +0.021 A 
ATOM     20  C   UNL     1       2.379   1.420  -0.013  0.00  0.00    +0.042 A 
ATOM     21  C   UNL     1       1.171   2.097   0.002  0.00  0.00    +0.040 A 
ATOM     22  C   UNL     1      -0.017   1.394   0.010  0.00  0.00    +0.051 A 
ATOM     23 CL   UNL     1      -1.531   2.244   0.021  0.00  0.00    -0.083 Cl
ATOM     24 CL   UNL     1       3.869   2.311  -0.024  0.00  0.00    -0.083 Cl
ENDBRANCH  16  17
ENDBRANCH   3  15
TORSDOF 3
