REMARK  Name = ZINC05474606
REMARK  7 active torsions:
REMARK  status: ('A' for Active; 'I' for Inactive)
REMARK    1  A    between atoms: C_1  and  C_2
REMARK    2  A    between atoms: C_4  and  C_23
REMARK    3  A    between atoms: C_5  and  C_22
REMARK    4  A    between atoms: C_6  and  O_8
REMARK    5  A    between atoms: O_8  and  C_9
REMARK    6  A    between atoms: C_9  and  C_10
REMARK    7  A    between atoms: N_15  and  C_16
REMARK                            x       y       z     vdW  Elec       q    Type
REMARK                         _______ _______ _______ _____ _____    ______ ____
ROOT
ATOM      1  C   UNL     1       1.123   3.381   0.009  0.00  0.00    +0.258 C 
ATOM      2  O   UNL     1       0.065   3.973   0.023  0.00  0.00    -0.272 OA
ATOM      3  N   UNL     1       1.142   2.033   0.002  0.00  0.00    -0.237 N 
ATOM      4  C   UNL     1      -0.016   1.344   0.009  0.00  0.00    +0.306 C 
ATOM      5  O   UNL     1      -1.077   1.937   0.018  0.00  0.00    -0.252 OA
ATOM      6  N   UNL     1       0.002  -0.004   0.002  0.00  0.00    -0.296 N 
ATOM      7  H   UNL     1       1.988   1.560  -0.009  0.00  0.00    +0.159 HD
ATOM      8  H   UNL     1       0.849  -0.478  -0.009  0.00  0.00    +0.151 HD
ENDROOT
BRANCH   6   9
ATOM      9  C   UNL     1      -1.256  -0.754   0.010  0.00  0.00    +0.074 C 
ATOM     10  C   UNL     1      -1.745  -0.914   1.451  0.00  0.00    +0.022 C 
ATOM     11  C   UNL     1      -3.060  -1.697   1.459  0.00  0.00    +0.002 C 
ATOM     12  C   UNL     1      -2.835  -3.078   0.840  0.00  0.00    +0.000 C 
ATOM     13  C   UNL     1      -2.346  -2.918  -0.601  0.00  0.00    +0.002 C 
ATOM     14  C   UNL     1      -1.032  -2.135  -0.609  0.00  0.00    +0.022 C 
ENDBRANCH   6   9
BRANCH   1  15
ATOM     15  C   UNL     1       2.418   4.152   0.001  0.00  0.00    +0.325 C 
BRANCH  15  16
ATOM     16  O   UNL     1       2.138   5.553   0.011  0.00  0.00    -0.482 OA
BRANCH  16  22
ATOM     17  C   UNL     1       6.977   6.188  -0.031  0.00  0.00    +0.044 C 
ATOM     18  C   UNL     1       5.576   6.742  -0.015  0.00  0.00    -0.047 A 
ATOM     19  C   UNL     1       5.375   8.111  -0.005  0.00  0.00    +0.007 A 
ATOM     20  C   UNL     1       4.091   8.623   0.010  0.00  0.00    -0.044 A 
ATOM     21  C   UNL     1       3.005   7.769   0.009  0.00  0.00    -0.006 A 
ATOM     22  C   UNL     1       3.204   6.396   0.006  0.00  0.00    +0.125 A 
ATOM     23  C   UNL     1       4.494   5.884  -0.009  0.00  0.00    +0.049 A 
ATOM     24  C   UNL     1       1.606   8.328   0.019  0.00  0.00    +0.048 C 
ATOM     25  C   UNL     1       3.876  10.114   0.021  0.00  0.00    +0.044 C 
ENDBRANCH  16  22
ENDBRANCH  15  16
ENDBRANCH   1  15
TORSDOF 4
