REMARK  Name = ZINC36601309
REMARK  17 active torsions:
REMARK  status: ('A' for Active; 'I' for Inactive)
REMARK    1  A    between atoms: C_1  and  C_2
REMARK    2  A    between atoms: C_5  and  C_7
REMARK    3  A    between atoms: C_7  and  N_8
REMARK    4  A    between atoms: N_8  and  C_9
REMARK    5  A    between atoms: C_9  and  C_11
REMARK    6  A    between atoms: C_9  and  C_18
REMARK    7  A    between atoms: C_14  and  O_17
REMARK    8  A    between atoms: N_20  and  C_21
REMARK    9  A    between atoms: C_21  and  C_22
REMARK   10  A    between atoms: C_21  and  C_23
REMARK   11  A    between atoms: C_21  and  C_24
REMARK   12  A    between atoms: C_24  and  C_25
REMARK   13  A    between atoms: C_25  and  C_26
REMARK   14  A    between atoms: C_25  and  C_27
REMARK   15  A    between atoms: C_25  and  C_28
REMARK   16  A    between atoms: C_29  and  C_31
REMARK   17  A    between atoms: C_35  and  N_37
REMARK                            x       y       z     vdW  Elec       q    Type
REMARK                         _______ _______ _______ _____ _____    ______ ____
ROOT
ATOM      1  C   UNL     1       3.257  -2.973  -1.206  0.00  0.00    +0.193 C 
ENDROOT
BRANCH   1   2
ATOM      2  C   UNL     1       2.449  -1.705  -1.306  0.00  0.00    -0.018 A 
ATOM      3  C   UNL     1       2.096  -1.019  -0.159  0.00  0.00    +0.009 A 
ATOM      4  C   UNL     1       1.356   0.144  -0.249  0.00  0.00    +0.046 A 
ATOM      5  C   UNL     1       0.967   0.623  -1.491  0.00  0.00    +0.117 A 
ATOM      6  C   UNL     1       1.322  -0.067  -2.641  0.00  0.00    +0.046 A 
ATOM      7  C   UNL     1       2.067  -1.226  -2.546  0.00  0.00    +0.009 A 
BRANCH   5   8
ATOM      8  O   UNL     1       0.238   1.767  -1.582  0.00  0.00    -0.507 OA
ATOM      9  H   UNL     1       0.772   2.569  -1.660  0.00  0.00    +0.292 HD
ENDBRANCH   5   8
ENDBRANCH   1   2
BRANCH   1  10
ATOM     10  C   UNL     1       4.725  -2.635  -1.202  0.00  0.00    +0.239 C 
ATOM     11  O   UNL     1       5.445  -3.068  -0.327  0.00  0.00    -0.273 OA
ATOM     12  N   UNL     1       5.239  -1.851  -2.171  0.00  0.00    -0.308 N 
ATOM     13  H   UNL     1       4.652  -1.448  -2.830  0.00  0.00    +0.149 HD
BRANCH  12  14
ATOM     14  C   UNL     1       6.682  -1.608  -2.228  0.00  0.00    +0.030 C 
ATOM     15  C   UNL     1       7.081  -0.642  -1.110  0.00  0.00    +0.031 C 
ATOM     16  C   UNL     1       7.430  -2.931  -2.050  0.00  0.00    +0.031 C 
BRANCH  14  17
ATOM     17  C   UNL     1       7.043  -0.996  -3.583  0.00  0.00    +0.031 C 
BRANCH  17  18
ATOM     18  C   UNL     1       6.316  -1.755  -4.695  0.00  0.00    -0.036 C 
ATOM     19  C   UNL     1       4.844  -1.340  -4.717  0.00  0.00    +0.010 C 
ATOM     20  C   UNL     1       6.960  -1.425  -6.043  0.00  0.00    +0.010 C 
ATOM     21  C   UNL     1       6.418  -3.260  -4.436  0.00  0.00    +0.010 C 
ENDBRANCH  17  18
ENDBRANCH  14  17
ENDBRANCH  12  14
ENDBRANCH   1  10
BRANCH   1  22
ATOM     22  N   UNL     1       2.913  -3.674   0.034  0.00  0.00    -0.275 N 
ATOM     23  C   UNL     1       1.651  -4.098   0.241  0.00  0.00    +0.248 C 
ATOM     24  O   UNL     1       1.318  -4.500   1.339  0.00  0.00    -0.270 OA
BRANCH  23  25
ATOM     25  C   UNL     1       0.672  -4.075  -0.866  0.00  0.00    +0.039 A 
ATOM     26  C   UNL     1       1.014  -3.501  -2.092  0.00  0.00    +0.013 A 
ATOM     27  C   UNL     1       0.097  -3.483  -3.122  0.00  0.00    +0.003 A 
ATOM     28  C   UNL     1      -1.161  -4.032  -2.942  0.00  0.00    +0.033 A 
ATOM     29  C   UNL     1      -1.506  -4.602  -1.729  0.00  0.00    +0.127 A 
ATOM     30  C   UNL     1      -0.596  -4.632  -0.693  0.00  0.00    +0.045 A 
BRANCH  29  31
ATOM     31  N   UNL     1      -2.854  -5.186  -1.545  0.00  0.00    +0.056 N 
ATOM     32  O   UNL     1      -3.651  -5.165  -2.454  0.00  0.00    -0.126 OA
ATOM     33  O   UNL     1      -3.157  -5.684  -0.486  0.00  0.00    -0.126 OA
ENDBRANCH  29  31
ENDBRANCH  23  25
BRANCH  22  34
ATOM     34  C   UNL     1       3.942  -3.912   1.049  0.00  0.00    +0.183 C 
BRANCH  34  39
ATOM     35  C   UNL     1       4.664  -8.904   1.102  0.00  0.00    +0.086 C 
ATOM     36  C   UNL     1       4.882  -7.435   0.845  0.00  0.00    +0.102 A 
ATOM     37  C   UNL     1       5.935  -6.896   0.206  0.00  0.00    +0.045 A 
ATOM     38  C   UNL     1       5.733  -5.497   0.192  0.00  0.00    +0.046 A 
ATOM     39  C   UNL     1       4.568  -5.265   0.822  0.00  0.00    +0.122 A 
ATOM     40  O   UNL     1       4.054  -6.443   1.211  0.00  0.00    -0.463 OA
ENDBRANCH  34  39
ENDBRANCH  22  34
ENDBRANCH   1  22
TORSDOF 11
