REMARK  Name = ZINC17157639
REMARK  3 active torsions:
REMARK  status: ('A' for Active; 'I' for Inactive)
REMARK    1  A    between atoms: C_1  and  C_2
REMARK    2  A    between atoms: C_2  and  C_8
REMARK    3  A    between atoms: N_3  and  N_4
REMARK                            x       y       z     vdW  Elec       q    Type
REMARK                         _______ _______ _______ _____ _____    ______ ____
ROOT
ATOM      1  C   UNL     1      -3.686   3.726   1.423  0.00  0.00    +0.063 C 
ATOM      2  C   UNL     1      -2.866   3.278   0.240  0.00  0.00    +0.044 C 
ATOM      3  N   UNL     1      -3.397   2.548  -0.667  0.00  0.00    -0.187 NA
ENDROOT
BRANCH   2   4
ATOM      4  C   UNL     1      -1.421   3.691   0.125  0.00  0.00    +0.031 C 
ATOM      5  C   UNL     1      -0.673   3.107   1.327  0.00  0.00    +0.017 C 
ATOM      6  C   UNL     1      -0.729   1.579   1.266  0.00  0.00    +0.002 C 
ATOM      7  C   UNL     1      -0.013   1.086   0.008  0.00  0.00    +0.004 C 
ATOM      8  C   UNL     1      -0.753   1.593  -1.233  0.00  0.00    +0.031 C 
ATOM      9  C   UNL     1      -0.864   3.106  -1.140  0.00  0.00    -0.062 C 
ATOM     10  C   UNL     1      -0.474   3.816  -2.158  0.00  0.00    -0.027 C 
ATOM     11  C   UNL     1      -0.528   5.316  -2.181  0.00  0.00    +0.027 C 
ATOM     12  C   UNL     1      -1.631   5.790  -1.229  0.00  0.00    +0.005 C 
ATOM     13  C   UNL     1      -1.355   5.208   0.157  0.00  0.00    +0.017 C 
ENDBRANCH   2   4
BRANCH   3  14
ATOM     14  N   UNL     1      -4.741   2.164  -0.560  0.00  0.00    -0.191 N 
ATOM     15  C   UNL     1      -5.300   1.395  -1.515  0.00  0.00    +0.317 C 
ATOM     16  O   UNL     1      -6.466   1.062  -1.423  0.00  0.00    -0.251 OA
ATOM     17  N   UNL     1      -4.567   0.995  -2.573  0.00  0.00    -0.312 N 
ATOM     18  H   UNL     1      -5.268   2.452   0.201  0.00  0.00    +0.179 HD
ATOM     19  H   UNL     1      -3.637   1.260  -2.647  0.00  0.00    +0.147 HD
ATOM     20  H   UNL     1      -4.970   0.441  -3.260  0.00  0.00    +0.147 HD
ENDBRANCH   3  14
TORSDOF 2
