REMARK  Name = ZINC19724865
REMARK  2 active torsions:
REMARK  status: ('A' for Active; 'I' for Inactive)
REMARK    1  A    between atoms: C_6  and  C_7
REMARK    2  A    between atoms: C_8  and  C_18
REMARK                            x       y       z     vdW  Elec       q    Type
REMARK                         _______ _______ _______ _____ _____    ______ ____
ROOT
ATOM      1  C   UNL     1      -3.674  -0.777   0.018  0.00  0.00    +0.058 A 
ATOM      2  C   UNL     1      -4.785  -0.488  -0.773  0.00  0.00    +0.047 A 
ATOM      3  C   UNL     1      -5.804  -1.500  -0.433  0.00  0.00    +0.012 A 
ATOM      4  C   UNL     1      -7.103  -1.743  -0.875  0.00  0.00    +0.030 A 
ATOM      5  C   UNL     1      -7.821  -2.793  -0.343  0.00  0.00    +0.042 A 
ATOM      6  C   UNL     1      -7.253  -3.605   0.629  0.00  0.00    +0.022 A 
ATOM      7  C   UNL     1      -5.970  -3.375   1.075  0.00  0.00    +0.027 A 
ATOM      8  C   UNL     1      -5.230  -2.320   0.550  0.00  0.00    +0.048 A 
ATOM      9  N   UNL     1      -3.951  -1.859   0.797  0.00  0.00    -0.354 N 
ATOM     10  H   UNL     1      -3.193  -2.240   1.499  0.00  0.00    +0.166 HD
ATOM     11 CL   UNL     1      -9.439  -3.101  -0.891  0.00  0.00    -0.084 Cl
ENDROOT
BRANCH   1  17
ATOM     12  C   UNL     1      -2.417   1.371   0.025  0.00  0.00    +0.014 A 
ATOM     13  C   UNL     1      -1.229   2.068   0.019  0.00  0.00    +0.050 A 
ATOM     14  C   UNL     1      -0.017   1.389   0.010  0.00  0.00    +0.162 A 
ATOM     15  C   UNL     1       0.002  -0.004   0.002  0.00  0.00    +0.163 A 
ATOM     16  C   UNL     1      -1.186  -0.711   0.004  0.00  0.00    +0.059 A 
ATOM     17  C   UNL     1      -2.405  -0.027   0.015  0.00  0.00    +0.003 A 
ATOM     18  O   UNL     1       1.181  -0.684  -0.006  0.00  0.00    -0.485 OA
ATOM     19  C   UNL     1       2.347   0.054  -0.386  0.00  0.00    +0.270 C 
ATOM     20  C   UNL     1       2.334   1.392   0.366  0.00  0.00    +0.270 C 
ATOM     21  O   UNL     1       1.143   2.099   0.002  0.00  0.00    -0.485 OA
ENDBRANCH   1  17
BRANCH   2  22
ATOM     22  C   UNL     1      -4.910   0.558  -1.712  0.00  0.00    +0.261 C 
ATOM     23  O   UNL     1      -5.943   0.694  -2.336  0.00  0.00    -0.296 OA
ENDBRANCH   2  22
TORSDOF 2
