REMARK  Name = ZINC63479816
REMARK  4 active torsions:
REMARK  status: ('A' for Active; 'I' for Inactive)
REMARK    1  A    between atoms: C_7  and  C_10
REMARK    2  A    between atoms: C_10  and  C_11
REMARK    3  A    between atoms: N_19  and  C_22
REMARK    4  A    between atoms: C_22  and  C_23
REMARK                            x       y       z     vdW  Elec       q    Type
REMARK                         _______ _______ _______ _____ _____    ______ ____
ROOT
ATOM      1  C   UNL     1       0.457  -3.653  -1.462  0.00  0.00    +0.072 C 
ATOM      2  C   UNL     1      -0.436  -4.913  -1.478  0.00  0.00    +0.107 C 
ATOM      3  C   UNL     1      -1.343  -4.741  -2.728  0.00  0.00    +0.122 C 
ATOM      4  C   UNL     1      -0.895  -5.860  -3.641  0.00  0.00    +0.228 C 
ATOM      5  O   UNL     1      -1.346  -6.088  -4.742  0.00  0.00    -0.275 OA
ATOM      6  N   UNL     1       0.077  -6.559  -3.043  0.00  0.00    -0.239 N 
ATOM      7  C   UNL     1       0.415  -6.118  -1.809  0.00  0.00    +0.227 C 
ATOM      8  O   UNL     1       1.258  -6.601  -1.084  0.00  0.00    -0.275 OA
ATOM      9  C   UNL     1      -0.943  -3.382  -3.314  0.00  0.00    +0.136 C 
ATOM     10  N   UNL     1      -0.310  -2.630  -2.220  0.00  0.00    -0.295 NA
ATOM     11  C   UNL     1      -2.128  -2.657  -3.885  0.00  0.00    +0.005 A 
ATOM     12  C   UNL     1      -3.322  -2.223  -3.351  0.00  0.00    +0.008 A 
ATOM     13  C   UNL     1      -4.240  -1.566  -4.149  0.00  0.00    +0.002 A 
ATOM     14  C   UNL     1      -3.958  -1.345  -5.485  0.00  0.00    +0.022 A 
ATOM     15  C   UNL     1      -2.763  -1.777  -6.025  0.00  0.00    +0.062 A 
ATOM     16  C   UNL     1      -1.833  -2.441  -5.227  0.00  0.00    +0.057 A 
ATOM     17  N   UNL     1      -0.576  -2.967  -5.535  0.00  0.00    -0.282 N 
ATOM     18  C   UNL     1       0.012  -3.538  -4.466  0.00  0.00    +0.243 C 
ATOM     19  O   UNL     1       1.100  -4.072  -4.437  0.00  0.00    -0.273 OA
ATOM     20 CL   UNL     1      -2.420  -1.494  -7.703  0.00  0.00    -0.082 Cl
ATOM     21  H   UNL     1      -1.012  -2.199  -1.638  0.00  0.00    +0.124 HD
ATOM     22  H   UNL     1      -0.173  -2.927  -6.417  0.00  0.00    +0.155 HD
ENDROOT
BRANCH   1  23
ATOM     23  C   UNL     1       0.691  -3.186  -0.024  0.00  0.00    +0.052 C 
BRANCH  23  30
ATOM     24  C   UNL     1      -0.016   1.348   0.009  0.00  0.00    +0.001 A 
ATOM     25  C   UNL     1       1.166   2.101   0.002  0.00  0.00    +0.002 A 
ATOM     26  C   UNL     1       2.391   1.535  -0.013  0.00  0.00    +0.026 A 
ATOM     27  C   UNL     1       2.529   0.120  -0.022  0.00  0.00    +0.043 A 
ATOM     28  N   UNL     1       3.587  -0.654  -0.037  0.00  0.00    -0.380 N 
ATOM     29  C   UNL     1       3.143  -2.053  -0.041  0.00  0.00    +0.144 C 
ATOM     30  C   UNL     1       1.631  -2.008  -0.025  0.00  0.00    -0.040 C 
ATOM     31  C   UNL     1       1.295  -0.698  -0.014  0.00  0.00    -0.001 A 
ATOM     32  C   UNL     1       0.002  -0.004   0.002  0.00  0.00    +0.010 A 
ATOM     33  H   UNL     1       4.509  -0.353  -0.045  0.00  0.00    +0.160 HD
ENDBRANCH  23  30
ENDBRANCH   1  23
BRANCH   6  34
ATOM     34  C   UNL     1       0.721  -7.715  -3.670  0.00  0.00    +0.148 C 
BRANCH  34  35
ATOM     35  C   UNL     1       1.934  -7.248  -4.477  0.00  0.00    +0.136 C 
ATOM     36  C   UNL     1       2.548  -8.442  -5.239  0.00  0.00    +0.035 C 
ATOM     37  C   UNL     1       4.072  -8.171  -5.104  0.00  0.00    +0.031 C 
ATOM     38  C   UNL     1       4.132  -7.528  -3.696  0.00  0.00    +0.160 C 
ATOM     39  O   UNL     1       2.937  -6.734  -3.593  0.00  0.00    -0.375 OA
ENDBRANCH  34  35
ENDBRANCH   6  34
TORSDOF 4
