REMARK  Name = ZINC40361743
REMARK  4 active torsions:
REMARK  status: ('A' for Active; 'I' for Inactive)
REMARK    1  A    between atoms: C_3  and  N_9
REMARK    2  A    between atoms: C_6  and  C_7
REMARK    3  A    between atoms: N_12  and  C_13
REMARK    4  A    between atoms: C_13  and  C_20
REMARK                            x       y       z     vdW  Elec       q    Type
REMARK                         _______ _______ _______ _____ _____    ______ ____
ROOT
ATOM      1  N   UNL     1       3.579   2.133  -0.022  0.00  0.00    -0.269 N 
ATOM      2  C   UNL     1       4.755   1.480   0.065  0.00  0.00    +0.305 C 
ATOM      3  O   UNL     1       4.777   0.265   0.058  0.00  0.00    -0.252 OA
ATOM      4  N   UNL     1       5.906   2.175   0.159  0.00  0.00    -0.281 N 
ATOM      5  H   UNL     1       3.565   3.100  -0.094  0.00  0.00    +0.156 HD
ATOM      6  H   UNL     1       5.888   3.144   0.164  0.00  0.00    +0.152 HD
ENDROOT
BRANCH   4   7
ATOM      7  C   UNL     1       7.184   1.465   0.253  0.00  0.00    +0.122 C 
ATOM      8  C   UNL     1       7.389   0.627  -0.980  0.00  0.00    +0.041 C 
ATOM      9  C   UNL     1       8.142  -0.684  -0.683  0.00  0.00    +0.003 C 
ATOM     10  C   UNL     1       9.315  -0.490   0.296  0.00  0.00    +0.000 C 
ATOM     11  C   UNL     1      10.103   0.760   0.011  0.00  0.00    +0.000 C 
ATOM     12  C   UNL     1       9.553   1.898   0.894  0.00  0.00    +0.003 C 
ATOM     13  C   UNL     1       8.337   2.485   0.349  0.00  0.00    +0.041 C 
BRANCH   7  14
ATOM     14  C   UNL     1       7.185   0.604   1.447  0.00  0.00    +0.088 C 
ATOM     15  N   UNL     1       7.185  -0.061   2.368  0.00  0.00    -0.194 NA
ENDBRANCH   7  14
ENDBRANCH   4   7
BRANCH   1  18
ATOM     16  C   UNL     1       1.097  -0.456   0.762  0.00  0.00    +0.020 A 
ATOM     17  C   UNL     1       2.278   0.252   0.745  0.00  0.00    +0.024 A 
ATOM     18  C   UNL     1       2.381   1.418  -0.007  0.00  0.00    +0.035 A 
ATOM     19  C   UNL     1       1.292   1.873  -0.743  0.00  0.00    +0.024 A 
ATOM     20  C   UNL     1       0.108   1.170  -0.731  0.00  0.00    +0.020 A 
ATOM     21  C   UNL     1       0.001  -0.002   0.023  0.00  0.00    +0.052 A 
BRANCH  21  22
ATOM     22  C   UNL     1      -1.228  -0.736   0.038  0.00  0.00    +0.099 C 
ATOM     23  N   UNL     1      -2.204  -1.319   0.050  0.00  0.00    -0.191 NA
ENDBRANCH  21  22
ENDBRANCH   1  18
TORSDOF 4
