REMARK  Name = ZINC38701388
REMARK  12 active torsions:
REMARK  status: ('A' for Active; 'I' for Inactive)
REMARK    1  A    between atoms: C_1  and  C_2
REMARK    2  A    between atoms: C_2  and  C_3
REMARK    3  A    between atoms: C_9  and  C_38
REMARK    4  A    between atoms: C_10  and  C_12
REMARK    5  A    between atoms: C_12  and  O_14
REMARK    6  A    between atoms: O_14  and  C_15
REMARK    7  A    between atoms: C_22  and  N_37
REMARK    8  A    between atoms: C_23  and  C_35
REMARK    9  A    between atoms: C_24  and  C_26
REMARK   10  A    between atoms: C_29  and  O_32
REMARK   11  A    between atoms: O_32  and  C_33
REMARK   12  A    between atoms: C_33  and  C_34
REMARK                            x       y       z     vdW  Elec       q    Type
REMARK                         _______ _______ _______ _____ _____    ______ ____
ROOT
ATOM      1  C   UNL     1       6.341  -3.051  -6.599  0.00  0.00    +0.136 A 
ATOM      2  C   UNL     1       7.501  -3.095  -5.838  0.00  0.00    +0.047 A 
ATOM      3  C   UNL     1       8.689  -3.498  -6.415  0.00  0.00    +0.012 A 
ATOM      4  C   UNL     1       8.729  -3.860  -7.750  0.00  0.00    +0.008 A 
ATOM      5  C   UNL     1       7.574  -3.817  -8.514  0.00  0.00    +0.138 A 
ATOM      6  C   UNL     1       6.377  -3.417  -7.935  0.00  0.00    +0.093 A 
ATOM      7  O   UNL     1       7.593  -4.169  -9.824  0.00  0.00    -0.441 OA
ATOM      8  C   UNL     1       8.756  -4.189 -10.495  0.00  0.00    +0.199 C 
ATOM      9  C   UNL     1       9.950  -4.248  -9.859  0.00  0.00    +0.098 C 
ATOM     10  C   UNL     1      10.035  -4.297  -8.360  0.00  0.00    +0.098 C 
ENDROOT
BRANCH  10  11
ATOM     11  C   UNL     1      10.342  -5.707  -7.923  0.00  0.00    -0.034 A 
ATOM     12  C   UNL     1       9.469  -6.732  -8.236  0.00  0.00    +0.008 A 
ATOM     13  C   UNL     1       9.748  -8.025  -7.836  0.00  0.00    +0.046 A 
ATOM     14  C   UNL     1      10.906  -8.293  -7.120  0.00  0.00    +0.121 A 
ATOM     15  C   UNL     1      11.780  -7.263  -6.808  0.00  0.00    +0.046 A 
ATOM     16  C   UNL     1      11.499  -5.973  -7.214  0.00  0.00    +0.008 A 
BRANCH  14  17
ATOM     17  O   UNL     1      11.183  -9.564  -6.726  0.00  0.00    -0.492 OA
BRANCH  17  18
ATOM     18  C   UNL     1      12.392  -9.767  -5.992  0.00  0.00    +0.225 C 
ATOM     19  C   UNL     1      12.532 -11.248  -5.638  0.00  0.00    +0.048 C 
ENDBRANCH  17  18
ENDBRANCH  14  17
ENDBRANCH  10  11
BRANCH   8  20
ATOM     20  N   UNL     1       8.734  -4.147 -11.867  0.00  0.00    -0.328 N 
ATOM     21  H   UNL     1       7.887  -4.104 -12.338  0.00  0.00    +0.145 HD
ATOM     22  H   UNL     1       9.566  -4.161 -12.367  0.00  0.00    +0.145 HD
ENDBRANCH   8  20
BRANCH   9  23
ATOM     23  C   UNL     1      11.156  -4.265 -10.631  0.00  0.00    +0.101 C 
ATOM     24  N   UNL     1      12.113  -4.279 -11.244  0.00  0.00    -0.191 NA
ENDBRANCH   9  23
BRANCH   1  25
ATOM     25  O   UNL     1       5.171  -2.654  -6.033  0.00  0.00    -0.420 OA
BRANCH  25  26
ATOM     26  C   UNL     1       4.270  -3.605  -5.710  0.00  0.00    +0.380 C 
ATOM     27  O   UNL     1       4.477  -4.765  -6.007  0.00  0.00    -0.241 OA
BRANCH  26  35
ATOM     28  C   UNL     1      -0.922  -2.587  -2.797  0.00  0.00    -0.047 A 
ATOM     29  C   UNL     1      -0.461  -1.278  -2.829  0.00  0.00    +0.007 A 
ATOM     30  C   UNL     1       0.746  -0.970  -3.418  0.00  0.00    +0.047 A 
ATOM     31  C   UNL     1       1.515  -1.978  -3.988  0.00  0.00    +0.136 A 
ATOM     32  C   UNL     1       1.043  -3.304  -3.953  0.00  0.00    +0.024 A 
ATOM     33  C   UNL     1      -0.182  -3.595  -3.346  0.00  0.00    +0.015 A 
ATOM     34  C   UNL     1       2.064  -4.107  -4.623  0.00  0.00    +0.010 A 
ATOM     35  C   UNL     1       3.039  -3.238  -4.999  0.00  0.00    +0.216 A 
ATOM     36  O   UNL     1       2.705  -1.986  -4.620  0.00  0.00    -0.448 OA
ATOM     37  C   UNL     1       2.040  -5.596  -4.852  0.00  0.00    +0.048 C 
BRANCH  28  39
ATOM     38  C   UNL     1      -2.026  -3.202  -0.664  0.00  0.00    +0.009 C 
ATOM     39  C   UNL     1      -2.246  -2.898  -2.147  0.00  0.00    +0.032 C 
ENDBRANCH  28  39
ENDBRANCH  26  35
ENDBRANCH  25  26
ENDBRANCH   1  25
TORSDOF 9
