REMARK  Name = ZINC63744061
REMARK  15 active torsions:
REMARK  status: ('A' for Active; 'I' for Inactive)
REMARK    1  A    between atoms: C_1  and  C_2
REMARK    2  A    between atoms: C_2  and  C_3
REMARK    3  A    between atoms: C_3  and  C_4
REMARK    4  A    between atoms: C_4  and  C_5
REMARK    5  A    between atoms: C_4  and  C_8
REMARK    6  A    between atoms: C_5  and  C_6
REMARK    7  A    between atoms: C_6  and  C_7
REMARK    8  A    between atoms: C_8  and  N_10
REMARK    9  A    between atoms: N_12  and  C_13
REMARK   10  A    between atoms: C_13  and  C_14
REMARK   11  A    between atoms: C_14  and  C_15
REMARK   12  A    between atoms: C_19  and  O_24
REMARK   13  A    between atoms: O_24  and  C_25
REMARK   14  A    between atoms: C_29  and  C_34
REMARK   15  A    between atoms: C_31  and  C_33
REMARK                            x       y       z     vdW  Elec       q    Type
REMARK                         _______ _______ _______ _____ _____    ______ ____
ROOT
ATOM      1  N   UNL     1      -3.165  -4.948  -0.354  0.00  0.00    -0.147 NA
ATOM      2  C   UNL     1      -3.944  -5.304  -1.367  0.00  0.00    +0.196 C 
ATOM      3  N   UNL     1      -4.518  -4.351  -2.152  0.00  0.00    -0.357 N 
ATOM      4  N   UNL     1      -4.170  -6.627  -1.622  0.00  0.00    -0.297 N 
ATOM      5  C   UNL     1      -3.494  -7.600  -0.898  0.00  0.00    +0.231 A 
ATOM      6  N   UNL     1      -2.612  -7.228   0.017  0.00  0.00    -0.217 NA
ATOM      7  C   UNL     1      -1.950  -8.128   0.724  0.00  0.00    +0.044 A 
ATOM      8  C   UNL     1      -2.190  -9.475   0.498  0.00  0.00    +0.046 A 
ATOM      9  C   UNL     1      -3.120  -9.829  -0.467  0.00  0.00    +0.044 A 
ATOM     10  N   UNL     1      -3.750  -8.877  -1.135  0.00  0.00    -0.217 NA
ATOM     11  C   UNL     1      -3.413 -11.280  -0.748  0.00  0.00    +0.066 C 
ATOM     12  C   UNL     1      -0.948  -7.696   1.763  0.00  0.00    +0.066 C 
ATOM     13  H   UNL     1      -4.804  -6.887  -2.309  0.00  0.00    +0.171 HD
ATOM     14  H   UNL     1      -4.284  -3.417  -2.031  0.00  0.00    +0.162 HD
ENDROOT
BRANCH   1  15
ATOM     15  C   UNL     1      -3.146  -3.682   0.058  0.00  0.00    +0.242 C 
ATOM     16  O   UNL     1      -3.929  -2.878  -0.410  0.00  0.00    -0.273 OA
BRANCH  15  17
ATOM     17  C   UNL     1      -2.152  -3.245   1.104  0.00  0.00    +0.077 C 
BRANCH  17  18
ATOM     18  C   UNL     1      -2.038  -1.719   1.093  0.00  0.00    +0.012 C 
BRANCH  18  20
ATOM     19  C   UNL     1      -0.828   0.243   2.055  0.00  0.00    +0.004 C 
ATOM     20  C   UNL     1      -0.941  -1.283   2.066  0.00  0.00    -0.003 C 
ENDBRANCH  18  20
ENDBRANCH  17  18
BRANCH  17  21
ATOM     21  C   UNL     1      -2.625  -3.711   2.482  0.00  0.00    +0.012 C 
BRANCH  21  22
ATOM     22  C   UNL     1      -2.603  -5.240   2.538  0.00  0.00    -0.003 C 
ATOM     23  C   UNL     1      -3.167  -5.710   3.881  0.00  0.00    +0.004 C 
ENDBRANCH  21  22
ENDBRANCH  17  21
ENDBRANCH  15  17
ENDBRANCH   1  15
BRANCH   3  24
ATOM     24  C   UNL     1      -5.489  -4.735  -3.179  0.00  0.00    +0.120 C 
BRANCH  24  25
ATOM     25  C   UNL     1      -5.887  -3.502  -3.992  0.00  0.00    +0.054 C 
BRANCH  25  26
ATOM     26  C   UNL     1      -6.974  -3.872  -4.968  0.00  0.00    -0.040 C 
ATOM     27  C   UNL     1      -8.308  -3.770  -4.774  0.00  0.00    -0.001 A 
ATOM     28  C   UNL     1      -9.113  -3.301  -3.639  0.00  0.00    +0.013 A 
ATOM     29  C   UNL     1     -10.460  -3.316  -3.739  0.00  0.00    +0.046 A 
ATOM     30  C   UNL     1     -11.109  -3.771  -4.903  0.00  0.00    +0.122 A 
ATOM     31  C   UNL     1     -10.429  -4.218  -5.990  0.00  0.00    +0.071 A 
ATOM     32  C   UNL     1      -9.012  -4.243  -5.988  0.00  0.00    +0.046 A 
ATOM     33  N   UNL     1      -8.145  -4.623  -6.897  0.00  0.00    -0.380 N 
ATOM     34  C   UNL     1      -6.793  -4.427  -6.363  0.00  0.00    +0.144 C 
ATOM     35  H   UNL     1      -8.361  -4.972  -7.777  0.00  0.00    +0.160 HD
BRANCH  30  36
ATOM     36  O   UNL     1     -12.464  -3.762  -4.939  0.00  0.00    -0.495 OA
ATOM     37  C   UNL     1     -13.141  -3.284  -3.776  0.00  0.00    +0.277 C 
ENDBRANCH  30  36
ENDBRANCH  25  26
ENDBRANCH  24  25
ENDBRANCH   3  24
TORSDOF 10
