REMARK  Name = ZINC39711054
REMARK  13 active torsions:
REMARK  status: ('A' for Active; 'I' for Inactive)
REMARK    1  A    between atoms: C_1  and  C_2
REMARK    2  A    between atoms: C_4  and  C_40
REMARK    3  A    between atoms: C_9  and  C_14
REMARK    4  A    between atoms: C_14  and  C_16
REMARK    5  A    between atoms: C_14  and  N_26
REMARK    6  A    between atoms: N_21  and  C_22
REMARK    7  A    between atoms: C_22  and  C_23
REMARK    8  A    between atoms: C_22  and  C_24
REMARK    9  A    between atoms: C_22  and  C_25
REMARK   10  A    between atoms: N_26  and  C_27
REMARK   11  A    between atoms: N_26  and  C_34
REMARK   12  A    between atoms: C_27  and  C_28
REMARK   13  A    between atoms: C_34  and  C_35
REMARK                            x       y       z     vdW  Elec       q    Type
REMARK                         _______ _______ _______ _____ _____    ______ ____
ROOT
ATOM      1  C   UNL     1       1.860  -5.369   3.815  0.00  0.00    -0.010 C 
ENDROOT
BRANCH   1  10
ATOM      2  C   UNL     1       0.176  -6.783  -2.980  0.00  0.00    +0.044 C 
ATOM      3  C   UNL     1      -0.133  -6.692  -1.508  0.00  0.00    -0.050 A 
ATOM      4  C   UNL     1      -1.177  -7.452  -0.981  0.00  0.00    +0.008 A 
ATOM      5  C   UNL     1      -1.514  -7.422   0.335  0.00  0.00    -0.028 A 
ATOM      6  C   UNL     1      -0.805  -6.605   1.235  0.00  0.00    +0.043 A 
ATOM      7  N   UNL     1      -1.144  -6.584   2.524  0.00  0.00    -0.284 N 
ATOM      8  C   UNL     1      -0.522  -5.839   3.423  0.00  0.00    +0.223 C 
ATOM      9  O   UNL     1      -0.876  -5.862   4.586  0.00  0.00    -0.275 OA
ATOM     10  C   UNL     1       0.633  -4.960   2.998  0.00  0.00    +0.088 C 
ATOM     11  C   UNL     1       1.022  -4.980   1.533  0.00  0.00    -0.006 C 
ATOM     12  C   UNL     1       0.302  -5.791   0.706  0.00  0.00    -0.007 A 
ATOM     13  C   UNL     1       0.615  -5.875  -0.721  0.00  0.00    +0.012 A 
ATOM     14  C   UNL     1      -2.655  -8.271   0.835  0.00  0.00    +0.046 C 
ATOM     15  H   UNL     1      -1.882  -7.141   2.817  0.00  0.00    +0.155 HD
ENDBRANCH   1  10
BRANCH   1  16
ATOM     16  C   UNL     1       1.841  -4.643   5.162  0.00  0.00    +0.183 C 
ATOM     17  N   UNL     1       0.626  -4.989   5.924  0.00  0.00    -0.229 N 
ATOM     18  N   UNL     1      -0.070  -3.787   6.100  0.00  0.00    -0.064 NA
ATOM     19  N   UNL     1       0.504  -2.828   5.592  0.00  0.00    -0.061 NA
ATOM     20  N   UNL     1       1.710  -3.187   4.968  0.00  0.00    -0.211 N 
ATOM     21  H   UNL     1       0.363  -5.868   6.238  0.00  0.00    +0.172 HD
BRANCH  20  22
ATOM     22  C   UNL     1       2.646  -2.302   4.271  0.00  0.00    +0.047 C 
ATOM     23  C   UNL     1       2.702  -2.684   2.790  0.00  0.00    +0.033 C 
ATOM     24  C   UNL     1       2.174  -0.852   4.406  0.00  0.00    +0.033 C 
ATOM     25  C   UNL     1       4.039  -2.444   4.887  0.00  0.00    +0.033 C 
ENDBRANCH  20  22
ENDBRANCH   1  16
BRANCH   1  26
ATOM     26  N   UNL     1       1.836  -6.821   4.040  0.00  0.00    +0.392 N 
ATOM     27  H   UNL     1       0.981  -7.074   4.513  0.00  0.00    -0.080 HD
BRANCH  26  28
ATOM     28  C   UNL     1       2.986  -7.206   4.869  0.00  0.00    -0.042 C 
BRANCH  28  29
ATOM     29  C   UNL     1       4.263  -6.831   4.163  0.00  0.00    -0.064 A 
ATOM     30  C   UNL     1       4.794  -7.671   3.202  0.00  0.00    +0.002 A 
ATOM     31  C   UNL     1       5.965  -7.327   2.553  0.00  0.00    +0.000 A 
ATOM     32  C   UNL     1       6.606  -6.143   2.866  0.00  0.00    +0.000 A 
ATOM     33  C   UNL     1       6.075  -5.302   3.826  0.00  0.00    +0.000 A 
ATOM     34  C   UNL     1       4.901  -5.644   4.471  0.00  0.00    +0.002 A 
ENDBRANCH  28  29
ENDBRANCH  26  28
BRANCH  26  35
ATOM     35  C   UNL     1       1.907  -7.518   2.749  0.00  0.00    -0.002 C 
BRANCH  35  36
ATOM     36  C   UNL     1       1.753  -9.000   2.970  0.00  0.00    +0.089 A 
ATOM     37  C   UNL     1       0.603  -9.693   2.883  0.00  0.00    +0.042 A 
ATOM     38  C   UNL     1       0.915 -11.043   3.164  0.00  0.00    +0.041 A 
ATOM     39  C   UNL     1       2.238 -11.095   3.406  0.00  0.00    +0.195 A 
ATOM     40  O   UNL     1       2.741  -9.855   3.281  0.00  0.00    -0.470 OA
ENDBRANCH  35  36
ENDBRANCH  26  35
ENDBRANCH   1  26
TORSDOF 8
