REMARK  Name = ZINC36548530
REMARK  15 active torsions:
REMARK  status: ('A' for Active; 'I' for Inactive)
REMARK    1  A    between atoms: C_1  and  C_2
REMARK    2  A    between atoms: C_2  and  C_3
REMARK    3  A    between atoms: C_2  and  C_4
REMARK    4  A    between atoms: C_2  and  C_5
REMARK    5  A    between atoms: C_5  and  C_6
REMARK    6  A    between atoms: C_6  and  C_7
REMARK    7  A    between atoms: C_6  and  C_8
REMARK    8  A    between atoms: C_6  and  N_9
REMARK    9  A    between atoms: C_10  and  C_12
REMARK   10  A    between atoms: C_12  and  C_14
REMARK   11  A    between atoms: C_12  and  N_22
REMARK   12  A    between atoms: C_17  and  O_20
REMARK   13  A    between atoms: O_20  and  C_21
REMARK   14  A    between atoms: N_22  and  C_23
REMARK   15  A    between atoms: C_30  and  C_32
REMARK                            x       y       z     vdW  Elec       q    Type
REMARK                         _______ _______ _______ _____ _____    ______ ____
ROOT
ATOM      1  C   UNL     1       3.485   0.708  -4.534  0.00  0.00    +0.197 C 
ENDROOT
BRANCH   1   2
ATOM      2  C   UNL     1       2.845   1.960  -5.077  0.00  0.00    -0.018 A 
ATOM      3  C   UNL     1       3.455   3.186  -4.884  0.00  0.00    +0.009 A 
ATOM      4  C   UNL     1       2.870   4.335  -5.381  0.00  0.00    +0.046 A 
ATOM      5  C   UNL     1       1.671   4.258  -6.074  0.00  0.00    +0.120 A 
ATOM      6  C   UNL     1       1.062   3.027  -6.267  0.00  0.00    +0.046 A 
ATOM      7  C   UNL     1       1.653   1.880  -5.773  0.00  0.00    +0.009 A 
BRANCH   5   8
ATOM      8  O   UNL     1       1.094   5.387  -6.564  0.00  0.00    -0.495 OA
ATOM      9  C   UNL     1      -0.140   5.232  -7.267  0.00  0.00    +0.277 C 
ENDBRANCH   5   8
ENDBRANCH   1   2
BRANCH   1  11
ATOM     10  N   UNL     1       2.674   0.405  -2.216  0.00  0.00    -0.308 N 
ATOM     11  C   UNL     1       3.649   0.836  -3.041  0.00  0.00    +0.239 C 
ATOM     12  O   UNL     1       4.659   1.326  -2.582  0.00  0.00    -0.273 OA
ATOM     13  H   UNL     1       1.866   0.013  -2.583  0.00  0.00    +0.149 HD
BRANCH  10  14
ATOM     14  C   UNL     1       2.834   0.529  -0.765  0.00  0.00    +0.030 C 
ATOM     15  C   UNL     1       3.200   1.972  -0.414  0.00  0.00    +0.031 C 
ATOM     16  C   UNL     1       3.947  -0.409  -0.293  0.00  0.00    +0.031 C 
BRANCH  14  17
ATOM     17  C   UNL     1       1.522   0.152  -0.074  0.00  0.00    +0.031 C 
BRANCH  17  19
ATOM     18  C   UNL     1      -0.042  -0.146  -1.999  0.00  0.00    +0.010 C 
ATOM     19  C   UNL     1       0.348   0.769  -0.837  0.00  0.00    -0.036 C 
ATOM     20  C   UNL     1       0.757   2.139  -1.382  0.00  0.00    +0.010 C 
ATOM     21  C   UNL     1      -0.845   0.931   0.107  0.00  0.00    +0.010 C 
ENDBRANCH  17  19
ENDBRANCH  14  17
ENDBRANCH  10  14
ENDBRANCH   1  11
BRANCH   1  22
ATOM     22  N   UNL     1       4.798   0.521  -5.155  0.00  0.00    -0.252 N 
ATOM     23  C   UNL     1       5.075  -0.622  -5.814  0.00  0.00    +0.241 C 
ATOM     24  O   UNL     1       6.127  -0.741  -6.405  0.00  0.00    -0.273 OA
BRANCH  22  25
ATOM     25  C   UNL     1       5.765   1.529  -5.066  0.00  0.00    +0.056 A 
ATOM     26  C   UNL     1       6.644   1.557  -3.991  0.00  0.00    +0.025 A 
ATOM     27  C   UNL     1       7.597   2.553  -3.905  0.00  0.00    +0.002 A 
ATOM     28  C   UNL     1       7.677   3.523  -4.888  0.00  0.00    +0.002 A 
ATOM     29  C   UNL     1       6.803   3.499  -5.959  0.00  0.00    +0.022 A 
ATOM     30  C   UNL     1       5.851   2.502  -6.055  0.00  0.00    +0.062 A 
ATOM     31 CL   UNL     1       4.760   2.468  -7.404  0.00  0.00    -0.082 Cl
ENDBRANCH  22  25
BRANCH  23  32
ATOM     32  C   UNL     1       4.077  -1.751  -5.816  0.00  0.00    +0.160 C 
ATOM     33  C   UNL     1       4.114  -2.499  -4.464  0.00  0.00    +0.041 C 
ATOM     34  C   UNL     1       5.111  -3.642  -4.764  0.00  0.00    +0.098 C 
ATOM     35  C   UNL     1       5.031  -3.821  -6.264  0.00  0.00    +0.214 C 
ATOM     36  O   UNL     1       5.437  -4.789  -6.871  0.00  0.00    -0.276 OA
ATOM     37  N   UNL     1       4.442  -2.749  -6.827  0.00  0.00    -0.304 N 
ATOM     38  H   UNL     1       4.280  -2.649  -7.779  0.00  0.00    +0.149 HD
ENDBRANCH  23  32
ENDBRANCH   1  22
TORSDOF 9
