REMARK  Name = ZINC13251862
REMARK  7 active torsions:
REMARK  status: ('A' for Active; 'I' for Inactive)
REMARK    1  A    between atoms: C_3  and  O_27
REMARK    2  A    between atoms: C_6  and  C_7
REMARK    3  A    between atoms: C_7  and  C_8
REMARK    4  A    between atoms: C_8  and  C_9
REMARK    5  A    between atoms: N_12  and  S_15
REMARK    6  A    between atoms: S_15  and  C_18
REMARK    7  A    between atoms: C_20  and  C_25
REMARK                            x       y       z     vdW  Elec       q    Type
REMARK                         _______ _______ _______ _____ _____    ______ ____
ROOT
ATOM      1  C   UNL     1      -7.985   1.192   3.459  0.00  0.00    -0.008 C 
ATOM      2  C   UNL     1      -8.236   1.944   2.150  0.00  0.00    +0.020 C 
ATOM      3  C   UNL     1      -6.903   2.455   1.596  0.00  0.00    +0.110 C 
ATOM      4  N   UNL     1      -5.977   1.322   1.471  0.00  0.00    -0.177 NA
ATOM      5  C   UNL     1      -5.738   0.473   2.646  0.00  0.00    +0.110 C 
ATOM      6  C   UNL     1      -7.080  -0.013   3.191  0.00  0.00    +0.020 C 
ENDROOT
BRANCH   4   7
ATOM      7  S   UNL     1      -5.222   1.003   0.032  0.00  0.00    +0.062 S 
ATOM      8  O   UNL     1      -6.032   1.573  -0.986  0.00  0.00    -0.153 OA
ATOM      9  O   UNL     1      -4.879  -0.376   0.050  0.00  0.00    -0.153 OA
BRANCH   7  10
ATOM     10  C   UNL     1      -3.705   1.899   0.030  0.00  0.00    +0.120 A 
ATOM     11  C   UNL     1      -2.505   1.220   0.021  0.00  0.00    +0.044 A 
ATOM     12  C   UNL     1      -1.303   1.931   0.019  0.00  0.00    +0.065 A 
ATOM     13  C   UNL     1      -1.325   3.328   0.032  0.00  0.00    +0.016 A 
ATOM     14  C   UNL     1      -2.532   3.995   0.035  0.00  0.00    +0.018 A 
ATOM     15  C   UNL     1      -3.720   3.284   0.037  0.00  0.00    +0.044 A 
ATOM     16 BR   UNL     1      -5.371   4.207   0.049  0.00  0.00    -0.048 Br
BRANCH  12  17
ATOM     17  C   UNL     1      -0.014   1.211   0.009  0.00  0.00    +0.387 C 
ATOM     18  O   UNL     1       0.002  -0.004   0.002  0.00  0.00    -0.241 OA
ATOM     19  O   UNL     1       1.143   1.900   0.001  0.00  0.00    -0.241 OA
ENDBRANCH  12  17
ENDBRANCH   7  10
ENDBRANCH   4   7
BRANCH   1  20
ATOM     20  C   UNL     1      -9.318   0.709   4.034  0.00  0.00    +0.008 C 
BRANCH  20  21
ATOM     21  C   UNL     1      -9.081   0.066   5.402  0.00  0.00    +0.035 C 
BRANCH  21  27
ATOM     22  C   UNL     1     -11.151   0.436   6.759  0.00  0.00    +0.007 A 
ATOM     23  C   UNL     1     -12.358   0.004   7.275  0.00  0.00    +0.045 A 
ATOM     24  C   UNL     1     -12.805  -1.281   7.007  0.00  0.00    +0.117 A 
ATOM     25  C   UNL     1     -12.042  -2.129   6.218  0.00  0.00    +0.045 A 
ATOM     26  C   UNL     1     -10.838  -1.691   5.700  0.00  0.00    +0.007 A 
ATOM     27  C   UNL     1     -10.394  -0.409   5.968  0.00  0.00    -0.047 A 
BRANCH  24  28
ATOM     28  O   UNL     1     -13.989  -1.710   7.518  0.00  0.00    -0.507 OA
ATOM     29  H   UNL     1     -13.915  -2.129   8.386  0.00  0.00    +0.292 HD
ENDBRANCH  24  28
ENDBRANCH  21  27
ENDBRANCH  20  21
ENDBRANCH   1  20
TORSDOF 7
