REMARK  Name = ZINC20735471
REMARK  4 active torsions:
REMARK  status: ('A' for Active; 'I' for Inactive)
REMARK    1  A    between atoms: C_1  and  C_2
REMARK    2  A    between atoms: C_18  and  C_20
REMARK    3  A    between atoms: C_24  and  O_26
REMARK    4  A    between atoms: O_26  and  C_27
REMARK                            x       y       z     vdW  Elec       q    Type
REMARK                         _______ _______ _______ _____ _____    ______ ____
ROOT
ATOM      1  C   UNL     1       0.028   1.233  -0.108  0.00  0.00    +0.068 C 
ATOM      2  C   UNL     1       0.094  -0.264  -0.266  0.00  0.00    +0.067 A 
ATOM      3  C   UNL     1       0.125  -0.959  -1.494  0.00  0.00    +0.033 A 
ATOM      4  C   UNL     1       0.183  -2.280  -1.219  0.00  0.00    +0.137 A 
ATOM      5  N   UNL     1       0.190  -2.406   0.154  0.00  0.00    -0.183 N 
ATOM      6  N   UNL     1       0.137  -1.127   0.708  0.00  0.00    -0.167 NA
ATOM      7  C   UNL     1       0.245  -3.603   0.866  0.00  0.00    +0.253 A 
ATOM      8  N   UNL     1       0.352  -3.566   2.184  0.00  0.00    -0.219 NA
ATOM      9  C   UNL     1       0.407  -4.684   2.890  0.00  0.00    +0.116 A 
ATOM     10  C   UNL     1       0.352  -5.902   2.232  0.00  0.00    +0.039 A 
ATOM     11  C   UNL     1       0.240  -5.904   0.850  0.00  0.00    +0.116 A 
ATOM     12  N   UNL     1       0.184  -4.749   0.206  0.00  0.00    -0.219 NA
ATOM     13  N   UNL     1       0.226  -3.385  -2.033  0.00  0.00    -0.269 N 
ATOM     14  C   UNL     1       0.278  -3.579  -3.317  0.00  0.00    +0.228 C 
ATOM     15  O   UNL     1       0.411  -4.736  -3.654  0.00  0.00    -0.275 OA
ATOM     16  C   UNL     1       0.201  -2.611  -4.432  0.00  0.00    +0.166 C 
ATOM     17  S   UNL     1       1.057  -1.069  -4.084  0.00  0.00    -0.138 S 
ATOM     18  C   UNL     1       0.097  -0.246  -2.810  0.00  0.00    +0.112 C 
ATOM     19  H   UNL     1       0.215  -4.216  -1.533  0.00  0.00    +0.156 HD
ENDROOT
BRANCH  18  20
ATOM     20  C   UNL     1       0.641   1.146  -2.617  0.00  0.00    -0.026 A 
ATOM     21  C   UNL     1       1.933   1.325  -2.160  0.00  0.00    +0.005 A 
ATOM     22  C   UNL     1       2.435   2.601  -1.983  0.00  0.00    +0.004 A 
ATOM     23  C   UNL     1       1.646   3.700  -2.261  0.00  0.00    +0.045 A 
ATOM     24  C   UNL     1       0.349   3.523  -2.720  0.00  0.00    +0.121 A 
ATOM     25  C   UNL     1      -0.150   2.241  -2.903  0.00  0.00    +0.050 A 
BRANCH  24  26
ATOM     26  O   UNL     1      -0.430   4.602  -2.995  0.00  0.00    -0.489 OA
BRANCH  26  27
ATOM     27  C   UNL     1       0.189   5.887  -2.909  0.00  0.00    +0.173 C 
ATOM     28  C   UNL     1       0.101   6.421  -1.464  0.00  0.00    +0.044 C 
ATOM     29  C   UNL     1      -0.136   7.942  -1.634  0.00  0.00    +0.004 C 
ATOM     30  C   UNL     1      -1.082   8.005  -2.859  0.00  0.00    +0.004 C 
ATOM     31  C   UNL     1      -0.563   6.895  -3.796  0.00  0.00    +0.044 C 
ENDBRANCH  26  27
ENDBRANCH  24  26
ENDBRANCH  18  20
TORSDOF 3
