REMARK  Name = ZINC02464768
REMARK  6 active torsions:
REMARK  status: ('A' for Active; 'I' for Inactive)
REMARK    1  A    between atoms: C_6  and  S_7
REMARK    2  A    between atoms: S_7  and  N_10
REMARK    3  A    between atoms: C_17  and  C_23
REMARK    4  A    between atoms: N_25  and  C_26
REMARK    5  A    between atoms: C_26  and  C_27
REMARK    6  A    between atoms: C_27  and  C_28
REMARK                            x       y       z     vdW  Elec       q    Type
REMARK                         _______ _______ _______ _____ _____    ______ ____
ROOT
ATOM      1  C   UNL     1       1.153   3.164   0.084  0.00  0.00    +0.030 A 
ATOM      2  C   UNL     1      -0.037   3.859   0.077  0.00  0.00    +0.028 A 
ATOM      3  C   UNL     1      -1.244   3.166   0.060  0.00  0.00    +0.050 A 
ATOM      4  C   UNL     1      -1.231   1.760   0.045  0.00  0.00    +0.012 A 
ATOM      5  C   UNL     1      -0.012   1.075   0.059  0.00  0.00    +0.039 A 
ATOM      6  C   UNL     1       1.160   1.776   0.076  0.00  0.00    +0.106 A 
ATOM      7  C   UNL     1      -2.505   1.024   0.035  0.00  0.00    +0.051 A 
ATOM      8  C   UNL     1      -3.669   1.738   0.028  0.00  0.00    +0.083 A 
ATOM      9  C   UNL     1      -3.618   3.198   0.037  0.00  0.00    +0.250 A 
ATOM     10  O   UNL     1      -4.656   3.835   0.031  0.00  0.00    -0.268 OA
ATOM     11  N   UNL     1      -2.442   3.849   0.053  0.00  0.00    -0.322 N 
ATOM     12  H   UNL     1      -2.436   4.819   0.059  0.00  0.00    +0.169 HD
ENDROOT
BRANCH   7  13
ATOM     13  C   UNL     1      -2.524  -0.459   0.025  0.00  0.00    +0.245 C 
ATOM     14  O   UNL     1      -1.485  -1.079  -0.082  0.00  0.00    -0.270 OA
ATOM     15  N   UNL     1      -3.694  -1.118   0.136  0.00  0.00    -0.311 N 
ATOM     16  H   UNL     1      -4.530  -0.625   0.147  0.00  0.00    +0.149 HD
BRANCH  15  17
ATOM     17  C   UNL     1      -3.705  -2.579   0.238  0.00  0.00    +0.109 C 
BRANCH  17  18
ATOM     18  C   UNL     1      -5.149  -3.072   0.352  0.00  0.00    +0.049 C 
BRANCH  18  19
ATOM     19  C   UNL     1      -5.160  -4.576   0.457  0.00  0.00    -0.072 C 
ATOM     20  C   UNL     1      -5.201  -5.101   1.640  0.00  0.00    -0.028 C 
ATOM     21  C   UNL     1      -5.207  -6.578   1.904  0.00  0.00    +0.027 C 
ATOM     22  C   UNL     1      -5.583  -7.340   0.631  0.00  0.00    +0.004 C 
ATOM     23  C   UNL     1      -4.715  -6.816  -0.521  0.00  0.00    +0.005 C 
ATOM     24  C   UNL     1      -5.127  -5.371  -0.815  0.00  0.00    +0.030 C 
ENDBRANCH  18  19
ENDBRANCH  17  18
ENDBRANCH  15  17
ENDBRANCH   7  13
BRANCH   6  25
ATOM     25  S   UNL     1       2.695   0.911   0.086  0.00  0.00    +0.061 S 
ATOM     26  O   UNL     1       3.655   1.792   0.653  0.00  0.00    -0.153 OA
ATOM     27  O   UNL     1       2.432  -0.377   0.626  0.00  0.00    -0.153 OA
BRANCH  25  28
ATOM     28  N   UNL     1       3.138   0.680  -1.493  0.00  0.00    -0.177 NA
ATOM     29  C   UNL     1       2.705  -0.524  -2.165  0.00  0.00    +0.109 C 
ATOM     30  C   UNL     1       3.744  -1.646  -1.954  0.00  0.00    +0.017 C 
ATOM     31  C   UNL     1       4.965  -1.362  -2.724  0.00  0.00    +0.001 C 
ATOM     32  C   UNL     1       5.691  -0.088  -2.304  0.00  0.00    +0.001 C 
ATOM     33  C   UNL     1       5.080   1.094  -3.015  0.00  0.00    +0.017 C 
ATOM     34  C   UNL     1       3.963   1.710  -2.154  0.00  0.00    +0.109 C 
ENDBRANCH  25  28
ENDBRANCH   6  25
TORSDOF 6
