REMARK  Name = ZINC15477232
REMARK  8 active torsions:
REMARK  status: ('A' for Active; 'I' for Inactive)
REMARK    1  A    between atoms: C_3  and  C_6
REMARK    2  A    between atoms: C_6  and  C_8
REMARK    3  A    between atoms: C_6  and  N_56
REMARK    4  A    between atoms: C_8  and  N_9
REMARK    5  A    between atoms: C_10  and  C_12
REMARK    6  A    between atoms: C_15  and  N_18
REMARK    7  A    between atoms: N_18  and  S_19
REMARK    8  A    between atoms: S_19  and  C_22
REMARK                            x       y       z     vdW  Elec       q    Type
REMARK                         _______ _______ _______ _____ _____    ______ ____
ROOT
ATOM      1  N   UNL     1      -0.499   1.507  -0.602  0.00  0.00    -0.312 N 
ATOM      2  C   UNL     1      -0.319   1.024  -1.847  0.00  0.00    +0.244 C 
ATOM      3  O   UNL     1       0.702   0.423  -2.124  0.00  0.00    -0.270 OA
ATOM      4  H   UNL     1      -1.313   1.987  -0.381  0.00  0.00    +0.149 HD
ENDROOT
BRANCH   2   5
ATOM      5  C   UNL     1      -1.359   1.225  -2.874  0.00  0.00    +0.037 A 
ATOM      6  C   UNL     1      -2.534   1.911  -2.555  0.00  0.00    +0.015 A 
ATOM      7  C   UNL     1      -3.500   2.102  -3.517  0.00  0.00    +0.025 A 
ATOM      8  C   UNL     1      -3.312   1.602  -4.803  0.00  0.00    +0.048 A 
ATOM      9  C   UNL     1      -2.145   0.914  -5.122  0.00  0.00    +0.025 A 
ATOM     10  C   UNL     1      -1.173   0.725  -4.166  0.00  0.00    +0.015 A 
BRANCH   8  11
ATOM     11  N   UNL     1      -4.292   1.792  -5.771  0.00  0.00    -0.216 N 
ATOM     12  H   UNL     1      -4.415   2.666  -6.172  0.00  0.00    +0.174 HD
BRANCH  11  13
ATOM     13  S   UNL     1      -5.250   0.524  -6.239  0.00  0.00    +0.079 S 
ATOM     14  O   UNL     1      -6.165   1.039  -7.196  0.00  0.00    -0.149 OA
ATOM     15  O   UNL     1      -4.377  -0.560  -6.525  0.00  0.00    -0.149 OA
BRANCH  13  16
ATOM     16  C   UNL     1      -6.203   0.046  -4.836  0.00  0.00    +0.146 A 
ATOM     17  C   UNL     1      -7.451   0.437  -4.479  0.00  0.00    +0.036 A 
ATOM     18  C   UNL     1      -8.008  -0.075  -3.322  0.00  0.00    +0.010 A 
ATOM     19  C   UNL     1      -7.291  -0.953  -2.579  0.00  0.00    +0.047 A 
ATOM     20  S   UNL     1      -5.780  -1.085  -3.521  0.00  0.00    -0.077 S 
ENDBRANCH  13  16
ENDBRANCH  11  13
ENDBRANCH   8  11
ENDBRANCH   2   5
BRANCH   1  21
ATOM     21  C   UNL     1       0.534   1.308   0.418  0.00  0.00    +0.097 C 
BRANCH  21  22
ATOM     22  C   UNL     1       0.130   2.037   1.702  0.00  0.00    +0.016 C 
BRANCH  22  28
ATOM     23  C   UNL     1       1.023   4.104   0.813  0.00  0.00    -0.078 C 
ATOM     24  C   UNL     1       0.650   5.522   0.375  0.00  0.00    -0.019 C 
ATOM     25  C   UNL     1       0.150   6.311   1.589  0.00  0.00    -0.004 C 
ATOM     26  C   UNL     1      -1.044   5.578   2.207  0.00  0.00    -0.019 C 
ATOM     27  C   UNL     1      -0.622   4.158   2.592  0.00  0.00    -0.078 C 
ATOM     28  N   UNL     1      -0.174   3.445   1.376  0.00  0.00    +0.387 N 
ATOM     29  H   UNL     1      -0.928   3.471   0.679  0.00  0.00    -0.081 HD
ENDBRANCH  22  28
BRANCH  22  32
ATOM     30  C   UNL     1      -2.480   0.165   3.509  0.00  0.00    +0.041 A 
ATOM     31  C   UNL     1      -1.125   0.511   3.297  0.00  0.00    +0.043 A 
ATOM     32  C   UNL     1      -1.102   1.390   2.280  0.00  0.00    +0.093 A 
ATOM     33  O   UNL     1      -2.364   1.599   1.871  0.00  0.00    -0.469 OA
ATOM     34  C   UNL     1      -3.203   0.855   2.609  0.00  0.00    +0.195 A 
ENDBRANCH  22  32
ENDBRANCH  21  22
ENDBRANCH   1  21
TORSDOF 8
