REMARK  Name = ZINC31168576
REMARK  11 active torsions:
REMARK  status: ('A' for Active; 'I' for Inactive)
REMARK    1  A    between atoms: C_1  and  C_2
REMARK    2  A    between atoms: C_8  and  C_41
REMARK    3  A    between atoms: C_12  and  O_32
REMARK    4  A    between atoms: N_19  and  C_22
REMARK    5  A    between atoms: C_22  and  C_24
REMARK    6  A    between atoms: C_22  and  C_29
REMARK    7  A    between atoms: C_24  and  C_25
REMARK    8  A    between atoms: C_25  and  C_26
REMARK    9  A    between atoms: C_35  and  O_40
REMARK   10  A    between atoms: C_37  and  C_38
REMARK   11  A    between atoms: C_37  and  C_39
REMARK                            x       y       z     vdW  Elec       q    Type
REMARK                         _______ _______ _______ _____ _____    ______ ____
ROOT
ATOM      1  C   UNL     1      -0.139   1.494   0.479  0.00  0.00    +0.011 C 
ATOM      2  C   UNL     1      -0.097  -0.027   0.382  0.00  0.00    +0.031 C 
ATOM      3  C   UNL     1       0.104  -0.446  -1.073  0.00  0.00    +0.007 C 
ATOM      4  C   UNL     1       1.570  -0.278  -1.488  0.00  0.00    +0.005 C 
ATOM      5  C   UNL     1       2.415  -1.168  -0.577  0.00  0.00    +0.007 C 
ATOM      6  C   UNL     1       2.346  -0.650   0.853  0.00  0.00    +0.012 C 
ATOM      7  C   UNL     1       0.892  -0.677   1.321  0.00  0.00    +0.123 C 
ATOM      8  C   UNL     1       0.781  -0.134   2.759  0.00  0.00    +0.091 C 
ATOM      9  C   UNL     1      -0.367  -0.971   3.303  0.00  0.00    +0.040 A 
ATOM     10  C   UNL     1      -1.229  -0.790   4.367  0.00  0.00    +0.124 A 
ATOM     11  C   UNL     1      -2.202  -1.739   4.642  0.00  0.00    +0.059 A 
ATOM     12  C   UNL     1      -2.310  -2.869   3.829  0.00  0.00    +0.049 A 
ATOM     13  C   UNL     1      -1.440  -3.033   2.751  0.00  0.00    +0.024 A 
ATOM     14  C   UNL     1      -0.458  -2.092   2.485  0.00  0.00    +0.134 A 
ATOM     15  O   UNL     1       0.500  -2.060   1.513  0.00  0.00    -0.484 OA
ATOM     16  C   UNL     1      -1.838  -4.319   2.070  0.00  0.00    +0.148 C 
ATOM     17  N   UNL     1      -2.954  -4.867   2.850  0.00  0.00    -0.279 N 
ATOM     18  C   UNL     1      -3.221  -4.031   3.868  0.00  0.00    +0.248 C 
ATOM     19  O   UNL     1      -4.089  -4.205   4.701  0.00  0.00    -0.270 OA
ATOM     20  C   UNL     1       3.167  -1.585   1.754  0.00  0.00    +0.013 C 
ATOM     21  C   UNL     1       4.615  -1.619   1.269  0.00  0.00    +0.032 C 
ATOM     22  C   UNL     1       4.691  -2.181  -0.144  0.00  0.00    +0.120 C 
ATOM     23  C   UNL     1       3.803  -1.415  -1.124  0.00  0.00    -0.005 C 
ATOM     24  C   UNL     1       3.672  -2.312  -2.382  0.00  0.00    +0.014 C 
ATOM     25  C   UNL     1       4.502  -0.129  -1.563  0.00  0.00    +0.014 C 
ATOM     26  C   UNL     1       2.901   0.764   0.997  0.00  0.00    +0.015 C 
ENDROOT
BRANCH  10  27
ATOM     27  O   UNL     1      -1.124   0.317   5.148  0.00  0.00    -0.506 OA
ATOM     28  H   UNL     1      -1.657   1.065   4.844  0.00  0.00    +0.292 HD
ENDBRANCH  10  27
BRANCH  22  29
ATOM     29  O   UNL     1       4.304  -3.560  -0.134  0.00  0.00    -0.391 OA
ATOM     30  H   UNL     1       4.860  -4.120   0.424  0.00  0.00    +0.210 HD
ENDBRANCH  22  29
BRANCH  17  31
ATOM     31  C   UNL     1      -3.662  -6.118   2.566  0.00  0.00    +0.190 C 
BRANCH  31  32
ATOM     32  C   UNL     1      -5.120  -5.825   2.322  0.00  0.00    +0.376 C 
ATOM     33  O   UNL     1      -5.767  -6.536   1.572  0.00  0.00    -0.244 OA
ATOM     34  O   UNL     1      -5.652  -4.878   2.874  0.00  0.00    -0.244 OA
ENDBRANCH  31  32
BRANCH  31  35
ATOM     35  C   UNL     1      -3.524  -7.064   3.759  0.00  0.00    +0.045 C 
BRANCH  35  36
ATOM     36  C   UNL     1      -2.056  -7.460   3.930  0.00  0.00    +0.127 C 
BRANCH  36  37
ATOM     37  C   UNL     1      -1.920  -8.393   5.106  0.00  0.00    +0.356 C 
ATOM     38  O   UNL     1      -2.906  -8.711   5.748  0.00  0.00    -0.246 OA
ATOM     39  O   UNL     1      -0.824  -8.828   5.415  0.00  0.00    -0.246 OA
ENDBRANCH  36  37
ENDBRANCH  35  36
ENDBRANCH  31  35
ENDBRANCH  17  31
TORSDOF 7
