REMARK  Name = ZINC56596007
REMARK  9 active torsions:
REMARK  status: ('A' for Active; 'I' for Inactive)
REMARK    1  A    between atoms: C_1  and  C_2
REMARK    2  A    between atoms: C_2  and  C_4
REMARK    3  A    between atoms: C_2  and  N_12
REMARK    4  A    between atoms: C_4  and  C_5
REMARK    5  A    between atoms: C_8  and  O_11
REMARK    6  A    between atoms: N_15  and  C_16
REMARK    7  A    between atoms: C_20  and  S_22
REMARK    8  A    between atoms: S_22  and  N_25
REMARK    9  A    between atoms: N_25  and  C_26
REMARK                            x       y       z     vdW  Elec       q    Type
REMARK                         _______ _______ _______ _____ _____    ______ ____
ROOT
ATOM      1  N   UNL     1       0.689  -0.471  -1.205  0.00  0.00    -0.296 N 
ATOM      2  C   UNL     1       0.006  -0.609  -2.358  0.00  0.00    +0.304 C 
ATOM      3  O   UNL     1      -1.180  -0.344  -2.398  0.00  0.00    -0.253 OA
ATOM      4  N   UNL     1       0.637  -1.043  -3.467  0.00  0.00    -0.269 N 
ATOM      5  H   UNL     1       1.635  -0.683  -1.173  0.00  0.00    +0.151 HD
ATOM      6  H   UNL     1       1.596  -1.191  -3.454  0.00  0.00    +0.156 HD
ENDROOT
BRANCH   4   7
ATOM      7  C   UNL     1      -0.091  -1.280  -4.639  0.00  0.00    +0.037 A 
ATOM      8  C   UNL     1      -1.173  -0.471  -4.962  0.00  0.00    +0.023 A 
ATOM      9  C   UNL     1      -1.888  -0.706  -6.119  0.00  0.00    +0.004 A 
ATOM     10  C   UNL     1      -1.529  -1.747  -6.956  0.00  0.00    +0.028 A 
ATOM     11  C   UNL     1      -0.453  -2.554  -6.637  0.00  0.00    +0.107 A 
ATOM     12  C   UNL     1       0.271  -2.320  -5.484  0.00  0.00    +0.051 A 
BRANCH  11  13
ATOM     13  S   UNL     1      -0.000  -3.880  -7.707  0.00  0.00    +0.059 S 
ATOM     14  O   UNL     1       0.703  -4.823  -6.909  0.00  0.00    -0.153 OA
ATOM     15  O   UNL     1      -1.166  -4.224  -8.443  0.00  0.00    -0.153 OA
BRANCH  13  16
ATOM     16  N   UNL     1       1.089  -3.277  -8.799  0.00  0.00    -0.187 NA
ATOM     17  H   UNL     1       0.860  -3.237  -9.740  0.00  0.00    +0.148 HD
BRANCH  16  18
ATOM     18  C   UNL     1       2.399  -2.805  -8.342  0.00  0.00    +0.077 C 
ATOM     19  C   UNL     1       3.023  -1.624  -9.088  0.00  0.00    +0.022 C 
ATOM     20  C   UNL     1       3.594  -3.031  -9.271  0.00  0.00    +0.022 C 
ENDBRANCH  16  18
ENDBRANCH  13  16
ENDBRANCH  11  13
ENDBRANCH   4   7
BRANCH   1  22
ATOM     21  C   UNL     1      -0.027   1.530   0.006  0.00  0.00    +0.028 C 
ATOM     22  C   UNL     1       0.003   0.000   0.001  0.00  0.00    +0.076 C 
BRANCH  22  23
ATOM     23  C   UNL     1       0.749  -0.499   1.240  0.00  0.00    +0.057 C 
BRANCH  23  24
ATOM     24  C   UNL     1       0.673  -2.003   1.300  0.00  0.00    -0.045 A 
ATOM     25  C   UNL     1      -0.375  -2.615   1.962  0.00  0.00    +0.007 A 
ATOM     26  C   UNL     1      -0.447  -3.994   2.019  0.00  0.00    +0.045 A 
ATOM     27  C   UNL     1       0.534  -4.764   1.411  0.00  0.00    +0.117 A 
ATOM     28  C   UNL     1       1.585  -4.147   0.747  0.00  0.00    +0.045 A 
ATOM     29  C   UNL     1       1.649  -2.768   0.688  0.00  0.00    +0.007 A 
BRANCH  27  30
ATOM     30  O   UNL     1       0.466  -6.120   1.465  0.00  0.00    -0.507 OA
ATOM     31  H   UNL     1      -0.023  -6.519   0.733  0.00  0.00    +0.292 HD
ENDBRANCH  27  30
ENDBRANCH  23  24
ENDBRANCH  22  23
ENDBRANCH   1  22
TORSDOF 8
