REMARK  Name = ZINC20347554
REMARK  10 active torsions:
REMARK  status: ('A' for Active; 'I' for Inactive)
REMARK    1  A    between atoms: C_1  and  C_2
REMARK    2  A    between atoms: C_7  and  N_8
REMARK    3  A    between atoms: C_9  and  C_11
REMARK    4  A    between atoms: C_11  and  S_12
REMARK    5  A    between atoms: S_12  and  C_13
REMARK    6  A    between atoms: C_14  and  C_35
REMARK    7  A    between atoms: C_15  and  C_30
REMARK    8  A    between atoms: C_17  and  C_21
REMARK    9  A    between atoms: C_18  and  C_20
REMARK   10  A    between atoms: N_23  and  C_24
REMARK                            x       y       z     vdW  Elec       q    Type
REMARK                         _______ _______ _______ _____ _____    ______ ____
ROOT
ATOM      1  C   UNL     1       2.759   5.553   0.309  0.00  0.00    +0.080 C 
ATOM      2  C   UNL     1       3.919   6.261   0.348  0.00  0.00    +0.072 C 
ATOM      3  C   UNL     1       3.914   7.755   0.509  0.00  0.00    +0.134 C 
ATOM      4  C   UNL     1       2.581   8.233   1.008  0.00  0.00    +0.047 C 
ATOM      5  C   UNL     1       1.486   7.458   0.949  0.00  0.00    +0.015 C 
ATOM      6  N   UNL     1       1.546   6.191   0.437  0.00  0.00    -0.312 N 
ATOM      7  C   UNL     1       0.171   7.993   1.455  0.00  0.00    +0.061 C 
ATOM      8  H   UNL     1       0.621   5.682   0.127  0.00  0.00    +0.152 HD
ENDROOT
BRANCH   3   9
ATOM      9  C   UNL     1       4.209   8.403  -0.819  0.00  0.00    +0.118 A 
ATOM     10  C   UNL     1       5.262   9.194  -1.092  0.00  0.00    +0.045 A 
ATOM     11  C   UNL     1       5.144   9.579  -2.447  0.00  0.00    +0.041 A 
ATOM     12  C   UNL     1       4.027   9.000  -2.921  0.00  0.00    +0.195 A 
ATOM     13  O   UNL     1       3.467   8.284  -1.932  0.00  0.00    -0.467 OA
ENDBRANCH   3   9
BRANCH   4  14
ATOM     14  C   UNL     1       2.475   9.535   1.553  0.00  0.00    +0.247 C 
ATOM     15  O   UNL     1       1.401   9.939   1.961  0.00  0.00    -0.270 OA
ATOM     16  N   UNL     1       3.563  10.328   1.620  0.00  0.00    -0.282 N 
ATOM     17  H   UNL     1       4.516   9.993   1.184  0.00  0.00    +0.155 HD
BRANCH  16  18
ATOM     18  C   UNL     1       3.481  11.577   2.245  0.00  0.00    +0.034 A 
ATOM     19  C   UNL     1       2.318  12.329   2.145  0.00  0.00    +0.023 A 
ATOM     20  C   UNL     1       2.238  13.560   2.768  0.00  0.00    +0.002 A 
ATOM     21  C   UNL     1       3.319  14.047   3.480  0.00  0.00    +0.000 A 
ATOM     22  C   UNL     1       4.480  13.303   3.576  0.00  0.00    +0.002 A 
ATOM     23  C   UNL     1       4.564  12.069   2.961  0.00  0.00    +0.023 A 
ENDBRANCH  16  18
ENDBRANCH   4  14
BRANCH   2  24
ATOM     24  C   UNL     1       5.168   5.572   0.227  0.00  0.00    +0.098 C 
ATOM     25  N   UNL     1       6.159   5.024   0.131  0.00  0.00    -0.191 NA
ENDBRANCH   2  24
BRANCH   1  26
ATOM     26  S   UNL     1       2.809   3.804   0.101  0.00  0.00    -0.100 S 
BRANCH  26  27
ATOM     27  C   UNL     1       1.038   3.432   0.134  0.00  0.00    +0.171 C 
BRANCH  27  29
ATOM     28  N   UNL     1      -0.414   1.437  -0.038  0.00  0.00    -0.285 N 
ATOM     29  C   UNL     1       0.833   1.948  -0.032  0.00  0.00    +0.227 C 
ATOM     30  O   UNL     1       1.790   1.214  -0.160  0.00  0.00    -0.275 OA
ATOM     31  H   UNL     1      -1.284   2.109   0.003  0.00  0.00    +0.155 HD
BRANCH  28  38
ATOM     32  C   UNL     1      -2.625   0.321   1.363  0.00  0.00    +0.045 C 
ATOM     33  C   UNL     1      -1.668  -0.535   0.574  0.00  0.00    -0.029 A 
ATOM     34  C   UNL     1      -1.850  -1.903   0.514  0.00  0.00    +0.005 A 
ATOM     35  C   UNL     1      -0.973  -2.688  -0.210  0.00  0.00    +0.000 A 
ATOM     36  C   UNL     1       0.090  -2.107  -0.878  0.00  0.00    +0.002 A 
ATOM     37  C   UNL     1       0.275  -0.740  -0.828  0.00  0.00    +0.023 A 
ATOM     38  C   UNL     1      -0.602   0.051  -0.096  0.00  0.00    +0.036 A 
ENDBRANCH  28  38
ENDBRANCH  27  29
ENDBRANCH  26  27
ENDBRANCH   1  26
TORSDOF 8
