REMARK  Name = ZINC67427109
REMARK  7 active torsions:
REMARK  status: ('A' for Active; 'I' for Inactive)
REMARK    1  A    between atoms: C_1  and  C_2
REMARK    2  A    between atoms: C_2  and  N_3
REMARK    3  A    between atoms: C_5  and  N_10
REMARK    4  A    between atoms: N_13  and  C_14
REMARK    5  A    between atoms: C_14  and  C_15
REMARK    6  A    between atoms: N_20  and  C_21
REMARK    7  A    between atoms: C_21  and  C_22
REMARK                            x       y       z     vdW  Elec       q    Type
REMARK                         _______ _______ _______ _____ _____    ______ ____
ROOT
ATOM      1  N   UNL     1      -4.405  -1.539   2.223  0.00  0.00    -0.268 N 
ATOM      2  C   UNL     1      -5.681  -1.936   2.399  0.00  0.00    +0.304 C 
ATOM      3  O   UNL     1      -6.375  -2.196   1.435  0.00  0.00    -0.253 OA
ATOM      4  N   UNL     1      -6.187  -2.045   3.643  0.00  0.00    -0.301 N 
ATOM      5  H   UNL     1      -3.830  -1.401   2.992  0.00  0.00    +0.156 HD
ATOM      6  H   UNL     1      -5.633  -1.838   4.412  0.00  0.00    +0.150 HD
ENDROOT
BRANCH   1   9
ATOM      7  N   UNL     1      -2.897   0.098  -0.662  0.00  0.00    -0.314 N 
ATOM      8  C   UNL     1      -3.381  -0.120   0.590  0.00  0.00    +0.112 A 
ATOM      9  C   UNL     1      -3.909  -1.326   0.927  0.00  0.00    +0.051 A 
ATOM     10  C   UNL     1      -3.956  -2.360  -0.025  0.00  0.00    +0.030 A 
ATOM     11  C   UNL     1      -3.468  -2.134  -1.278  0.00  0.00    +0.072 A 
ATOM     12  C   UNL     1      -2.935  -0.873  -1.594  0.00  0.00    +0.251 A 
ATOM     13  O   UNL     1      -2.500  -0.659  -2.715  0.00  0.00    -0.268 OA
BRANCH   7  15
ATOM     14  C   UNL     1      -3.440   2.315  -1.540  0.00  0.00    +0.027 C 
ATOM     15  C   UNL     1      -2.333   1.406  -1.003  0.00  0.00    +0.121 C 
ENDBRANCH   7  15
ENDBRANCH   1   9
BRANCH   4  16
ATOM     16  C   UNL     1      -7.574  -2.477   3.835  0.00  0.00    +0.090 C 
BRANCH  16  17
ATOM     17  C   UNL     1      -7.894  -2.517   5.330  0.00  0.00    -0.051 C 
ATOM     18  C   UNL     1      -9.293  -3.130   5.552  0.00  0.00    -0.016 C 
ATOM     19  C   UNL     1      -8.977  -4.612   5.882  0.00  0.00    -0.020 C 
ATOM     20  C   UNL     1      -7.660  -4.479   6.687  0.00  0.00    -0.078 C 
ATOM     21  N   UNL     1      -6.921  -3.377   6.029  0.00  0.00    +0.383 N 
ATOM     22  H   UNL     1      -6.265  -3.757   5.363  0.00  0.00    -0.081 HD
BRANCH  21  23
ATOM     23  C   UNL     1      -6.200  -2.589   7.037  0.00  0.00    -0.075 C 
BRANCH  23  24
ATOM     24  C   UNL     1      -5.110  -3.453   7.675  0.00  0.00    -0.028 C 
ATOM     25  C   UNL     1      -4.452  -2.681   8.821  0.00  0.00    +0.002 C 
ATOM     26  C   UNL     1      -3.362  -3.545   9.458  0.00  0.00    +0.000 C 
ATOM     27  C   UNL     1      -2.307  -3.893   8.406  0.00  0.00    +0.000 C 
ATOM     28  C   UNL     1      -2.965  -4.665   7.261  0.00  0.00    +0.000 C 
ATOM     29  C   UNL     1      -4.055  -3.801   6.623  0.00  0.00    +0.002 C 
ENDBRANCH  23  24
ENDBRANCH  21  23
ENDBRANCH  16  17
ENDBRANCH   4  16
TORSDOF 6
