REMARK  Name = ZINC05487148
REMARK  5 active torsions:
REMARK  status: ('A' for Active; 'I' for Inactive)
REMARK    1  A    between atoms: C_4  and  C_7
REMARK    2  A    between atoms: C_7  and  N_8
REMARK    3  A    between atoms: N_8  and  C_9
REMARK    4  A    between atoms: N_8  and  C_24
REMARK    5  A    between atoms: C_9  and  N_10
REMARK                            x       y       z     vdW  Elec       q    Type
REMARK                         _______ _______ _______ _____ _____    ______ ____
ROOT
ATOM      1  N   UNL     1       4.751  -3.226   1.781  0.00  0.00    -0.208 N 
ATOM      2  C   UNL     1       4.708  -4.088   0.743  0.00  0.00    +0.246 C 
ATOM      3  O   UNL     1       3.869  -4.145  -0.130  0.00  0.00    -0.273 OA
ATOM      4  C   UNL     1       5.927  -4.966   0.900  0.00  0.00    +0.101 C 
ATOM      5  C   UNL     1       5.522  -6.426   1.068  0.00  0.00    -0.043 C 
ATOM      6  N   UNL     1       6.131  -7.230   0.002  0.00  0.00    +0.381 N 
ATOM      7  C   UNL     1       7.592  -7.168   0.085  0.00  0.00    -0.078 C 
ATOM      8  C   UNL     1       8.071  -5.727  -0.099  0.00  0.00    -0.013 C 
ATOM      9  C   UNL     1       6.849  -4.822  -0.311  0.00  0.00    +0.016 C 
ATOM     10  C   UNL     1       6.094  -5.325  -1.551  0.00  0.00    -0.013 C 
ATOM     11  C   UNL     1       5.670  -6.776  -1.312  0.00  0.00    -0.078 C 
ATOM     12  N   UNL     1       6.581  -4.461   2.111  0.00  0.00    -0.286 N 
ATOM     13  C   UNL     1       5.823  -3.439   2.554  0.00  0.00    +0.311 C 
ATOM     14  O   UNL     1       6.082  -2.786   3.546  0.00  0.00    -0.252 OA
ATOM     15  H   UNL     1       7.399  -4.795   2.512  0.00  0.00    +0.151 HD
ATOM     16  H   UNL     1       5.854  -8.193   0.127  0.00  0.00    -0.082 HD
ENDROOT
BRANCH   1  17
ATOM     17  C   UNL     1       3.753  -2.182   2.027  0.00  0.00    +0.226 C 
BRANCH  17  18
ATOM     18  N   UNL     1       4.152  -0.952   1.338  0.00  0.00    -0.309 N 
BRANCH  18  19
ATOM     19  C   UNL     1       4.952  -0.014   1.993  0.00  0.00    +0.031 A 
ATOM     20  C   UNL     1       5.376  -0.247   3.295  0.00  0.00    +0.023 A 
ATOM     21  C   UNL     1       6.168   0.683   3.939  0.00  0.00    +0.002 A 
ATOM     22  C   UNL     1       6.539   1.846   3.290  0.00  0.00    +0.000 A 
ATOM     23  C   UNL     1       6.119   2.082   1.993  0.00  0.00    +0.002 A 
ATOM     24  C   UNL     1       5.332   1.153   1.341  0.00  0.00    +0.023 A 
ENDBRANCH  18  19
BRANCH  18  25
ATOM     25  C   UNL     1       3.711  -0.707  -0.038  0.00  0.00    +0.141 C 
BRANCH  25  29
ATOM     26  C   UNL     1      -0.017   1.378   0.010  0.00  0.00    +0.000 A 
ATOM     27  C   UNL     1       1.171   2.086   0.002  0.00  0.00    +0.000 A 
ATOM     28  C   UNL     1       2.377   1.411  -0.013  0.00  0.00    +0.005 A 
ATOM     29  C   UNL     1       2.396   0.029  -0.020  0.00  0.00    -0.030 A 
ATOM     30  C   UNL     1       1.208  -0.679  -0.012  0.00  0.00    +0.005 A 
ATOM     31  C   UNL     1       0.002  -0.004   0.002  0.00  0.00    +0.000 A 
ENDBRANCH  25  29
ENDBRANCH  18  25
ENDBRANCH  17  18
ENDBRANCH   1  17
TORSDOF 5
