REMARK  Name = ZINC14164958
REMARK  9 active torsions:
REMARK  status: ('A' for Active; 'I' for Inactive)
REMARK    1  A    between atoms: C_1  and  C_2
REMARK    2  A    between atoms: C_2  and  C_4
REMARK    3  A    between atoms: C_2  and  N_62
REMARK    4  A    between atoms: C_17  and  C_18
REMARK    5  A    between atoms: C_17  and  N_62
REMARK    6  A    between atoms: C_18  and  C_20
REMARK    7  A    between atoms: C_18  and  C_28
REMARK    8  A    between atoms: C_23  and  O_26
REMARK    9  A    between atoms: O_26  and  C_27
REMARK                            x       y       z     vdW  Elec       q    Type
REMARK                         _______ _______ _______ _____ _____    ______ ____
ROOT
ATOM      1  C   UNL     1      -2.179   2.054  -0.947  0.00  0.00    -0.069 C 
ENDROOT
BRANCH   1   2
ATOM      2  N   UNL     1      -0.724   2.015  -1.189  0.00  0.00    +0.387 N 
ATOM      3  H   UNL     1      -0.529   1.387  -1.977  0.00  0.00    -0.085 HD
ATOM      4  H   UNL     1      -0.393   2.961  -1.415  0.00  0.00    -0.085 HD
BRANCH   2   6
ATOM      5  C   UNL     1       0.002  -0.004   0.002  0.00  0.00    -0.004 C 
ATOM      6  C   UNL     1      -0.019   1.526   0.010  0.00  0.00    +0.013 C 
BRANCH   6   7
ATOM      7  C   UNL     1       1.395   2.047  -0.000  0.00  0.00    +0.206 C 
ATOM      8  O   UNL     1       1.774   2.755  -0.910  0.00  0.00    -0.277 OA
ATOM      9  N   UNL     1       2.239   1.728   1.001  0.00  0.00    -0.262 N 
ATOM     10  C   UNL     1       1.805   0.872   2.115  0.00  0.00    +0.209 C 
ATOM     11  C   UNL     1       2.342   1.435   3.406  0.00  0.00    +0.235 C 
ATOM     12  O   UNL     1       1.732   1.255   4.438  0.00  0.00    -0.274 OA
ATOM     13  N   UNL     1       3.492   2.135   3.427  0.00  0.00    -0.283 N 
ATOM     14  C   UNL     1       4.189   2.401   2.243  0.00  0.00    +0.055 A 
ATOM     15  C   UNL     1       3.562   2.196   1.010  0.00  0.00    +0.058 A 
ATOM     16  C   UNL     1       4.235   2.466  -0.165  0.00  0.00    +0.025 A 
ATOM     17  C   UNL     1       5.539   2.927  -0.120  0.00  0.00    +0.002 A 
ATOM     18  C   UNL     1       6.165   3.123   1.097  0.00  0.00    +0.002 A 
ATOM     19  C   UNL     1       5.495   2.862   2.279  0.00  0.00    +0.025 A 
ATOM     20  H   UNL     1       3.841   2.459   4.272  0.00  0.00    +0.155 HD
ENDBRANCH   6   7
ENDBRANCH   2   6
ENDBRANCH   1   2
BRANCH   1  21
ATOM     21  C   UNL     1      -2.883   2.565  -2.205  0.00  0.00    +0.034 C 
BRANCH  21  22
ATOM     22  C   UNL     1      -2.479   3.994  -2.462  0.00  0.00    -0.017 A 
ATOM     23  C   UNL     1      -2.673   5.038  -1.642  0.00  0.00    +0.087 A 
ATOM     24  N   UNL     1      -2.171   6.177  -2.209  0.00  0.00    -0.360 N 
ATOM     25  H   UNL     1      -2.191   7.058  -1.804  0.00  0.00    +0.165 HD
ATOM     26  C   UNL     1      -1.637   5.888  -3.445  0.00  0.00    +0.047 A 
ATOM     27  C   UNL     1      -1.807   4.508  -3.658  0.00  0.00    +0.003 A 
ATOM     28  C   UNL     1      -1.355   3.925  -4.843  0.00  0.00    +0.010 A 
ATOM     29  C   UNL     1      -0.750   4.699  -5.793  0.00  0.00    +0.001 A 
ATOM     30  C   UNL     1      -0.580   6.062  -5.588  0.00  0.00    +0.002 A 
ATOM     31  C   UNL     1      -1.018   6.657  -4.425  0.00  0.00    +0.026 A 
ENDBRANCH  21  22
BRANCH  21  32
ATOM     32  C   UNL     1      -4.376   2.492  -2.011  0.00  0.00    -0.041 A 
ATOM     33  C   UNL     1      -4.972   3.194  -0.980  0.00  0.00    +0.008 A 
ATOM     34  C   UNL     1      -6.341   3.134  -0.802  0.00  0.00    +0.046 A 
ATOM     35  C   UNL     1      -7.116   2.358  -1.653  0.00  0.00    +0.120 A 
ATOM     36  C   UNL     1      -6.514   1.650  -2.683  0.00  0.00    +0.046 A 
ATOM     37  C   UNL     1      -5.146   1.719  -2.860  0.00  0.00    +0.008 A 
BRANCH  35  38
ATOM     38  O   UNL     1      -8.461   2.292  -1.476  0.00  0.00    -0.495 OA
ATOM     39  C   UNL     1      -9.012   3.047  -0.395  0.00  0.00    +0.277 C 
ENDBRANCH  35  38
ENDBRANCH  21  32
ENDBRANCH   1  21
TORSDOF 7
