REMARK  Name = ZINC05567070
REMARK  4 active torsions:
REMARK  status: ('A' for Active; 'I' for Inactive)
REMARK    1  A    between atoms: C_2  and  C_11
REMARK    2  A    between atoms: N_12  and  N_13
REMARK    3  A    between atoms: C_14  and  C_16
REMARK    4  A    between atoms: N_18  and  C_19
REMARK                            x       y       z     vdW  Elec       q    Type
REMARK                         _______ _______ _______ _____ _____    ______ ____
ROOT
ATOM      1  N   UNL     1       0.380   2.318   5.962  0.00  0.00    -0.199 N 
ATOM      2  C   UNL     1       0.766   2.333   4.671  0.00  0.00    +0.318 C 
ATOM      3  O   UNL     1       1.901   2.654   4.380  0.00  0.00    -0.263 OA
ATOM      4  H   UNL     1      -0.526   2.062   6.194  0.00  0.00    +0.178 HD
ENDROOT
BRANCH   2   5
ATOM      5  C   UNL     1      -0.200   1.954   3.599  0.00  0.00    +0.301 C 
ATOM      6  O   UNL     1      -1.334   1.633   3.890  0.00  0.00    -0.265 OA
ATOM      7  N   UNL     1       0.186   1.969   2.308  0.00  0.00    -0.305 N 
ATOM      8  H   UNL     1       1.092   2.226   2.075  0.00  0.00    +0.149 HD
BRANCH   7   9
ATOM      9  C   UNL     1      -0.763   1.597   1.255  0.00  0.00    +0.073 C 
ATOM     10  C   UNL     1      -0.013   1.086   0.008  0.00  0.00    +0.022 C 
ATOM     11  C   UNL     1      -0.784   1.609  -1.216  0.00  0.00    +0.002 C 
ATOM     12  C   UNL     1      -1.978   2.421  -0.670  0.00  0.00    +0.002 C 
ATOM     13  C   UNL     1      -1.531   2.845   0.750  0.00  0.00    +0.022 C 
ENDBRANCH   7   9
ENDBRANCH   2   5
BRANCH   1  15
ATOM     14  C   UNL     1       0.915   2.660   8.213  0.00  0.00    +0.139 C 
ATOM     15  N   UNL     1       1.287   2.674   6.968  0.00  0.00    -0.187 NA
BRANCH  14  17
ATOM     16  C   UNL     1       1.469   3.025  10.611  0.00  0.00    +0.060 A 
ATOM     17  C   UNL     1       1.869   3.033   9.271  0.00  0.00    +0.012 A 
ATOM     18  C   UNL     1       3.176   3.404   8.939  0.00  0.00    +0.030 A 
ATOM     19  C   UNL     1       4.067   3.753   9.932  0.00  0.00    +0.065 A 
ATOM     20  C   UNL     1       3.671   3.739  11.262  0.00  0.00    +0.167 A 
ATOM     21  C   UNL     1       2.369   3.370  11.601  0.00  0.00    +0.167 A 
ATOM     22  O   UNL     1       2.236   3.438  12.958  0.00  0.00    -0.453 OA
ATOM     23  C   UNL     1       3.580   3.454  13.475  0.00  0.00    +0.466 C 
ATOM     24  O   UNL     1       4.351   4.037  12.408  0.00  0.00    -0.453 OA
ATOM     25 BR   UNL     1       3.721   3.426   7.128  0.00  0.00    -0.050 Br
ENDBRANCH  14  17
ENDBRANCH   1  15
TORSDOF 4
