REMARK  Name = ZINC16213550
REMARK  6 active torsions:
REMARK  status: ('A' for Active; 'I' for Inactive)
REMARK    1  A    between atoms: C_1  and  C_2
REMARK    2  A    between atoms: C_5  and  N_8
REMARK    3  A    between atoms: C_10  and  C_13
REMARK    4  A    between atoms: N_20  and  C_23
REMARK    5  A    between atoms: C_23  and  C_24
REMARK    6  A    between atoms: C_24  and  C_25
REMARK                            x       y       z     vdW  Elec       q    Type
REMARK                         _______ _______ _______ _____ _____    ______ ____
ROOT
ATOM      1  C   UNL     1       5.968   0.800  -0.050  0.00  0.00    +0.029 C 
ATOM      2  C   UNL     1       6.780  -0.316   0.041  0.00  0.00    +0.100 C 
ATOM      3  C   UNL     1       8.248  -0.194   0.141  0.00  0.00    +0.257 C 
ATOM      4  O   UNL     1       8.786   0.897   0.145  0.00  0.00    -0.270 OA
ATOM      5  N   UNL     1       8.976  -1.326   0.227  0.00  0.00    -0.236 N 
ATOM      6  C   UNL     1       8.396  -2.535   0.223  0.00  0.00    +0.315 C 
ATOM      7  O   UNL     1       9.110  -3.515   0.304  0.00  0.00    -0.252 OA
ATOM      8  N   UNL     1       7.072  -2.720   0.136  0.00  0.00    -0.221 N 
ATOM      9  C   UNL     1       6.218  -1.680   0.050  0.00  0.00    +0.259 C 
ATOM     10  O   UNL     1       5.017  -1.861  -0.024  0.00  0.00    -0.269 OA
ATOM     11  H   UNL     1       9.942  -1.264   0.293  0.00  0.00    +0.159 HD
ENDROOT
BRANCH   1  14
ATOM     12  N   UNL     1       2.402   0.884  -0.317  0.00  0.00    -0.239 N 
ATOM     13  C   UNL     1       3.535   1.316   0.262  0.00  0.00    +0.122 A 
ATOM     14  C   UNL     1       4.590   0.651  -0.349  0.00  0.00    +0.014 A 
ATOM     15  C   UNL     1       4.026  -0.206  -1.329  0.00  0.00    +0.142 A 
ATOM     16  N   UNL     1       2.731  -0.061  -1.294  0.00  0.00    -0.174 NA
BRANCH  12  21
ATOM     17  C   UNL     1      -2.848   2.594   0.998  0.00  0.00    +0.044 C 
ATOM     18  C   UNL     1      -1.454   2.139   0.649  0.00  0.00    -0.050 A 
ATOM     19  C   UNL     1      -1.263   1.202  -0.349  0.00  0.00    +0.005 A 
ATOM     20  C   UNL     1       0.013   0.780  -0.668  0.00  0.00    +0.028 A 
ATOM     21  C   UNL     1       1.106   1.306   0.008  0.00  0.00    +0.065 A 
ATOM     22  C   UNL     1       0.911   2.251   1.007  0.00  0.00    +0.028 A 
ATOM     23  C   UNL     1      -0.367   2.665   1.325  0.00  0.00    +0.005 A 
ENDBRANCH  12  21
ENDBRANCH   1  14
BRANCH   8  24
ATOM     24  C   UNL     1       6.539  -4.085   0.140  0.00  0.00    +0.122 C 
BRANCH  24  25
ATOM     25  C   UNL     1       6.252  -4.516   1.580  0.00  0.00    +0.050 C 
BRANCH  25  26
ATOM     26  C   UNL     1       5.703  -5.919   1.585  0.00  0.00    -0.072 C 
ATOM     27  C   UNL     1       6.534  -6.895   1.768  0.00  0.00    -0.028 C 
ATOM     28  C   UNL     1       6.138  -8.342   1.793  0.00  0.00    +0.027 C 
ATOM     29  C   UNL     1       4.627  -8.474   1.989  0.00  0.00    +0.004 C 
ATOM     30  C   UNL     1       3.925  -7.549   0.986  0.00  0.00    +0.005 C 
ATOM     31  C   UNL     1       4.229  -6.099   1.370  0.00  0.00    +0.030 C 
ENDBRANCH  25  26
ENDBRANCH  24  25
ENDBRANCH   8  24
TORSDOF 5
