REMARK  Name = ZINC43619549
REMARK  6 active torsions:
REMARK  status: ('A' for Active; 'I' for Inactive)
REMARK    1  A    between atoms: C_5  and  C_7
REMARK    2  A    between atoms: C_7  and  C_21
REMARK    3  A    between atoms: N_10  and  C_14
REMARK    4  A    between atoms: C_14  and  C_15
REMARK    5  A    between atoms: C_15  and  C_16
REMARK    6  A    between atoms: C_27  and  C_29
REMARK                            x       y       z     vdW  Elec       q    Type
REMARK                         _______ _______ _______ _____ _____    ______ ____
ROOT
ATOM      1  C   UNL     1       1.250  -2.168  -0.023  0.00  0.00    +0.158 C 
ATOM      2  C   UNL     1       0.754  -2.325  -1.446  0.00  0.00    +0.253 C 
ATOM      3  O   UNL     1       0.697  -3.348  -2.094  0.00  0.00    -0.272 OA
ATOM      4  N   UNL     1       0.387  -1.090  -1.843  0.00  0.00    -0.224 N 
ATOM      5  C   UNL     1       0.582  -0.184  -0.878  0.00  0.00    +0.310 C 
ATOM      6  O   UNL     1       0.326   0.998  -0.999  0.00  0.00    -0.252 OA
ATOM      7  N   UNL     1       1.091  -0.728   0.242  0.00  0.00    -0.280 N 
ATOM      8  H   UNL     1       1.311  -0.262   1.064  0.00  0.00    +0.152 HD
ENDROOT
BRANCH   1   9
ATOM      9  C   UNL     1       2.721  -2.576   0.086  0.00  0.00    +0.031 C 
ATOM     10  C   UNL     1       3.252  -2.204   1.472  0.00  0.00    +0.025 C 
ATOM     11  C   UNL     1       4.715  -2.645   1.589  0.00  0.00    +0.108 C 
ATOM     12  N   UNL     1       5.475  -2.062   0.475  0.00  0.00    -0.301 N 
ATOM     13  C   UNL     1       4.999  -2.283  -0.897  0.00  0.00    +0.108 C 
ATOM     14  C   UNL     1       3.533  -1.845  -0.986  0.00  0.00    +0.025 C 
ATOM     15  C   UNL     1       6.588  -1.339   0.708  0.00  0.00    +0.219 C 
ATOM     16  O   UNL     1       6.971  -1.164   1.845  0.00  0.00    -0.275 OA
BRANCH  15  17
ATOM     17  C   UNL     1       7.357  -0.748  -0.445  0.00  0.00    +0.083 C 
ATOM     18  C   UNL     1       6.492   0.290  -1.201  0.00  0.00    +0.021 C 
ATOM     19  C   UNL     1       7.291   1.623  -1.042  0.00  0.00    +0.013 C 
ATOM     20  C   UNL     1       8.765   1.083  -1.129  0.00  0.00    +0.016 C 
ATOM     21  C   UNL     1       8.571   0.087   0.075  0.00  0.00    +0.024 C 
ATOM     22  C   UNL     1       7.954   1.041   1.104  0.00  0.00    -0.027 C 
ATOM     23  C   UNL     1       7.193   1.940   0.455  0.00  0.00    -0.027 C 
ENDBRANCH  15  17
ENDBRANCH   1   9
BRANCH   1  28
ATOM     24  C   UNL     1      -1.712  -3.453   1.922  0.00  0.00    +0.003 A 
ATOM     25  C   UNL     1      -1.091  -4.458   2.648  0.00  0.00    +0.020 A 
ATOM     26  C   UNL     1       0.262  -4.677   2.475  0.00  0.00    +0.111 A 
ATOM     27  N   UNL     1       0.962  -3.942   1.633  0.00  0.00    -0.257 NA
ATOM     28  C   UNL     1       0.406  -2.978   0.926  0.00  0.00    +0.074 A 
ATOM     29  C   UNL     1      -0.943  -2.702   1.046  0.00  0.00    +0.026 A 
ENDBRANCH   1  28
BRANCH   4  30
ATOM     30  C   UNL     1      -0.156  -0.778  -3.167  0.00  0.00    +0.123 C 
BRANCH  30  31
ATOM     31  C   UNL     1      -1.680  -0.908  -3.137  0.00  0.00    +0.062 C 
BRANCH  31  32
ATOM     32  C   UNL     1      -2.238  -0.587  -4.499  0.00  0.00    -0.009 A 
ATOM     33  C   UNL     1      -2.479  -1.420  -5.541  0.00  0.00    +0.011 A 
ATOM     34  C   UNL     1      -3.002  -0.899  -6.710  0.00  0.00    +0.008 A 
ATOM     35  C   UNL     1      -3.258   0.430  -6.779  0.00  0.00    +0.045 A 
ATOM     36  S   UNL     1      -2.763   0.988  -5.157  0.00  0.00    -0.102 S 
ENDBRANCH  31  32
ENDBRANCH  30  31
ENDBRANCH   4  30
TORSDOF 6
