REMARK  Name = ZINC08452018
REMARK  4 active torsions:
REMARK  status: ('A' for Active; 'I' for Inactive)
REMARK    1  A    between atoms: C_1  and  C_2
REMARK    2  A    between atoms: C_5  and  C_8
REMARK    3  A    between atoms: C_10  and  C_33
REMARK    4  A    between atoms: C_25  and  C_27
REMARK                            x       y       z     vdW  Elec       q    Type
REMARK                         _______ _______ _______ _____ _____    ______ ____
ROOT
ATOM      1  C   UNL     1      -2.021   1.870   0.858  0.00  0.00    +0.094 C 
ATOM      2  C   UNL     1      -0.846   1.409   0.030  0.00  0.00    +0.055 C 
ATOM      3  C   UNL     1      -1.155   1.498  -1.450  0.00  0.00    +0.081 C 
ATOM      4  N   UNL     1      -1.073   2.817  -2.007  0.00  0.00    -0.263 N 
ATOM      5  C   UNL     1      -1.994   3.842  -1.729  0.00  0.00    +0.058 A 
ATOM      6  C   UNL     1      -2.288   4.693  -2.801  0.00  0.00    +0.025 A 
ATOM      7  C   UNL     1      -3.183   5.729  -2.648  0.00  0.00    +0.002 A 
ATOM      8  C   UNL     1      -3.801   5.937  -1.429  0.00  0.00    +0.002 A 
ATOM      9  C   UNL     1      -3.515   5.106  -0.366  0.00  0.00    +0.025 A 
ATOM     10  C   UNL     1      -2.606   4.059  -0.515  0.00  0.00    +0.059 A 
ATOM     11  N   UNL     1      -2.356   3.274   0.622  0.00  0.00    -0.256 N 
ATOM     12  C   UNL     1      -2.292   3.561   1.936  0.00  0.00    +0.241 C 
ATOM     13  O   UNL     1      -2.577   4.545   2.584  0.00  0.00    -0.274 OA
ATOM     14  C   UNL     1      -1.738   2.217   2.306  0.00  0.00    +0.195 C 
ATOM     15 CL   UNL     1       0.013   2.236   2.734  0.00  0.00    -0.109 Cl
ATOM     16  C   UNL     1      -0.054   3.090  -2.845  0.00  0.00    +0.251 C 
ATOM     17  O   UNL     1       0.682   2.196  -3.217  0.00  0.00    -0.270 OA
ATOM     18  C   UNL     1      -0.177   0.595  -2.203  0.00  0.00    +0.028 C 
ENDROOT
BRANCH   1  23
ATOM     19  C   UNL     1      -6.584  -1.632   0.295  0.00  0.00    +0.044 C 
ATOM     20  C   UNL     1      -5.394  -0.719   0.442  0.00  0.00    -0.050 A 
ATOM     21  C   UNL     1      -5.582   0.625   0.704  0.00  0.00    +0.004 A 
ATOM     22  C   UNL     1      -4.491   1.463   0.838  0.00  0.00    +0.006 A 
ATOM     23  C   UNL     1      -3.211   0.956   0.711  0.00  0.00    -0.022 A 
ATOM     24  C   UNL     1      -3.023  -0.387   0.445  0.00  0.00    +0.006 A 
ATOM     25  C   UNL     1      -4.114  -1.225   0.315  0.00  0.00    +0.004 A 
ENDBRANCH   1  23
BRANCH  16  26
ATOM     26  C   UNL     1       0.169   4.474  -3.313  0.00  0.00    +0.037 A 
ATOM     27  C   UNL     1      -0.165   5.553  -2.493  0.00  0.00    +0.013 A 
ATOM     28  C   UNL     1       0.050   6.843  -2.933  0.00  0.00    +0.001 A 
ATOM     29  C   UNL     1       0.586   7.068  -4.189  0.00  0.00    +0.000 A 
ATOM     30  C   UNL     1       0.914   6.003  -5.009  0.00  0.00    +0.001 A 
ATOM     31  C   UNL     1       0.709   4.708  -4.579  0.00  0.00    +0.013 A 
ENDBRANCH  16  26
TORSDOF 2
