REMARK  Name = ZINC40981668
REMARK  11 active torsions:
REMARK  status: ('A' for Active; 'I' for Inactive)
REMARK    1  A    between atoms: C_1  and  C_2
REMARK    2  A    between atoms: C_2  and  C_3
REMARK    3  A    between atoms: C_3  and  S_4
REMARK    4  A    between atoms: S_4  and  C_5
REMARK    5  A    between atoms: C_10  and  C_22
REMARK    6  A    between atoms: C_16  and  C_20
REMARK    7  A    between atoms: C_16  and  C_21
REMARK    8  A    between atoms: C_25  and  O_28
REMARK    9  A    between atoms: O_28  and  C_29
REMARK   10  A    between atoms: C_29  and  C_30
REMARK   11  A    between atoms: C_33  and  C_36
REMARK                            x       y       z     vdW  Elec       q    Type
REMARK                         _______ _______ _______ _____ _____    ______ ____
ROOT
ATOM      1  C   UNL     1       1.641  -2.747   2.702  0.00  0.00    +0.210 A 
ATOM      2  N   UNL     1       2.143  -1.874   3.588  0.00  0.00    -0.187 NA
ATOM      3  C   UNL     1       2.725  -2.524   4.558  0.00  0.00    +0.219 A 
ATOM      4  N   UNL     1       2.611  -3.851   4.305  0.00  0.00    -0.220 N 
ATOM      5  N   UNL     1       1.903  -3.970   3.110  0.00  0.00    -0.141 NA
ATOM      6  C   UNL     1       3.157  -4.884   5.177  0.00  0.00    +0.175 C 
ATOM      7  C   UNL     1       3.536  -4.285   6.514  0.00  0.00    +0.041 C 
ATOM      8  C   UNL     1       3.632  -2.951   6.701  0.00  0.00    +0.020 C 
ATOM      9  N   UNL     1       3.372  -2.057   5.690  0.00  0.00    -0.287 N 
ATOM     10  C   UNL     1       4.037  -2.383   8.041  0.00  0.00    +0.058 C 
ATOM     11  C   UNL     1       3.545  -3.305   9.159  0.00  0.00    -0.023 C 
ATOM     12  C   UNL     1       4.155  -4.694   8.942  0.00  0.00    +0.086 C 
ATOM     13  C   UNL     1       3.785  -5.181   7.569  0.00  0.00    +0.164 C 
ATOM     14  O   UNL     1       3.700  -6.376   7.366  0.00  0.00    -0.292 OA
ATOM     15  C   UNL     1       3.990  -2.753  10.515  0.00  0.00    +0.011 C 
ATOM     16  C   UNL     1       2.019  -3.399   9.116  0.00  0.00    +0.011 C 
ATOM     17  H   UNL     1       3.634  -1.126   5.767  0.00  0.00    +0.155 HD
ENDROOT
BRANCH   6  18
ATOM     18  C   UNL     1       4.381  -5.484   4.536  0.00  0.00    -0.018 A 
ATOM     19  C   UNL     1       5.471  -4.685   4.246  0.00  0.00    +0.009 A 
ATOM     20  C   UNL     1       6.594  -5.233   3.658  0.00  0.00    +0.046 A 
ATOM     21  C   UNL     1       6.628  -6.587   3.358  0.00  0.00    +0.121 A 
ATOM     22  C   UNL     1       5.533  -7.387   3.650  0.00  0.00    +0.046 A 
ATOM     23  C   UNL     1       4.414  -6.835   4.243  0.00  0.00    +0.009 A 
BRANCH  21  24
ATOM     24  O   UNL     1       7.731  -7.129   2.779  0.00  0.00    -0.487 OA
BRANCH  24  25
ATOM     25  C   UNL     1       7.696  -8.530   2.498  0.00  0.00    +0.264 C 
BRANCH  25  26
ATOM     26  C   UNL     1       8.996  -8.948   1.862  0.00  0.00    -0.010 A 
ATOM     27  C   UNL     1       9.138  -8.906   0.487  0.00  0.00    +0.007 A 
ATOM     28  C   UNL     1      10.331  -9.289  -0.096  0.00  0.00    +0.004 A 
ATOM     29  C   UNL     1      11.382  -9.715   0.695  0.00  0.00    -0.050 A 
ATOM     30  C   UNL     1      11.240  -9.756   2.069  0.00  0.00    +0.004 A 
ATOM     31  C   UNL     1      10.049  -9.368   2.653  0.00  0.00    +0.007 A 
ATOM     32  C   UNL     1      12.682 -10.134   0.058  0.00  0.00    +0.044 C 
ENDBRANCH  25  26
ENDBRANCH  24  25
ENDBRANCH  21  24
ENDBRANCH   6  18
BRANCH   1  33
ATOM     33  S   UNL     1       0.767  -2.325   1.232  0.00  0.00    -0.084 S 
BRANCH  33  34
ATOM     34  C   UNL     1       0.742  -0.511   1.242  0.00  0.00    +0.077 C 
BRANCH  34  36
ATOM     35  C   UNL     1      -0.019   1.526   0.010  0.00  0.00    +0.004 C 
ATOM     36  C   UNL     1       0.002  -0.004   0.002  0.00  0.00    +0.008 C 
ENDBRANCH  34  36
ENDBRANCH  33  34
ENDBRANCH   1  33
TORSDOF 7
