REMARK  Name = ZINC62397718
REMARK  8 active torsions:
REMARK  status: ('A' for Active; 'I' for Inactive)
REMARK    1  A    between atoms: C_1  and  C_2
REMARK    2  A    between atoms: C_2  and  O_3
REMARK    3  A    between atoms: O_3  and  C_4
REMARK    4  A    between atoms: C_7  and  C_21
REMARK    5  A    between atoms: C_9  and  C_10
REMARK    6  A    between atoms: C_11  and  C_19
REMARK    7  A    between atoms: C_16  and  C_18
REMARK    8  A    between atoms: C_19  and  O_20
REMARK                            x       y       z     vdW  Elec       q    Type
REMARK                         _______ _______ _______ _____ _____    ______ ____
ROOT
ATOM      1  C   UNL     1       1.815  -1.310  -3.509  0.00  0.00    +0.101 A 
ATOM      2  C   UNL     1       1.932  -1.597  -4.830  0.00  0.00    +0.097 A 
ATOM      3  N   UNL     1       2.756  -0.635  -5.398  0.00  0.00    -0.208 N 
ATOM      4  C   UNL     1       3.096   0.198  -4.364  0.00  0.00    +0.196 A 
ATOM      5  N   UNL     1       2.538  -0.199  -3.258  0.00  0.00    -0.220 NA
ATOM      6  S   UNL     1       4.141   1.391  -5.166  0.00  0.00    -0.033 S 
ATOM      7  C   UNL     1       4.058   0.709  -6.814  0.00  0.00    +0.099 A 
ATOM      8  N   UNL     1       3.284  -0.320  -6.645  0.00  0.00    -0.162 NA
ATOM      9  C   UNL     1       4.716   1.202  -8.077  0.00  0.00    +0.075 C 
ENDROOT
BRANCH   1  15
ATOM     10  C   UNL     1       0.172  -1.413  -1.631  0.00  0.00    +0.130 A 
ATOM     11  C   UNL     1      -0.567  -2.140  -0.711  0.00  0.00    +0.046 A 
ATOM     12  C   UNL     1      -0.455  -3.517  -0.666  0.00  0.00    +0.007 A 
ATOM     13  C   UNL     1       0.394  -4.177  -1.536  0.00  0.00    -0.050 A 
ATOM     14  C   UNL     1       1.135  -3.466  -2.458  0.00  0.00    +0.017 A 
ATOM     15  C   UNL     1       1.025  -2.079  -2.517  0.00  0.00    +0.044 A 
ATOM     16  C   UNL     1       0.509  -5.679  -1.478  0.00  0.00    +0.044 C 
BRANCH  10  17
ATOM     17  O   UNL     1       0.062  -0.060  -1.677  0.00  0.00    -0.492 OA
BRANCH  17  19
ATOM     18  C   UNL     1      -0.819   2.068  -0.944  0.00  0.00    +0.048 C 
ATOM     19  C   UNL     1      -0.829   0.551  -0.742  0.00  0.00    +0.226 C 
ENDBRANCH  17  19
ENDBRANCH  10  17
ENDBRANCH   1  15
BRANCH   2  20
ATOM     20  C   UNL     1       1.286  -2.753  -5.549  0.00  0.00    +0.213 C 
BRANCH  20  21
ATOM     21  O   UNL     1       2.210  -3.840  -5.632  0.00  0.00    -0.389 OA
ATOM     22  H   UNL     1       1.861  -4.620  -6.084  0.00  0.00    +0.210 HD
ENDBRANCH  20  21
ENDBRANCH   2  20
TORSDOF 5
