REMARK  Name = ZINC01842068
REMARK  7 active torsions:
REMARK  status: ('A' for Active; 'I' for Inactive)
REMARK    1  A    between atoms: C_1  and  O_2
REMARK    2  A    between atoms: O_2  and  C_3
REMARK    3  A    between atoms: C_8  and  N_9
REMARK    4  A    between atoms: C_13  and  N_14
REMARK    5  A    between atoms: N_14  and  C_15
REMARK    6  A    between atoms: C_15  and  C_16
REMARK    7  A    between atoms: C_16  and  C_17
REMARK                            x       y       z     vdW  Elec       q    Type
REMARK                         _______ _______ _______ _____ _____    ______ ____
ROOT
ATOM      1  N   UNL     1      -0.018  -2.479   0.104  0.00  0.00    -0.214 N 
ATOM      2  C   UNL     1      -1.227  -3.037  -0.113  0.00  0.00    +0.263 C 
ATOM      3  O   UNL     1      -1.792  -2.909  -1.183  0.00  0.00    -0.269 OA
ATOM      4  C   UNL     1      -1.844  -3.808   0.981  0.00  0.00    +0.113 C 
ATOM      5  C   UNL     1      -3.080  -4.409   0.831  0.00  0.00    +0.085 C 
ATOM      6  C   UNL     1      -1.086  -3.911   2.241  0.00  0.00    +0.256 C 
ATOM      7  O   UNL     1      -1.531  -4.531   3.189  0.00  0.00    -0.270 OA
ATOM      8  N   UNL     1       0.114  -3.299   2.314  0.00  0.00    -0.263 N 
ATOM      9  C   UNL     1       0.617  -2.617   1.276  0.00  0.00    +0.151 C 
ATOM     10  S   UNL     1       2.151  -1.879   1.458  0.00  0.00    -0.018 S 
ATOM     11  H   UNL     1       0.625  -3.356   3.136  0.00  0.00    +0.157 HD
ENDROOT
BRANCH   1  17
ATOM     12  C   UNL     1       0.361  -0.371  -1.027  0.00  0.00    +0.142 A 
ATOM     13  C   UNL     1       0.969   0.354  -2.039  0.00  0.00    +0.047 A 
ATOM     14  C   UNL     1       1.795  -0.283  -2.946  0.00  0.00    +0.004 A 
ATOM     15  C   UNL     1       2.018  -1.644  -2.846  0.00  0.00    +0.002 A 
ATOM     16  C   UNL     1       1.415  -2.374  -1.839  0.00  0.00    +0.027 A 
ATOM     17  C   UNL     1       0.590  -1.741  -0.922  0.00  0.00    +0.085 A 
BRANCH  12  19
ATOM     18  C   UNL     1      -0.640   1.661  -0.302  0.00  0.00    +0.277 C 
ATOM     19  O   UNL     1      -0.452   0.255  -0.134  0.00  0.00    -0.493 OA
ENDBRANCH  12  19
ENDBRANCH   1  17
BRANCH   5  20
ATOM     20  N   UNL     1      -3.545  -5.241   1.785  0.00  0.00    -0.349 N 
ATOM     21  H   UNL     1      -2.980  -5.481   2.537  0.00  0.00    +0.146 HD
BRANCH  20  22
ATOM     22  C   UNL     1      -4.902  -5.783   1.687  0.00  0.00    +0.105 C 
BRANCH  22  23
ATOM     23  C   UNL     1      -5.177  -6.691   2.887  0.00  0.00    +0.056 C 
BRANCH  23  24
ATOM     24  C   UNL     1      -6.574  -7.249   2.786  0.00  0.00    -0.021 A 
ATOM     25  C   UNL     1      -7.678  -6.745   3.359  0.00  0.00    +0.087 A 
ATOM     26  N   UNL     1      -8.762  -7.519   3.045  0.00  0.00    -0.360 N 
ATOM     27  H   UNL     1      -9.670  -7.354   3.344  0.00  0.00    +0.165 HD
ATOM     28  C   UNL     1      -8.372  -8.566   2.240  0.00  0.00    +0.047 A 
ATOM     29  C   UNL     1      -6.985  -8.439   2.038  0.00  0.00    +0.003 A 
ATOM     30  C   UNL     1      -6.309  -9.370   1.247  0.00  0.00    +0.010 A 
ATOM     31  C   UNL     1      -6.999 -10.398   0.670  0.00  0.00    +0.001 A 
ATOM     32  C   UNL     1      -8.367 -10.526   0.863  0.00  0.00    +0.002 A 
ATOM     33  C   UNL     1      -9.053  -9.624   1.647  0.00  0.00    +0.026 A 
ENDBRANCH  23  24
ENDBRANCH  22  23
ENDBRANCH  20  22
ENDBRANCH   5  20
TORSDOF 6
