REMARK  Name = ZINC51579470
REMARK  4 active torsions:
REMARK  status: ('A' for Active; 'I' for Inactive)
REMARK    1  A    between atoms: C_1  and  C_2
REMARK    2  A    between atoms: C_5  and  C_17
REMARK    3  A    between atoms: C_6  and  N_8
REMARK    4  A    between atoms: N_18  and  O_19
REMARK                            x       y       z     vdW  Elec       q    Type
REMARK                         _______ _______ _______ _____ _____    ______ ____
ROOT
ATOM      1  C   UNL     1      -0.018   1.503   0.010  0.00  0.00    +0.044 C 
ATOM      2  C   UNL     1       0.002  -0.004   0.002  0.00  0.00    -0.049 A 
ATOM      3  C   UNL     1       0.006  -0.686  -1.203  0.00  0.00    +0.004 A 
ATOM      4  C   UNL     1       0.024  -2.065  -1.223  0.00  0.00    +0.013 A 
ATOM      5  C   UNL     1       0.039  -2.778  -0.024  0.00  0.00    +0.039 A 
ATOM      6  C   UNL     1       0.036  -2.085   1.194  0.00  0.00    +0.041 A 
ATOM      7  C   UNL     1       0.023  -0.697   1.196  0.00  0.00    +0.027 A 
ENDROOT
BRANCH   6   8
ATOM      8  N   UNL     1       0.051  -2.786   2.397  0.00  0.00    -0.326 N 
ATOM      9  C   UNL     1       1.246  -3.209   3.157  0.00  0.00    +0.109 C 
ATOM     10  C   UNL     1       0.693  -3.971   4.402  0.00  0.00    +0.008 C 
ATOM     11  C   UNL     1       0.076  -2.844   5.288  0.00  0.00    +0.007 C 
ATOM     12  C   UNL     1      -1.134  -2.339   4.469  0.00  0.00    +0.023 C 
ATOM     13  C   UNL     1      -1.135  -3.250   3.172  0.00  0.00    +0.074 C 
ATOM     14  C   UNL     1      -0.596  -4.604   3.764  0.00  0.00    +0.027 C 
ENDBRANCH   6   8
BRANCH   5  15
ATOM     15  C   UNL     1       0.058  -4.256  -0.039  0.00  0.00    +0.164 C 
ATOM     16  N   UNL     1       0.072  -4.918   1.082  0.00  0.00    -0.071 NA
ATOM     17  N   UNL     1       0.061  -4.936  -1.245  0.00  0.00    -0.340 N 
ATOM     18  H   UNL     1       0.050  -4.443  -2.080  0.00  0.00    +0.144 HD
ATOM     19  H   UNL     1       0.073  -5.906  -1.254  0.00  0.00    +0.144 HD
BRANCH  16  20
ATOM     20  O   UNL     1       0.091  -6.334   1.068  0.00  0.00    -0.408 OA
ATOM     21  H   UNL     1       0.100  -6.736   1.948  0.00  0.00    +0.328 HD
ENDBRANCH  16  20
ENDBRANCH   5  15
TORSDOF 3
