REMARK  Name = ZINC27345455
REMARK  8 active torsions:
REMARK  status: ('A' for Active; 'I' for Inactive)
REMARK    1  A    between atoms: C_5  and  C_7
REMARK    2  A    between atoms: C_7  and  C_9
REMARK    3  A    between atoms: C_7  and  N_27
REMARK    4  A    between atoms: C_9  and  N_10
REMARK    5  A    between atoms: C_11  and  C_13
REMARK    6  A    between atoms: C_13  and  C_14
REMARK    7  A    between atoms: C_14  and  C_15
REMARK    8  A    between atoms: C_18  and  C_20
REMARK                            x       y       z     vdW  Elec       q    Type
REMARK                         _______ _______ _______ _____ _____    ______ ____
ROOT
ATOM      1  N   UNL     1      -1.012   2.671  -3.890  0.00  0.00    -0.317 N 
ATOM      2  C   UNL     1      -1.526   3.261  -4.987  0.00  0.00    +0.213 C 
ATOM      3  O   UNL     1      -2.206   2.618  -5.759  0.00  0.00    -0.276 OA
ATOM      4  H   UNL     1      -0.395   3.254  -3.190  0.00  0.00    +0.149 HD
ENDROOT
BRANCH   1   5
ATOM      5  C   UNL     1      -1.275   1.254  -3.629  0.00  0.00    +0.093 C 
BRANCH   5   6
ATOM      6  C   UNL     1      -0.727   0.879  -2.250  0.00  0.00    -0.019 C 
BRANCH   6  11
ATOM      7  C   UNL     1      -2.162  -2.432  -1.141  0.00  0.00    +0.000 A 
ATOM      8  C   UNL     1      -1.213  -3.318  -1.617  0.00  0.00    +0.001 A 
ATOM      9  C   UNL     1      -0.107  -2.846  -2.298  0.00  0.00    +0.020 A 
ATOM     10  C   UNL     1       0.048  -1.487  -2.508  0.00  0.00    +0.043 A 
ATOM     11  C   UNL     1      -0.899  -0.601  -2.027  0.00  0.00    -0.041 A 
ATOM     12  C   UNL     1      -2.005  -1.074  -1.346  0.00  0.00    +0.003 A 
ATOM     13 CL   UNL     1       1.434  -0.894  -3.369  0.00  0.00    -0.083 Cl
ENDBRANCH   6  11
BRANCH   6  14
ATOM     14  N   UNL     1      -1.461   1.619  -1.214  0.00  0.00    +0.385 N 
ATOM     15  C   UNL     1      -1.177   3.075  -1.297  0.00  0.00    -0.078 C 
ATOM     16  C   UNL     1      -1.541   3.625   0.099  0.00  0.00    -0.020 C 
ATOM     17  C   UNL     1      -1.423   2.410   1.048  0.00  0.00    -0.020 C 
ATOM     18  C   UNL     1      -0.999   1.233   0.144  0.00  0.00    -0.078 C 
ATOM     19  H   UNL     1      -2.522   1.382  -1.386  0.00  0.00    -0.081 HD
ENDBRANCH   6  14
ENDBRANCH   5   6
ENDBRANCH   1   5
BRANCH   2  20
ATOM     20  C   UNL     1      -1.256   4.719  -5.256  0.00  0.00    +0.105 C 
BRANCH  20  21
ATOM     21  C   UNL     1      -1.950   5.135  -6.555  0.00  0.00    +0.105 C 
BRANCH  21  22
ATOM     22  C   UNL     1      -1.679   6.593  -6.823  0.00  0.00    +0.197 A 
ATOM     23  N   UNL     1      -0.671   7.063  -7.502  0.00  0.00    -0.221 NA
ATOM     24  C   UNL     1      -0.756   8.402  -7.537  0.00  0.00    +0.161 A 
ATOM     25  C   UNL     1      -1.865   8.758  -6.840  0.00  0.00    +0.155 A 
ATOM     26  O   UNL     1      -2.434   7.615  -6.398  0.00  0.00    -0.440 OA
BRANCH  25  27
ATOM     27  C   UNL     1      -2.356  10.134  -6.609  0.00  0.00    +0.019 A 
ATOM     28  C   UNL     1      -3.522  10.347  -5.872  0.00  0.00    +0.013 A 
ATOM     29  C   UNL     1      -3.973  11.633  -5.656  0.00  0.00    +0.021 A 
ATOM     30  C   UNL     1      -3.276  12.710  -6.176  0.00  0.00    +0.041 A 
ATOM     31  C   UNL     1      -2.121  12.505  -6.913  0.00  0.00    +0.021 A 
ATOM     32  C   UNL     1      -1.658  11.224  -7.131  0.00  0.00    +0.013 A 
ATOM     33 CL   UNL     1      -3.853  14.325  -5.905  0.00  0.00    -0.084 Cl
ENDBRANCH  25  27
ENDBRANCH  21  22
ENDBRANCH  20  21
ENDBRANCH   2  20
TORSDOF 8
