REMARK  Name = ZINC12072206
REMARK  10 active torsions:
REMARK  status: ('A' for Active; 'I' for Inactive)
REMARK    1  A    between atoms: C_1  and  C_2
REMARK    2  A    between atoms: C_2  and  S_3
REMARK    3  A    between atoms: S_3  and  C_4
REMARK    4  A    between atoms: C_9  and  C_10
REMARK    5  A    between atoms: N_12  and  C_13
REMARK    6  A    between atoms: C_13  and  C_14
REMARK    7  A    between atoms: C_14  and  N_15
REMARK    8  A    between atoms: N_22  and  C_25
REMARK    9  A    between atoms: C_25  and  C_26
REMARK   10  A    between atoms: C_31  and  C_32
REMARK                            x       y       z     vdW  Elec       q    Type
REMARK                         _______ _______ _______ _____ _____    ______ ____
ROOT
ATOM      1  N   UNL     1      -0.120  -1.871  -5.356  0.00  0.00    -0.245 N 
ATOM      2  C   UNL     1      -0.179  -1.454  -4.065  0.00  0.00    +0.165 A 
ATOM      3  C   UNL     1       1.135  -1.138  -3.685  0.00  0.00    +0.103 A 
ATOM      4  C   UNL     1       1.962  -1.385  -4.797  0.00  0.00    +0.150 A 
ATOM      5  N   UNL     1       1.215  -1.816  -5.776  0.00  0.00    -0.177 NA
ATOM      6  C   UNL     1       1.361  -0.655  -2.323  0.00  0.00    +0.265 A 
ATOM      7  O   UNL     1       2.478  -0.364  -1.933  0.00  0.00    -0.267 OA
ATOM      8  N   UNL     1       0.283  -0.543  -1.512  0.00  0.00    -0.294 N 
ATOM      9  C   UNL     1      -0.951  -0.878  -1.965  0.00  0.00    +0.204 A 
ATOM     10  N   UNL     1      -1.172  -1.304  -3.174  0.00  0.00    -0.218 NA
ENDROOT
BRANCH   1  11
ATOM     11  C   UNL     1      -1.258  -2.305  -6.170  0.00  0.00    +0.164 C 
BRANCH  11  12
ATOM     12  C   UNL     1      -1.458  -3.813  -6.005  0.00  0.00    +0.128 C 
BRANCH  12  15
ATOM     13  C   UNL     1      -2.961  -5.544  -6.831  0.00  0.00    +0.245 C 
ATOM     14  O   UNL     1      -2.345  -6.355  -6.166  0.00  0.00    -0.270 OA
ATOM     15  N   UNL     1      -2.596  -4.247  -6.819  0.00  0.00    -0.310 N 
ATOM     16  H   UNL     1      -3.087  -3.600  -7.350  0.00  0.00    +0.149 HD
BRANCH  13  22
ATOM     17  C   UNL     1      -4.489  -7.332  -7.666  0.00  0.00    +0.020 A 
ATOM     18  C   UNL     1      -5.571  -7.730  -8.443  0.00  0.00    +0.015 A 
ATOM     19  C   UNL     1      -6.261  -6.802  -9.193  0.00  0.00    +0.001 A 
ATOM     20  C   UNL     1      -5.885  -5.467  -9.180  0.00  0.00    +0.001 A 
ATOM     21  C   UNL     1      -4.820  -5.052  -8.412  0.00  0.00    +0.014 A 
ATOM     22  C   UNL     1      -4.105  -5.981  -7.650  0.00  0.00    +0.050 A 
BRANCH  17  23
ATOM     23  S   UNL     1      -3.605  -8.515  -6.705  0.00  0.00    -0.125 S 
BRANCH  23  25
ATOM     24  C   UNL     1      -3.779 -11.209  -6.264  0.00  0.00    +0.015 C 
ATOM     25  C   UNL     1      -4.455 -10.081  -7.047  0.00  0.00    +0.071 C 
ENDBRANCH  23  25
ENDBRANCH  17  23
ENDBRANCH  13  22
ENDBRANCH  12  15
ENDBRANCH  11  12
ENDBRANCH   1  11
BRANCH   8  26
ATOM     26  C   UNL     1       0.451  -0.065  -0.137  0.00  0.00    +0.161 C 
BRANCH  26  27
ATOM     27  C   UNL     1       0.334   1.437  -0.110  0.00  0.00    -0.025 A 
ATOM     28  C   UNL     1       0.200   2.141  -1.292  0.00  0.00    +0.005 A 
ATOM     29  C   UNL     1       0.093   3.519  -1.268  0.00  0.00    +0.000 A 
ATOM     30  C   UNL     1       0.119   4.193  -0.061  0.00  0.00    +0.000 A 
ATOM     31  C   UNL     1       0.252   3.489   1.121  0.00  0.00    +0.004 A 
ATOM     32  C   UNL     1       0.355   2.110   1.097  0.00  0.00    -0.046 A 
ATOM     33  C   UNL     1       0.495   1.342   2.385  0.00  0.00    +0.044 C 
ENDBRANCH  26  27
ENDBRANCH   8  26
TORSDOF 8
