REMARK  Name = ZINC15731215
REMARK  7 active torsions:
REMARK  status: ('A' for Active; 'I' for Inactive)
REMARK    1  A    between atoms: C_1  and  C_2
REMARK    2  A    between atoms: C_9  and  S_15
REMARK    3  A    between atoms: S_15  and  N_18
REMARK    4  A    between atoms: N_18  and  C_19
REMARK    5  A    between atoms: C_19  and  C_20
REMARK    6  A    between atoms: C_25  and  C_26
REMARK    7  A    between atoms: C_25  and  N_60
REMARK                            x       y       z     vdW  Elec       q    Type
REMARK                         _______ _______ _______ _____ _____    ______ ____
ROOT
ATOM      1  N   UNL     1      -4.810   1.822   6.088  0.00  0.00    -0.190 NA
ATOM      2  H   UNL     1      -4.441   2.653   5.752  0.00  0.00    +0.148 HD
ENDROOT
BRANCH   1   3
ATOM      3  S   UNL     1      -5.449   1.756   7.614  0.00  0.00    +0.058 S 
ATOM      4  O   UNL     1      -5.285   3.050   8.179  0.00  0.00    -0.153 OA
ATOM      5  O   UNL     1      -6.720   1.132   7.497  0.00  0.00    -0.153 OA
BRANCH   3  13
ATOM      6  C   UNL     1       0.524  -0.165  13.525  0.00  0.00    +0.018 C 
ATOM      7  C   UNL     1      -0.139  -0.497  12.186  0.00  0.00    +0.082 C 
ATOM      8  C   UNL     1      -1.270  -1.454  12.431  0.00  0.00    +0.087 C 
ATOM      9  S   UNL     1      -1.895  -2.228  10.947  0.00  0.00    -0.123 S 
ATOM     10  C   UNL     1      -2.819  -1.044  10.055  0.00  0.00    +0.029 A 
ATOM     11  C   UNL     1      -3.925  -1.525   9.340  0.00  0.00    +0.018 A 
ATOM     12  C   UNL     1      -4.729  -0.687   8.605  0.00  0.00    +0.030 A 
ATOM     13  C   UNL     1      -4.436   0.664   8.556  0.00  0.00    +0.107 A 
ATOM     14  C   UNL     1      -3.355   1.150   9.250  0.00  0.00    +0.053 A 
ATOM     15  C   UNL     1      -2.528   0.311  10.015  0.00  0.00    +0.049 A 
ATOM     16  N   UNL     1      -1.491   0.949  10.642  0.00  0.00    -0.284 N 
ATOM     17  C   UNL     1      -0.595   0.767  11.547  0.00  0.00    +0.221 C 
ATOM     18  O   UNL     1      -0.041   1.773  11.937  0.00  0.00    -0.275 OA
ATOM     19  H   UNL     1      -1.402   1.845  10.281  0.00  0.00    +0.155 HD
ENDBRANCH   3  13
ENDBRANCH   1   3
BRANCH   1  20
ATOM     20  C   UNL     1      -4.804   0.624   5.245  0.00  0.00    +0.109 C 
BRANCH  20  21
ATOM     21  C   UNL     1      -4.520   1.022   3.795  0.00  0.00    +0.001 C 
ATOM     22  C   UNL     1      -4.636  -0.210   2.893  0.00  0.00    -0.014 C 
ATOM     23  C   UNL     1      -4.293   0.182   1.455  0.00  0.00    -0.078 C 
ATOM     24  C   UNL     1      -2.804   1.931   2.226  0.00  0.00    -0.078 C 
ATOM     25  C   UNL     1      -3.103   1.591   3.688  0.00  0.00    -0.014 C 
ATOM     26  N   UNL     1      -2.909   0.699   1.415  0.00  0.00    +0.382 N 
ATOM     27  H   UNL     1      -2.277  -0.011   1.805  0.00  0.00    -0.081 HD
BRANCH  26  28
ATOM     28  C   UNL     1      -2.514   0.978   0.019  0.00  0.00    -0.043 C 
BRANCH  28  29
ATOM     29  C   UNL     1      -1.220   1.750   0.017  0.00  0.00    -0.061 A 
ATOM     30  C   UNL     1      -0.013   1.076   0.008  0.00  0.00    +0.002 A 
ATOM     31  C   UNL     1       1.175   1.783   0.000  0.00  0.00    +0.003 A 
ATOM     32  C   UNL     1       1.158   3.165   0.007  0.00  0.00    +0.038 A 
ATOM     33  C   UNL     1      -0.050   3.841   0.023  0.00  0.00    +0.124 A 
ATOM     34  C   UNL     1      -1.240   3.132   0.031  0.00  0.00    +0.040 A 
ATOM     35  F   UNL     1      -0.068   5.192   0.029  0.00  0.00    -0.205 F 
ENDBRANCH  28  29
ENDBRANCH  26  28
ENDBRANCH  20  21
ENDBRANCH   1  20
TORSDOF 6
