REMARK  Name = ZINC27099806
REMARK  10 active torsions:
REMARK  status: ('A' for Active; 'I' for Inactive)
REMARK    1  A    between atoms: C_1  and  C_2
REMARK    2  A    between atoms: C_2  and  O_3
REMARK    3  A    between atoms: O_3  and  C_4
REMARK    4  A    between atoms: C_4  and  C_6
REMARK    5  A    between atoms: C_9  and  O_12
REMARK    6  A    between atoms: O_12  and  C_13
REMARK    7  A    between atoms: C_19  and  O_35
REMARK    8  A    between atoms: C_20  and  C_28
REMARK    9  A    between atoms: C_23  and  C_24
REMARK   10  A    between atoms: C_28  and  N_29
REMARK                            x       y       z     vdW  Elec       q    Type
REMARK                         _______ _______ _______ _____ _____    ______ ____
ROOT
ATOM      1  C   UNL     1       0.049  -2.777   0.077  0.00  0.00    +0.222 A 
ATOM      2  C   UNL     1       1.305  -2.108   0.041  0.00  0.00    +0.235 A 
ATOM      3  O   UNL     1       2.355  -2.728   0.031  0.00  0.00    -0.283 OA
ATOM      4  C   UNL     1       1.284  -0.635   0.018  0.00  0.00    +0.068 A 
ATOM      5  C   UNL     1       2.464   0.109  -0.015  0.00  0.00    +0.019 A 
ATOM      6  C   UNL     1       2.404   1.473  -0.035  0.00  0.00    +0.046 A 
ATOM      7  C   UNL     1       1.172   2.125  -0.023  0.00  0.00    +0.122 A 
ATOM      8  C   UNL     1      -0.007   1.401   0.011  0.00  0.00    +0.020 A 
ATOM      9  C   UNL     1       0.036   0.014   0.032  0.00  0.00    +0.144 A 
ATOM     10  O   UNL     1      -1.097  -0.715   0.066  0.00  0.00    -0.447 OA
ATOM     11  C   UNL     1      -1.089  -2.055   0.087  0.00  0.00    +0.254 A 
ENDROOT
BRANCH  11  12
ATOM     12  C   UNL     1      -2.407  -2.784   0.125  0.00  0.00    +0.454 C 
ATOM     13  F   UNL     1      -2.789  -2.989   1.455  0.00  0.00    -0.163 F 
ATOM     14  F   UNL     1      -3.381  -2.021  -0.528  0.00  0.00    -0.163 F 
ATOM     15  F   UNL     1      -2.275  -4.020  -0.517  0.00  0.00    -0.163 F 
ENDBRANCH  11  12
BRANCH   7  16
ATOM     16  O   UNL     1       1.129   3.481  -0.044  0.00  0.00    -0.506 OA
ATOM     17  H   UNL     1       0.159   4.001  -0.034  0.00  0.00    +0.292 HD
ENDBRANCH   7  16
BRANCH   1  18
ATOM     18  O   UNL     1      -0.003  -4.137   0.099  0.00  0.00    -0.448 OA
BRANCH  18  22
ATOM     19  C   UNL     1      -0.146  -6.130  -3.513  0.00  0.00    +0.059 A 
ATOM     20  C   UNL     1      -0.151  -6.850  -2.314  0.00  0.00    +0.018 A 
ATOM     21  C   UNL     1      -0.103  -6.181  -1.112  0.00  0.00    +0.047 A 
ATOM     22  C   UNL     1      -0.050  -4.792  -1.088  0.00  0.00    +0.129 A 
ATOM     23  C   UNL     1      -0.051  -4.072  -2.278  0.00  0.00    +0.047 A 
ATOM     24  C   UNL     1      -0.093  -4.733  -3.485  0.00  0.00    +0.018 A 
BRANCH  19  25
ATOM     25  C   UNL     1      -0.198  -6.842  -4.803  0.00  0.00    +0.339 C 
ATOM     26  O   UNL     1      -0.244  -8.056  -4.826  0.00  0.00    -0.245 OA
BRANCH  25  27
ATOM     27  O   UNL     1      -0.193  -6.146  -5.957  0.00  0.00    -0.461 OA
BRANCH  27  29
ATOM     28  C   UNL     1      -0.231  -5.958  -8.385  0.00  0.00    +0.048 C 
ATOM     29  C   UNL     1      -0.244  -6.912  -7.189  0.00  0.00    +0.229 C 
ENDBRANCH  27  29
ENDBRANCH  25  27
ENDBRANCH  19  25
ENDBRANCH  18  22
ENDBRANCH   1  18
BRANCH   8  30
ATOM     30  C   UNL     1      -1.334   2.116   0.019  0.00  0.00    -0.035 C 
BRANCH  30  31
ATOM     31  N   UNL     1      -1.708   2.468  -1.357  0.00  0.00    +0.385 N 
ATOM     32  C   UNL     1      -3.045   3.083  -1.399  0.00  0.00    -0.074 C 
ATOM     33  C   UNL     1      -3.252   3.700  -2.785  0.00  0.00    +0.008 C 
ATOM     34  C   UNL     1      -2.886   2.699  -3.845  0.00  0.00    -0.035 C 
ATOM     35  C   UNL     1      -2.182   1.637  -3.599  0.00  0.00    -0.050 C 
ATOM     36  C   UNL     1      -1.664   1.290  -2.232  0.00  0.00    -0.051 C 
ATOM     37  H   UNL     1      -0.974   3.200  -1.724  0.00  0.00    -0.081 HD
ENDBRANCH  30  31
ENDBRANCH   8  30
TORSDOF 9
