REMARK  Name = ZINC43265216
REMARK  5 active torsions:
REMARK  status: ('A' for Active; 'I' for Inactive)
REMARK    1  A    between atoms: C_3  and  O_8
REMARK    2  A    between atoms: O_8  and  C_9
REMARK    3  A    between atoms: C_9  and  C_11
REMARK    4  A    between atoms: C_9  and  C_13
REMARK    5  A    between atoms: C_11  and  N_12
REMARK                            x       y       z     vdW  Elec       q    Type
REMARK                         _______ _______ _______ _____ _____    ______ ____
ROOT
ATOM      1  C   UNL     1       4.755   1.345   0.074  0.00  0.00    +0.193 C 
ENDROOT
BRANCH   1   2
ATOM      2  C   UNL     1       5.773   2.118   0.873  0.00  0.00    +0.029 A 
ATOM      3  C   UNL     1       6.717   1.655   1.728  0.00  0.00    +0.016 A 
ATOM      4  C   UNL     1       7.553   2.559   2.358  0.00  0.00    +0.023 A 
ATOM      5  C   UNL     1       7.402   3.882   2.102  0.00  0.00    +0.055 A 
ATOM      6  S   UNL     1       6.052   3.881   0.933  0.00  0.00    -0.083 S 
ATOM      7 BR   UNL     1       8.374   5.348   2.796  0.00  0.00    -0.043 Br
ENDBRANCH   1   2
BRANCH   1   8
ATOM      8  O   UNL     1       3.548   2.104  -0.021  0.00  0.00    -0.486 OA
BRANCH   8  11
ATOM      9  C   UNL     1       1.202  -0.672   0.130  0.00  0.00    +0.005 A 
ATOM     10  C   UNL     1       2.392   0.028   0.069  0.00  0.00    +0.046 A 
ATOM     11  C   UNL     1       2.379   1.414   0.038  0.00  0.00    +0.122 A 
ATOM     12  C   UNL     1       1.171   2.095   0.069  0.00  0.00    +0.060 A 
ATOM     13  C   UNL     1      -0.016   1.391   0.129  0.00  0.00    +0.017 A 
ATOM     14  C   UNL     1      -0.001   0.008   0.160  0.00  0.00    +0.014 A 
ATOM     15  I   UNL     1      -1.842   2.419   0.175  0.00  0.00    -0.044 I 
ENDBRANCH   8  11
ENDBRANCH   1   8
BRANCH   1  16
ATOM     16  C   UNL     1       5.303   1.080  -1.329  0.00  0.00    -0.036 C 
BRANCH  16  17
ATOM     17  N   UNL     1       4.311   0.327  -2.108  0.00  0.00    +0.381 N 
ATOM     18  H   UNL     1       4.673   0.152  -3.034  0.00  0.00    -0.090 HD
ATOM     19  H   UNL     1       4.121  -0.552  -1.650  0.00  0.00    -0.090 HD
ATOM     20  H   UNL     1       3.459   0.863  -2.175  0.00  0.00    -0.090 HD
ENDBRANCH  16  17
ENDBRANCH   1  16
TORSDOF 5
