REMARK  Name = ZINC09209551
REMARK  10 active torsions:
REMARK  status: ('A' for Active; 'I' for Inactive)
REMARK    1  A    between atoms: C_1  and  O_2
REMARK    2  A    between atoms: O_2  and  C_3
REMARK    3  A    between atoms: C_6  and  C_11
REMARK    4  A    between atoms: C_8  and  O_9
REMARK    5  A    between atoms: O_9  and  C_10
REMARK    6  A    between atoms: C_19  and  O_35
REMARK    7  A    between atoms: C_22  and  C_23
REMARK    8  A    between atoms: C_22  and  N_65
REMARK    9  A    between atoms: N_25  and  C_26
REMARK   10  A    between atoms: C_29  and  N_32
REMARK                            x       y       z     vdW  Elec       q    Type
REMARK                         _______ _______ _______ _____ _____    ______ ____
ROOT
ATOM      1  C   UNL     1      -1.678   2.539   0.004  0.00  0.00    -0.031 C 
ATOM      2  C   UNL     1      -2.111   3.240   1.293  0.00  0.00    +0.011 C 
ATOM      3  C   UNL     1      -2.438   2.197   2.362  0.00  0.00    +0.005 C 
ATOM      4  C   UNL     1      -3.582   1.305   1.876  0.00  0.00    +0.000 C 
ATOM      5  C   UNL     1      -4.818   2.165   1.607  0.00  0.00    +0.003 C 
ATOM      6  C   UNL     1      -4.491   3.202   0.531  0.00  0.00    +0.035 C 
ATOM      7  C   UNL     1      -3.348   4.098   1.012  0.00  0.00    +0.066 C 
ATOM      8  C   UNL     1      -3.009   5.112  -0.086  0.00  0.00    +0.016 C 
ATOM      9  C   UNL     1      -2.549   4.361  -1.338  0.00  0.00    -0.075 C 
ATOM     10  N   UNL     1      -1.347   3.565  -1.009  0.00  0.00    +0.390 N 
ATOM     11  H   UNL     1      -0.628   4.190  -0.627  0.00  0.00    -0.080 HD
ENDROOT
BRANCH   1  15
ATOM     12  C   UNL     1       1.805   0.175   0.756  0.00  0.00    +0.161 A 
ATOM     13  C   UNL     1       1.921   1.542   0.561  0.00  0.00    +0.049 A 
ATOM     14  C   UNL     1       0.793   2.304   0.321  0.00  0.00    +0.006 A 
ATOM     15  C   UNL     1      -0.452   1.705   0.273  0.00  0.00    -0.057 A 
ATOM     16  C   UNL     1      -0.575   0.342   0.467  0.00  0.00    +0.051 A 
ATOM     17  C   UNL     1       0.552  -0.428   0.708  0.00  0.00    +0.162 A 
BRANCH  12  19
ATOM     18  C   UNL     1       4.167   0.110   1.028  0.00  0.00    +0.277 C 
ATOM     19  O   UNL     1       2.914  -0.576   0.993  0.00  0.00    -0.491 OA
ENDBRANCH  12  19
BRANCH  17  20
ATOM     20  O   UNL     1       0.433  -1.769   0.899  0.00  0.00    -0.491 OA
ATOM     21  C   UNL     1      -0.884  -2.319   0.837  0.00  0.00    +0.277 C 
ENDBRANCH  17  20
ENDBRANCH   1  15
BRANCH   7  22
ATOM     22  O   UNL     1      -3.745   4.789   2.198  0.00  0.00    -0.388 OA
ATOM     23  H   UNL     1      -4.523   5.353   2.082  0.00  0.00    +0.210 HD
ENDBRANCH   7  22
BRANCH  10  24
ATOM     24  C   UNL     1      -0.822   2.918  -2.229  0.00  0.00    +0.020 C 
BRANCH  24  25
ATOM     25  C   UNL     1      -1.872   2.038  -2.857  0.00  0.00    +0.201 C 
ATOM     26  O   UNL     1      -2.929   1.856  -2.291  0.00  0.00    -0.278 OA
ATOM     27  N   UNL     1      -1.636   1.452  -4.047  0.00  0.00    -0.287 N 
ATOM     28  H   UNL     1      -0.764   1.536  -4.465  0.00  0.00    +0.155 HD
BRANCH  27  29
ATOM     29  C   UNL     1      -2.648   0.722  -4.681  0.00  0.00    +0.033 A 
ATOM     30  C   UNL     1      -3.530  -0.042  -3.929  0.00  0.00    +0.025 A 
ATOM     31  C   UNL     1      -4.532  -0.756  -4.557  0.00  0.00    +0.034 A 
ATOM     32  C   UNL     1      -4.649  -0.720  -5.934  0.00  0.00    +0.126 A 
ATOM     33  C   UNL     1      -3.769   0.035  -6.686  0.00  0.00    +0.034 A 
ATOM     34  C   UNL     1      -2.769   0.756  -6.064  0.00  0.00    +0.025 A 
BRANCH  32  35
ATOM     35  N   UNL     1      -5.720  -1.492  -6.604  0.00  0.00    +0.056 N 
ATOM     36  O   UNL     1      -5.825  -1.461  -7.817  0.00  0.00    -0.126 OA
ATOM     37  O   UNL     1      -6.496  -2.157  -5.943  0.00  0.00    -0.126 OA
ENDBRANCH  32  35
ENDBRANCH  27  29
ENDBRANCH  24  25
ENDBRANCH  10  24
TORSDOF 8
