REMARK  Name = ZINC15814106
REMARK  7 active torsions:
REMARK  status: ('A' for Active; 'I' for Inactive)
REMARK    1  A    between atoms: C_1  and  C_2
REMARK    2  A    between atoms: C_5  and  N_8
REMARK    3  A    between atoms: C_18  and  S_19
REMARK    4  A    between atoms: S_19  and  C_20
REMARK    5  A    between atoms: C_20  and  C_22
REMARK    6  A    between atoms: C_20  and  C_23
REMARK    7  A    between atoms: N_25  and  C_26
REMARK                            x       y       z     vdW  Elec       q    Type
REMARK                         _______ _______ _______ _____ _____    ______ ____
ROOT
ATOM      1  N   UNL     1      -4.136  -6.411   0.673  0.00  0.00    -0.255 N 
ATOM      2  C   UNL     1      -5.411  -6.749   0.972  0.00  0.00    +0.267 A 
ATOM      3  O   UNL     1      -5.664  -7.748   1.620  0.00  0.00    -0.267 OA
ATOM      4  C   UNL     1      -6.480  -5.869   0.483  0.00  0.00    +0.065 A 
ATOM      5  C   UNL     1      -7.826  -6.134   0.733  0.00  0.00    +0.015 A 
ATOM      6  C   UNL     1      -8.782  -5.282   0.253  0.00  0.00    +0.001 A 
ATOM      7  C   UNL     1      -8.426  -4.156  -0.479  0.00  0.00    +0.002 A 
ATOM      8  C   UNL     1      -7.115  -3.872  -0.740  0.00  0.00    +0.028 A 
ATOM      9  C   UNL     1      -6.115  -4.724  -0.263  0.00  0.00    +0.079 A 
ATOM     10  N   UNL     1      -4.804  -4.481  -0.498  0.00  0.00    -0.223 NA
ATOM     11  C   UNL     1      -3.868  -5.281  -0.051  0.00  0.00    +0.177 A 
ENDROOT
BRANCH   1  16
ATOM     12  C   UNL     1       0.139  -9.691   2.453  0.00  0.00    +0.044 C 
ATOM     13  C   UNL     1      -0.997  -8.820   1.980  0.00  0.00    -0.050 A 
ATOM     14  C   UNL     1      -1.666  -9.133   0.812  0.00  0.00    +0.005 A 
ATOM     15  C   UNL     1      -2.707  -8.337   0.376  0.00  0.00    +0.026 A 
ATOM     16  C   UNL     1      -3.081  -7.221   1.112  0.00  0.00    +0.052 A 
ATOM     17  C   UNL     1      -2.403  -6.906   2.283  0.00  0.00    +0.026 A 
ATOM     18  C   UNL     1      -1.366  -7.709   2.716  0.00  0.00    +0.005 A 
ENDBRANCH   1  16
BRANCH  11  19
ATOM     19  S   UNL     1      -2.187  -4.888  -0.404  0.00  0.00    -0.075 S 
BRANCH  19  20
ATOM     20  C   UNL     1      -2.414  -3.364  -1.353  0.00  0.00    +0.137 C 
ATOM     21  C   UNL     1      -3.150  -3.679  -2.656  0.00  0.00    +0.029 C 
BRANCH  20  22
ATOM     22  C   UNL     1      -1.068  -2.764  -1.669  0.00  0.00    +0.230 C 
ATOM     23  O   UNL     1      -0.084  -3.472  -1.715  0.00  0.00    -0.274 OA
ATOM     24  N   UNL     1      -0.957  -1.441  -1.901  0.00  0.00    -0.284 N 
ATOM     25  H   UNL     1      -1.727  -0.863  -1.786  0.00  0.00    +0.155 HD
BRANCH  24  26
ATOM     26  C   UNL     1       0.270  -0.901  -2.307  0.00  0.00    +0.036 A 
ATOM     27  C   UNL     1       0.592   0.411  -1.987  0.00  0.00    +0.026 A 
ATOM     28  C   UNL     1       1.802   0.942  -2.387  0.00  0.00    +0.043 A 
ATOM     29  C   UNL     1       2.695   0.168  -3.108  0.00  0.00    +0.159 A 
ATOM     30  C   UNL     1       2.377  -1.143  -3.428  0.00  0.00    +0.160 A 
ATOM     31  C   UNL     1       1.165  -1.678  -3.029  0.00  0.00    +0.064 A 
ATOM     32  F   UNL     1       3.250  -1.898  -4.131  0.00  0.00    -0.202 F 
ATOM     33  F   UNL     1       3.878   0.690  -3.499  0.00  0.00    -0.202 F 
ENDBRANCH  24  26
ENDBRANCH  20  22
ENDBRANCH  19  20
ENDBRANCH  11  19
TORSDOF 5
