REMARK  Name = ZINC35487011
REMARK  18 active torsions:
REMARK  status: ('A' for Active; 'I' for Inactive)
REMARK    1  A    between atoms: C_1  and  C_2
REMARK    2  A    between atoms: C_2  and  O_3
REMARK    3  A    between atoms: O_3  and  C_4
REMARK    4  A    between atoms: C_6  and  C_16
REMARK    5  A    between atoms: C_9  and  O_10
REMARK    6  A    between atoms: O_10  and  C_11
REMARK    7  A    between atoms: C_11  and  C_12
REMARK    8  A    between atoms: C_12  and  C_13
REMARK    9  A    between atoms: C_13  and  C_14
REMARK   10  A    between atoms: C_13  and  C_15
REMARK   11  A    between atoms: C_23  and  C_39
REMARK   12  A    between atoms: C_24  and  C_38
REMARK   13  A    between atoms: N_31  and  C_32
REMARK   14  A    between atoms: C_32  and  C_33
REMARK   15  A    between atoms: C_33  and  C_34
REMARK   16  A    between atoms: C_34  and  N_35
REMARK   17  A    between atoms: N_35  and  C_36
REMARK   18  A    between atoms: N_35  and  C_37
REMARK                            x       y       z     vdW  Elec       q    Type
REMARK                         _______ _______ _______ _____ _____    ______ ____
ROOT
ATOM      1  C   UNL     1      -0.217  -4.963  -0.535  0.00  0.00    +0.145 C 
ATOM      2  C   UNL     1       0.860  -5.496  -1.422  0.00  0.00    +0.072 A 
ATOM      3  C   UNL     1       1.796  -4.814  -2.323  0.00  0.00    +0.199 A 
ATOM      4  O   UNL     1       1.937  -3.604  -2.347  0.00  0.00    -0.287 OA
ATOM      5  C   UNL     1       2.555  -5.739  -3.201  0.00  0.00    +0.065 A 
ATOM      6  C   UNL     1       3.335  -5.241  -4.245  0.00  0.00    +0.019 A 
ATOM      7  C   UNL     1       4.024  -6.106  -5.048  0.00  0.00    -0.047 A 
ATOM      8  C   UNL     1       3.950  -7.474  -4.828  0.00  0.00    -0.044 A 
ATOM      9  C   UNL     1       3.187  -7.983  -3.801  0.00  0.00    +0.050 A 
ATOM     10  C   UNL     1       2.476  -7.121  -2.966  0.00  0.00    +0.140 A 
ATOM     11  O   UNL     1       1.741  -7.642  -1.957  0.00  0.00    -0.450 OA
ATOM     12  C   UNL     1       0.874  -6.855  -1.289  0.00  0.00    +0.199 A 
ATOM     13  C   UNL     1      -0.180  -7.237  -0.333  0.00  0.00    +0.283 C 
ATOM     14  O   UNL     1      -0.433  -8.377   0.005  0.00  0.00    -0.267 OA
ATOM     15  N   UNL     1      -0.823  -6.137   0.114  0.00  0.00    -0.284 N 
ATOM     16  C   UNL     1       4.714  -8.415  -5.724  0.00  0.00    +0.044 C 
ATOM     17  C   UNL     1       4.868  -5.572  -6.178  0.00  0.00    +0.044 C 
ENDROOT
BRANCH   1  20
ATOM     18  C   UNL     1       0.802  -1.825   1.306  0.00  0.00    +0.162 A 
ATOM     19  C   UNL     1       0.261  -2.673   0.353  0.00  0.00    +0.055 A 
ATOM     20  C   UNL     1       0.372  -4.043   0.502  0.00  0.00    -0.019 A 
ATOM     21  C   UNL     1       1.024  -4.570   1.602  0.00  0.00    +0.009 A 
ATOM     22  C   UNL     1       1.566  -3.730   2.557  0.00  0.00    +0.050 A 
ATOM     23  C   UNL     1       1.462  -2.356   2.410  0.00  0.00    +0.162 A 
BRANCH  18  24
ATOM     24  O   UNL     1       0.693  -0.477   1.160  0.00  0.00    -0.489 OA
BRANCH  24  26
ATOM     25  C   UNL     1      -0.019   1.526   0.010  0.00  0.00    +0.048 C 
ATOM     26  C   UNL     1       0.002  -0.004   0.002  0.00  0.00    +0.226 C 
ENDBRANCH  24  26
ENDBRANCH  18  24
BRANCH  23  27
ATOM     27  O   UNL     1       2.000  -1.528   3.345  0.00  0.00    -0.488 OA
BRANCH  27  28
ATOM     28  C   UNL     1       2.664  -2.143   4.451  0.00  0.00    +0.229 C 
BRANCH  28  29
ATOM     29  C   UNL     1       3.200  -1.060   5.390  0.00  0.00    +0.044 C 
BRANCH  29  30
ATOM     30  C   UNL     1       3.910  -1.719   6.575  0.00  0.00    -0.014 C 
ATOM     31  C   UNL     1       4.553  -0.640   7.448  0.00  0.00    +0.007 C 
ATOM     32  C   UNL     1       2.894  -2.508   7.404  0.00  0.00    +0.007 C 
ENDBRANCH  29  30
ENDBRANCH  28  29
ENDBRANCH  27  28
ENDBRANCH  23  27
ENDBRANCH   1  20
BRANCH  15  33
ATOM     33  C   UNL     1      -1.929  -6.115   1.074  0.00  0.00    +0.107 C 
BRANCH  33  34
ATOM     34  C   UNL     1      -3.258  -6.219   0.324  0.00  0.00    +0.000 C 
BRANCH  34  35
ATOM     35  C   UNL     1      -4.413  -6.196   1.328  0.00  0.00    -0.078 C 
BRANCH  35  36
ATOM     36  N   UNL     1      -5.689  -6.295   0.608  0.00  0.00    +0.376 N 
ATOM     37  C   UNL     1      -5.777  -7.603  -0.055  0.00  0.00    -0.097 C 
ATOM     38  C   UNL     1      -6.800  -6.153   1.558  0.00  0.00    -0.097 C 
ATOM     39  H   UNL     1      -5.743  -5.563  -0.085  0.00  0.00    -0.083 HD
ENDBRANCH  35  36
ENDBRANCH  34  35
ENDBRANCH  33  34
ENDBRANCH  15  33
TORSDOF 11
