REMARK  Name = ZINC13813443
REMARK  7 active torsions:
REMARK  status: ('A' for Active; 'I' for Inactive)
REMARK    1  A    between atoms: C_1  and  S_2
REMARK    2  A    between atoms: S_2  and  N_5
REMARK    3  A    between atoms: C_9  and  C_31
REMARK    4  A    between atoms: N_13  and  C_24
REMARK    5  A    between atoms: C_15  and  C_17
REMARK    6  A    between atoms: C_17  and  C_18
REMARK    7  A    between atoms: C_24  and  C_25
REMARK                            x       y       z     vdW  Elec       q    Type
REMARK                         _______ _______ _______ _____ _____    ______ ____
ROOT
ATOM      1  N   UNL     1       0.629  -0.758  -1.442  0.00  0.00    -0.172 NA
ATOM      2  C   UNL     1      -0.265  -1.141  -2.535  0.00  0.00    +0.146 C 
ATOM      3  C   UNL     1      -0.712   0.103  -3.279  0.00  0.00    -0.010 A 
ATOM      4  C   UNL     1      -2.028   0.496  -3.264  0.00  0.00    +0.015 A 
ATOM      5  C   UNL     1      -2.422   1.618  -3.995  0.00  0.00    -0.017 A 
ATOM      6  C   UNL     1      -1.479   2.328  -4.738  0.00  0.00    +0.010 A 
ATOM      7  C   UNL     1      -0.157   1.938  -4.734  0.00  0.00    +0.024 A 
ATOM      8  C   UNL     1       0.239   0.835  -3.986  0.00  0.00    +0.035 A 
ATOM      9  N   UNL     1       1.585   0.506  -3.869  0.00  0.00    -0.322 N 
ATOM     10  C   UNL     1       2.244   0.719  -2.570  0.00  0.00    +0.126 C 
ATOM     11  C   UNL     1       2.050  -0.495  -1.689  0.00  0.00    +0.101 C 
ENDROOT
BRANCH   5  12
ATOM     12  C   UNL     1      -3.839   2.054  -3.982  0.00  0.00    -0.015 A 
ATOM     13  C   UNL     1      -4.798   1.359  -3.239  0.00  0.00    +0.028 A 
ATOM     14  C   UNL     1      -6.105   1.799  -3.254  0.00  0.00    +0.111 A 
ATOM     15  N   UNL     1      -6.454   2.860  -3.956  0.00  0.00    -0.263 NA
ATOM     16  C   UNL     1      -5.581   3.544  -4.671  0.00  0.00    +0.111 A 
ATOM     17  C   UNL     1      -4.252   3.176  -4.707  0.00  0.00    +0.028 A 
ENDBRANCH   5  12
BRANCH   1  19
ATOM     18  C   UNL     1       0.476  -2.164   0.920  0.00  0.00    +0.215 C 
ATOM     19  S   UNL     1       0.026  -0.613   0.094  0.00  0.00    +0.030 S 
ATOM     20  O   UNL     1      -1.383  -0.538  -0.075  0.00  0.00    -0.158 OA
ATOM     21  O   UNL     1       0.746   0.472   0.665  0.00  0.00    -0.158 OA
ENDBRANCH   1  19
BRANCH  11  22
ATOM     22  C   UNL     1       2.756  -0.259  -0.353  0.00  0.00    +0.057 C 
BRANCH  22  23
ATOM     23  C   UNL     1       4.248  -0.317  -0.556  0.00  0.00    -0.046 A 
ATOM     24  C   UNL     1       4.898  -1.537  -0.561  0.00  0.00    +0.004 A 
ATOM     25  C   UNL     1       6.267  -1.590  -0.748  0.00  0.00    +0.000 A 
ATOM     26  C   UNL     1       6.986  -0.423  -0.930  0.00  0.00    +0.000 A 
ATOM     27  C   UNL     1       6.335   0.797  -0.926  0.00  0.00    +0.000 A 
ATOM     28  C   UNL     1       4.966   0.850  -0.744  0.00  0.00    +0.004 A 
ENDBRANCH  22  23
ENDBRANCH  11  22
BRANCH   9  29
ATOM     29  C   UNL     1       2.328  -0.039  -5.008  0.00  0.00    +0.159 C 
BRANCH  29  30
ATOM     30  C   UNL     1       2.939   1.090  -5.796  0.00  0.00    +0.051 A 
ATOM     31  C   UNL     1       2.400   1.683  -6.878  0.00  0.00    +0.106 A 
ATOM     32  N   UNL     1       3.279   2.653  -7.278  0.00  0.00    -0.352 N 
ATOM     33  H   UNL     1       3.170   3.252  -8.033  0.00  0.00    +0.166 HD
ATOM     34  C   UNL     1       4.326   2.619  -6.426  0.00  0.00    +0.171 A 
ATOM     35  N   UNL     1       4.113   1.685  -5.539  0.00  0.00    -0.349 N 
ATOM     36  H   UNL     1       4.711   1.457  -4.810  0.00  0.00    +0.166 HD
ENDBRANCH  29  30
ENDBRANCH   9  29
TORSDOF 6
