REMARK  Name = ZINC04746399
REMARK  3 active torsions:
REMARK  status: ('A' for Active; 'I' for Inactive)
REMARK    1  A    between atoms: C_6  and  N_10
REMARK    2  A    between atoms: C_7  and  C_8
REMARK    3  A    between atoms: C_11  and  C_13
REMARK                            x       y       z     vdW  Elec       q    Type
REMARK                         _______ _______ _______ _____ _____    ______ ____
ROOT
ATOM      1  N   UNL     1      -2.112   5.794  -0.958  0.00  0.00    -0.279 N 
ATOM      2  C   UNL     1      -1.510   5.123   0.044  0.00  0.00    +0.224 C 
ATOM      3  O   UNL     1      -0.984   5.731   0.952  0.00  0.00    -0.275 OA
ATOM      4  H   UNL     1      -2.533   5.307  -1.684  0.00  0.00    +0.155 HD
ENDROOT
BRANCH   2   5
ATOM      5  C   UNL     1      -1.490   3.616   0.036  0.00  0.00    +0.048 C 
ATOM      6  C   UNL     1      -0.773   3.123  -1.223  0.00  0.00    +0.019 C 
ATOM      7  C   UNL     1      -0.753   1.593  -1.232  0.00  0.00    -0.009 C 
ATOM      8  C   UNL     1      -0.013   1.086   0.008  0.00  0.00    +0.007 C 
ATOM      9  C   UNL     1      -0.729   1.579   1.267  0.00  0.00    -0.009 C 
ATOM     10  C   UNL     1      -0.750   3.109   1.275  0.00  0.00    +0.019 C 
ATOM     11  C   UNL     1      -2.164   1.050   1.278  0.00  0.00    +0.007 C 
ATOM     12  C   UNL     1      -2.904   1.556   0.038  0.00  0.00    -0.009 C 
ATOM     13  C   UNL     1      -2.188   1.063  -1.221  0.00  0.00    +0.007 C 
ATOM     14  C   UNL     1      -2.925   3.086   0.047  0.00  0.00    +0.019 C 
ENDBRANCH   2   5
BRANCH   1  20
ATOM     15  C   UNL     1      -2.915  11.869  -1.276  0.00  0.00    +0.010 C 
ATOM     16  C   UNL     1      -3.010  10.760  -2.342  0.00  0.00    +0.037 C 
ATOM     17  C   UNL     1      -2.574   9.476  -1.635  0.00  0.00    -0.018 A 
ATOM     18  C   UNL     1      -1.916   9.811  -0.510  0.00  0.00    -0.004 A 
ATOM     19  S   UNL     1      -1.456   8.260   0.224  0.00  0.00    -0.077 S 
ATOM     20  C   UNL     1      -2.131   7.182  -0.950  0.00  0.00    +0.090 A 
ATOM     21  C   UNL     1      -2.689   8.039  -1.882  0.00  0.00    +0.084 A 
ATOM     22  C   UNL     1      -1.836  11.302  -0.327  0.00  0.00    +0.043 C 
BRANCH  21  23
ATOM     23  C   UNL     1      -3.359   7.537  -3.043  0.00  0.00    +0.102 C 
ATOM     24  N   UNL     1      -3.890   7.139  -3.965  0.00  0.00    -0.191 NA
ENDBRANCH  21  23
ENDBRANCH   1  20
TORSDOF 3
