REMARK  Name = ZINC20558538
REMARK  8 active torsions:
REMARK  status: ('A' for Active; 'I' for Inactive)
REMARK    1  A    between atoms: C_1  and  O_2
REMARK    2  A    between atoms: O_2  and  C_3
REMARK    3  A    between atoms: C_3  and  C_5
REMARK    4  A    between atoms: C_8  and  C_11
REMARK    5  A    between atoms: C_13  and  C_37
REMARK    6  A    between atoms: C_14  and  N_36
REMARK    7  A    between atoms: N_21  and  C_28
REMARK    8  A    between atoms: C_28  and  C_29
REMARK                            x       y       z     vdW  Elec       q    Type
REMARK                         _______ _______ _______ _____ _____    ______ ____
ROOT
ATOM      1  C   UNL     1      -2.081   4.472  -1.678  0.00  0.00    +0.118 C 
ATOM      2  C   UNL     1      -1.619   5.793  -2.229  0.00  0.00    +0.099 C 
ATOM      3  C   UNL     1      -0.297   6.025  -2.427  0.00  0.00    +0.199 C 
ATOM      4  O   UNL     1       0.625   5.091  -2.141  0.00  0.00    -0.439 OA
ATOM      5  C   UNL     1       0.332   4.078  -1.283  0.00  0.00    +0.162 C 
ATOM      6  C   UNL     1      -0.932   3.748  -1.034  0.00  0.00    +0.141 C 
ATOM      7  S   UNL     1      -1.262   2.417   0.079  0.00  0.00    +0.076 S 
ATOM      8  O   UNL     1      -2.330   1.665  -0.479  0.00  0.00    -0.150 OA
ATOM      9  O   UNL     1      -1.312   2.975   1.385  0.00  0.00    -0.150 OA
ATOM     10  N   UNL     1       0.097   1.458   0.011  0.00  0.00    -0.198 N 
ATOM     11  C   UNL     1       1.335   2.111  -0.044  0.00  0.00    +0.062 A 
ATOM     12  C   UNL     1       1.463   3.364  -0.645  0.00  0.00    +0.042 A 
ATOM     13  C   UNL     1       2.720   3.982  -0.662  0.00  0.00    +0.013 A 
ATOM     14  C   UNL     1       3.811   3.355  -0.100  0.00  0.00    +0.001 A 
ATOM     15  C   UNL     1       3.676   2.108   0.485  0.00  0.00    +0.002 A 
ATOM     16  C   UNL     1       2.443   1.487   0.515  0.00  0.00    +0.025 A 
ENDROOT
BRANCH   1  20
ATOM     17  C   UNL     1      -3.659   2.084  -4.855  0.00  0.00    +0.059 A 
ATOM     18  C   UNL     1      -4.473   2.448  -3.781  0.00  0.00    +0.015 A 
ATOM     19  C   UNL     1      -3.958   3.218  -2.759  0.00  0.00    +0.005 A 
ATOM     20  C   UNL     1      -2.637   3.630  -2.798  0.00  0.00    -0.033 A 
ATOM     21  C   UNL     1      -1.827   3.278  -3.862  0.00  0.00    +0.005 A 
ATOM     22  C   UNL     1      -2.328   2.503  -4.888  0.00  0.00    +0.015 A 
BRANCH  17  23
ATOM     23  C   UNL     1      -4.204   1.260  -5.953  0.00  0.00    +0.339 C 
ATOM     24  O   UNL     1      -5.363   0.896  -5.922  0.00  0.00    -0.245 OA
BRANCH  23  26
ATOM     25  C   UNL     1      -4.019   0.099  -8.031  0.00  0.00    +0.280 C 
ATOM     26  O   UNL     1      -3.416   0.910  -6.989  0.00  0.00    -0.464 OA
ENDBRANCH  23  26
ENDBRANCH  17  23
ENDBRANCH   1  20
BRANCH   3  27
ATOM     27  N   UNL     1       0.106   7.238  -2.929  0.00  0.00    -0.328 N 
ATOM     28  H   UNL     1       1.176   7.437  -3.093  0.00  0.00    +0.145 HD
ATOM     29  H   UNL     1      -0.640   8.010  -3.166  0.00  0.00    +0.145 HD
ENDBRANCH   3  27
BRANCH   2  30
ATOM     30  C   UNL     1      -2.577   6.808  -2.547  0.00  0.00    +0.101 C 
ATOM     31  N   UNL     1      -3.337   7.614  -2.799  0.00  0.00    -0.191 NA
ENDBRANCH   2  30
BRANCH  10  32
ATOM     32  C   UNL     1       0.002  -0.004   0.002  0.00  0.00    +0.169 C 
BRANCH  32  33
ATOM     33  C   UNL     1      -0.005  -0.499  -1.421  0.00  0.00    +0.007 A 
ATOM     34  C   UNL     1      -1.198  -0.846  -2.027  0.00  0.00    +0.008 A 
ATOM     35  C   UNL     1      -1.205  -1.294  -3.335  0.00  0.00    +0.000 A 
ATOM     36  C   UNL     1      -0.018  -1.407  -4.035  0.00  0.00    +0.003 A 
ATOM     37  C   UNL     1       1.177  -1.066  -3.429  0.00  0.00    +0.038 A 
ATOM     38  C   UNL     1       1.185  -0.611  -2.121  0.00  0.00    +0.128 A 
ATOM     39  F   UNL     1       2.352  -0.278  -1.528  0.00  0.00    -0.205 F 
ENDBRANCH  32  33
ENDBRANCH  10  32
TORSDOF 7
