REMARK  Name = ZINC12218953
REMARK  6 active torsions:
REMARK  status: ('A' for Active; 'I' for Inactive)
REMARK    1  A    between atoms: C_1  and  C_2
REMARK    2  A    between atoms: C_2  and  C_4
REMARK    3  A    between atoms: C_2  and  N_9
REMARK    4  A    between atoms: C_16  and  N_20
REMARK    5  A    between atoms: C_25  and  C_26
REMARK    6  A    between atoms: C_25  and  N_63
REMARK                            x       y       z     vdW  Elec       q    Type
REMARK                         _______ _______ _______ _____ _____    ______ ____
ROOT
ATOM      1  N   UNL     1      -2.490   5.335   4.542  0.00  0.00    -0.333 N 
ATOM      2  C   UNL     1      -3.506   6.397   4.512  0.00  0.00    +0.086 C 
ATOM      3  C   UNL     1      -4.728   5.953   5.319  0.00  0.00    -0.059 C 
ATOM      4  C   UNL     1      -3.304   4.595   6.729  0.00  0.00    -0.059 C 
ATOM      5  C   UNL     1      -2.082   5.039   5.922  0.00  0.00    +0.086 C 
ATOM      6  N   UNL     1      -4.308   5.681   6.709  0.00  0.00    +0.385 N 
ATOM      7  H   UNL     1      -3.888   6.530   7.104  0.00  0.00    -0.081 HD
ENDROOT
BRANCH   1  15
ATOM      8  N   UNL     1      -0.924   3.413   0.913  0.00  0.00    -0.226 N 
ATOM      9  C   UNL     1       0.101   4.271   0.760  0.00  0.00    +0.254 C 
ATOM     10  O   UNL     1       0.931   4.235  -0.126  0.00  0.00    -0.270 OA
ATOM     11  C   UNL     1       0.044   5.268   1.850  0.00  0.00    +0.051 A 
ATOM     12  C   UNL     1       0.813   6.364   2.199  0.00  0.00    +0.014 A 
ATOM     13  C   UNL     1       0.483   7.113   3.321  0.00  0.00    +0.003 A 
ATOM     14  C   UNL     1      -0.606   6.775   4.095  0.00  0.00    +0.024 A 
ATOM     15  C   UNL     1      -1.395   5.673   3.761  0.00  0.00    +0.043 A 
ATOM     16  C   UNL     1      -1.073   4.914   2.636  0.00  0.00    +0.070 A 
ATOM     17  C   UNL     1      -1.658   3.723   1.997  0.00  0.00    +0.256 C 
ATOM     18  O   UNL     1      -2.640   3.121   2.383  0.00  0.00    -0.269 OA
BRANCH   8  20
ATOM     19  C   UNL     1      -1.452   2.804  -1.396  0.00  0.00    +0.034 C 
ATOM     20  C   UNL     1      -1.200   2.284   0.020  0.00  0.00    +0.118 C 
BRANCH  20  21
ATOM     21  C   UNL     1      -0.016   1.351   0.009  0.00  0.00    +0.010 A 
ATOM     22  C   UNL     1       0.002  -0.004   0.002  0.00  0.00    +0.013 A 
ATOM     23  C   UNL     1       1.220  -0.658  -0.013  0.00  0.00    +0.008 A 
ATOM     24  C   UNL     1       2.360   0.076  -0.020  0.00  0.00    +0.045 A 
ATOM     25  S   UNL     1       1.725   1.744  -0.005  0.00  0.00    -0.100 S 
ENDBRANCH  20  21
ENDBRANCH   8  20
ENDBRANCH   1  15
BRANCH   6  26
ATOM     26  C   UNL     1      -5.480   5.300   7.526  0.00  0.00    -0.024 C 
BRANCH  26  27
ATOM     27  C   UNL     1      -6.594   6.284   7.281  0.00  0.00    +0.009 A 
ATOM     28  C   UNL     1      -7.609   6.128   6.408  0.00  0.00    +0.021 A 
ATOM     29  C   UNL     1      -8.424   7.275   6.497  0.00  0.00    +0.020 A 
ATOM     30  C   UNL     1      -7.873   8.094   7.415  0.00  0.00    +0.093 A 
ATOM     31  N   UNL     1      -6.747   7.492   7.902  0.00  0.00    -0.307 N 
ATOM     32  C   UNL     1      -5.894   8.023   8.873  0.00  0.00    +0.138 A 
ATOM     33  C   UNL     1      -6.169   9.269   9.424  0.00  0.00    +0.047 A 
ATOM     34  C   UNL     1      -5.316   9.784  10.385  0.00  0.00    +0.005 A 
ATOM     35  C   UNL     1      -4.213   9.030  10.763  0.00  0.00    +0.020 A 
ATOM     36  C   UNL     1      -4.001   7.800  10.173  0.00  0.00    +0.113 A 
ATOM     37  N   UNL     1      -4.835   7.333   9.264  0.00  0.00    -0.238 NA
ENDBRANCH  26  27
ENDBRANCH   6  26
TORSDOF 5
