REMARK  Name = ZINC06623696
REMARK  11 active torsions:
REMARK  status: ('A' for Active; 'I' for Inactive)
REMARK    1  A    between atoms: CD1_1  and  CG1_2
REMARK    2  A    between atoms: CG1_2  and  CB_3
REMARK    3  A    between atoms: CB_3  and  CG2_5
REMARK    4  A    between atoms: CB_3  and  CA_6
REMARK    5  A    between atoms: CA_6  and  C_8
REMARK    6  A    between atoms: CA_6  and  N_16
REMARK    7  A    between atoms: N_10  and  CA_11
REMARK    8  A    between atoms: CA_11  and  CB_13
REMARK    9  A    between atoms: CA_11  and  C_14
REMARK   10  A    between atoms: C_14  and  O_15
REMARK   11  A    between atoms: C_17  and  C_19
REMARK                            x       y       z     vdW  Elec       q    Type
REMARK                         _______ _______ _______ _____ _____    ______ ____
ROOT
ATOM      1  N   ALA A   1       2.751   1.164  -3.558  0.00  0.00    -0.302 N 
ATOM      2  C   UNK A   0       2.238   1.551  -2.373  0.00  0.00    +0.235 C 
ATOM      3  O   UNK A   0       1.650   2.607  -2.284  0.00  0.00    -0.274 OA
ATOM      4  H   ALA A   1       3.222   0.318  -3.630  0.00  0.00    +0.150 HD
ENDROOT
BRANCH   2   5
ATOM      5  C   UNK A   0       2.395   0.670  -1.160  0.00  0.00    +0.173 C 
ATOM      6  C   UNK A   0       1.690  -0.681  -1.431  0.00  0.00    +0.103 C 
ATOM      7  S   UNK A   0       0.286  -0.614  -0.233  0.00  0.00    -0.131 S 
ATOM      8  C   UNK A   0       0.383   1.193   0.112  0.00  0.00    +0.166 C 
ATOM      9  N   UNK A   0       1.857   1.376   0.007  0.00  0.00    -0.269 N 
ATOM     10  C   UNK A   0       2.237   2.084   1.091  0.00  0.00    +0.249 C 
ATOM     11  O   UNK A   0       3.301   2.660   1.210  0.00  0.00    -0.270 OA
ATOM     12  C   UNK A   0       1.171   2.057   2.112  0.00  0.00    +0.043 A 
ATOM     13  C   UNK A   0       0.030   1.486   1.539  0.00  0.00    -0.005 A 
ATOM     14  C   UNK A   0      -1.107   1.308   2.294  0.00  0.00    +0.007 A 
ATOM     15  C   UNK A   0      -1.131   1.715   3.618  0.00  0.00    +0.000 A 
ATOM     16  C   UNK A   0      -0.015   2.301   4.186  0.00  0.00    +0.001 A 
ATOM     17  C   UNK A   0       1.135   2.474   3.443  0.00  0.00    +0.013 A 
ENDBRANCH   2   5
BRANCH   1  18
ATOM     18  CA  ALA A   1       2.599   2.019  -4.737  0.00  0.00    +0.162 C 
BRANCH  18  19
ATOM     19  C   ALA A   1       2.674   1.175  -5.983  0.00  0.00    +0.234 C 
ATOM     20  O   ALA A   1       3.293   0.132  -5.973  0.00  0.00    -0.274 OA
ATOM     21  N   ALA A   1       2.053   1.579  -7.109  0.00  0.00    -0.309 N 
ATOM     22  H   ALA A   1       1.619   2.446  -7.140  0.00  0.00    +0.149 HD
BRANCH  21  23
ATOM     23  CA  ALA A   1       2.034   0.709  -8.288  0.00  0.00    +0.095 C 
ATOM     24  CB  ALA A   1       0.869  -0.277  -8.175  0.00  0.00    +0.030 C 
BRANCH  23  25
ATOM     25  C   ALA A   1       1.861   1.560  -9.547  0.00  0.00    +0.177 C 
BRANCH  25  26
ATOM     26  O   ALA A   1       0.579   2.192  -9.523  0.00  0.00    -0.393 OA
ATOM     27  H   ALA A   1       0.401   2.749 -10.293  0.00  0.00    +0.209 HD
ENDBRANCH  25  26
ENDBRANCH  23  25
ENDBRANCH  21  23
ENDBRANCH  18  19
BRANCH  18  28
ATOM     28  CB  ALA A   1       3.718   3.062  -4.759  0.00  0.00    +0.015 C 
ATOM     29  CG2 ALA A   1       3.487   4.035  -5.917  0.00  0.00    +0.010 C 
BRANCH  28  31
ATOM     30  CD1 ALA A   1       6.194   3.388  -4.841  0.00  0.00    +0.004 C 
ATOM     31  CG1 ALA A   1       5.065   2.360  -4.944  0.00  0.00    +0.002 C 
ENDBRANCH  28  31
ENDBRANCH  18  28
ENDBRANCH   1  18
TORSDOF 8
