REMARK  Name = ZINC08721907
REMARK  4 active torsions:
REMARK  status: ('A' for Active; 'I' for Inactive)
REMARK    1  A    between atoms: C_1  and  C_2
REMARK    2  A    between atoms: C_5  and  C_8
REMARK    3  A    between atoms: C_14  and  C_15
REMARK    4  A    between atoms: C_20  and  O_21
REMARK                            x       y       z     vdW  Elec       q    Type
REMARK                         _______ _______ _______ _____ _____    ______ ____
ROOT
ATOM      1  C   UNL     1       0.098  -4.482  -0.504  0.00  0.00    +0.130 C 
ATOM      2  N   UNL     1       0.256  -5.173   0.598  0.00  0.00    -0.164 NA
ATOM      3  N   UNL     1       0.085  -6.540   0.610  0.00  0.00    -0.152 N 
ATOM      4  C   UNL     1       0.139  -7.368   1.753  0.00  0.00    +0.153 C 
ATOM      5  N   UNL     1      -0.060  -6.928   2.967  0.00  0.00    -0.283 NA
ATOM      6  C   UNL     1       0.445  -8.792   1.438  0.00  0.00    +0.081 C 
ATOM      7  C   UNL     1       1.171  -9.585   2.298  0.00  0.00    +0.028 C 
ATOM      8  C   UNL     1      -0.074  -9.309   0.147  0.00  0.00    +0.273 C 
ATOM      9  O   UNL     1      -0.287 -10.500  -0.012  0.00  0.00    -0.268 OA
ATOM     10  N   UNL     1      -0.305  -8.425  -0.843  0.00  0.00    -0.152 NA
ATOM     11  C   UNL     1      -0.189  -7.144  -0.599  0.00  0.00    +0.181 C 
ATOM     12  S   UNL     1      -0.321  -5.752  -1.690  0.00  0.00    -0.033 S 
ATOM     13  H   UNL     1      -0.012  -7.540   3.718  0.00  0.00    +0.188 HD
ENDROOT
BRANCH   1  18
ATOM     14  C   UNL     1       0.597   1.195  -1.315  0.00  0.00    +0.044 C 
ATOM     15  C   UNL     1       0.466  -0.291  -1.103  0.00  0.00    -0.050 A 
ATOM     16  C   UNL     1       0.130  -1.112  -2.165  0.00  0.00    +0.004 A 
ATOM     17  C   UNL     1       0.009  -2.474  -1.977  0.00  0.00    +0.011 A 
ATOM     18  C   UNL     1       0.226  -3.022  -0.713  0.00  0.00    +0.009 A 
ATOM     19  C   UNL     1       0.565  -2.190   0.354  0.00  0.00    +0.011 A 
ATOM     20  C   UNL     1       0.688  -0.830   0.152  0.00  0.00    +0.004 A 
ENDBRANCH   1  18
BRANCH   7  21
ATOM     21  C   UNL     1       1.597 -10.922   1.877  0.00  0.00    +0.018 A 
ATOM     22  C   UNL     1       2.065 -11.136   0.574  0.00  0.00    +0.026 A 
ATOM     23  C   UNL     1       2.463 -12.396   0.187  0.00  0.00    +0.019 A 
ATOM     24  C   UNL     1       2.403 -13.456   1.081  0.00  0.00    +0.019 A 
ATOM     25  C   UNL     1       1.943 -13.260   2.369  0.00  0.00    +0.047 A 
ATOM     26  C   UNL     1       1.544 -11.998   2.781  0.00  0.00    +0.124 A 
ATOM     27 BR   UNL     1       3.095 -12.685  -1.572  0.00  0.00    -0.050 Br
BRANCH  26  28
ATOM     28  O   UNL     1       1.098 -11.804   4.047  0.00  0.00    -0.506 OA
ATOM     29  H   UNL     1       0.145 -11.928   4.152  0.00  0.00    +0.292 HD
ENDBRANCH  26  28
ENDBRANCH   7  21
TORSDOF 3
