REMARK  Name = ZINC11869519
REMARK  11 active torsions:
REMARK  status: ('A' for Active; 'I' for Inactive)
REMARK    1  A    between atoms: C_1  and  C_2
REMARK    2  A    between atoms: C_2  and  C_3
REMARK    3  A    between atoms: C_8  and  C_26
REMARK    4  A    between atoms: C_9  and  C_23
REMARK    5  A    between atoms: C_12  and  C_15
REMARK    6  A    between atoms: C_13  and  O_14
REMARK    7  A    between atoms: C_15  and  N_70
REMARK    8  A    between atoms: C_20  and  C_22
REMARK    9  A    between atoms: C_23  and  C_24
REMARK   10  A    between atoms: C_23  and  C_25
REMARK   11  A    between atoms: N_34  and  C_35
REMARK                            x       y       z     vdW  Elec       q    Type
REMARK                         _______ _______ _______ _____ _____    ______ ____
ROOT
ATOM      1  C   UNL     1       3.742   2.054   0.456  0.00  0.00    -0.005 A 
ATOM      2  C   UNL     1       2.698   1.221   0.168  0.00  0.00    +0.022 A 
ATOM      3  C   UNL     1       1.472   1.758  -0.224  0.00  0.00    +0.065 A 
ATOM      4  C   UNL     1       0.324   0.890  -0.543  0.00  0.00    +0.203 A 
ATOM      5  O   UNL     1       0.403  -0.325  -0.475  0.00  0.00    -0.286 OA
ATOM      6  C   UNL     1      -0.923   1.562  -0.954  0.00  0.00    +0.103 A 
ATOM      7  C   UNL     1      -0.945   2.922  -1.004  0.00  0.00    +0.123 A 
ATOM      8  O   UNL     1       0.119   3.668  -0.706  0.00  0.00    -0.458 OA
ATOM      9  C   UNL     1       1.304   3.151  -0.325  0.00  0.00    +0.144 A 
ATOM     10  C   UNL     1       2.376   3.983  -0.029  0.00  0.00    +0.021 A 
ATOM     11  C   UNL     1       3.587   3.435   0.359  0.00  0.00    +0.125 A 
ENDROOT
BRANCH   6  12
ATOM     12  C   UNL     1      -2.123   0.775  -1.300  0.00  0.00    +0.149 A 
ATOM     13  N   UNL     1      -3.304   0.917  -0.745  0.00  0.00    -0.227 NA
ATOM     14  C   UNL     1      -4.175   0.038  -1.298  0.00  0.00    +0.090 A 
ATOM     15  C   UNL     1      -5.531  -0.233  -1.086  0.00  0.00    +0.030 A 
ATOM     16  C   UNL     1      -6.154  -1.204  -1.817  0.00  0.00    +0.002 A 
ATOM     17  C   UNL     1      -5.455  -1.929  -2.772  0.00  0.00    +0.002 A 
ATOM     18  C   UNL     1      -4.118  -1.679  -2.999  0.00  0.00    +0.028 A 
ATOM     19  C   UNL     1      -3.468  -0.696  -2.266  0.00  0.00    +0.069 A 
ATOM     20  N   UNL     1      -2.175  -0.207  -2.252  0.00  0.00    -0.327 N 
ATOM     21  C   UNL     1      -1.065  -0.659  -3.095  0.00  0.00    +0.151 C 
ENDBRANCH   6  12
BRANCH   7  22
ATOM     22  C   UNL     1      -2.220   3.612  -1.417  0.00  0.00    +0.050 C 
ATOM     23  C   UNL     1      -2.648   4.592  -0.323  0.00  0.00    +0.015 C 
ATOM     24  C   UNL     1      -1.987   4.375  -2.722  0.00  0.00    +0.015 C 
ENDBRANCH   7  22
BRANCH   1  26
ATOM     25  C   UNL     1       5.146   1.446   2.407  0.00  0.00    +0.009 C 
ATOM     26  C   UNL     1       5.068   1.476   0.879  0.00  0.00    +0.035 C 
ENDBRANCH   1  26
BRANCH  11  27
ATOM     27  O   UNL     1       4.632   4.251   0.648  0.00  0.00    -0.506 OA
ATOM     28  H   UNL     1       5.192   4.457  -0.113  0.00  0.00    +0.292 HD
ENDBRANCH  11  27
BRANCH  10  29
ATOM     29  C   UNL     1       2.221   5.478  -0.131  0.00  0.00    -0.035 C 
BRANCH  29  36
ATOM     30  C   UNL     1       3.979   5.616  -1.790  0.00  0.00    -0.078 C 
ATOM     31  C   UNL     1       4.270   5.951  -3.254  0.00  0.00    -0.019 C 
ATOM     32  C   UNL     1       3.982   7.434  -3.501  0.00  0.00    -0.003 C 
ATOM     33  C   UNL     1       2.525   7.730  -3.134  0.00  0.00    -0.016 C 
ATOM     34  C   UNL     1       2.284   7.344  -1.673  0.00  0.00    -0.071 C 
ATOM     35  C   UNL     1       0.824   7.620  -1.307  0.00  0.00    -0.013 C 
ATOM     36  N   UNL     1       2.556   5.900  -1.507  0.00  0.00    +0.384 N 
ATOM     37  H   UNL     1       1.973   5.373  -2.168  0.00  0.00    -0.081 HD
ENDBRANCH  29  36
ENDBRANCH  10  29
TORSDOF 6
