REMARK  Name = ZINC62688785
REMARK  3 active torsions:
REMARK  status: ('A' for Active; 'I' for Inactive)
REMARK    1  A    between atoms: C_4  and  C_7
REMARK    2  A    between atoms: C_10  and  C_13
REMARK    3  A    between atoms: C_21  and  C_23
REMARK                            x       y       z     vdW  Elec       q    Type
REMARK                         _______ _______ _______ _____ _____    ______ ____
ROOT
ATOM      1  C   UNL     1       7.778  -2.571  -0.061  0.00  0.00    +0.248 C 
ATOM      2  O   UNL     1       6.837  -1.817   0.090  0.00  0.00    -0.270 OA
ATOM      3  N   UNL     1       7.572  -3.901  -0.132  0.00  0.00    -0.280 N 
ATOM      4  C   UNL     1       6.212  -4.467  -0.127  0.00  0.00    +0.128 C 
ATOM      5  C   UNL     1       6.002  -5.217  -1.444  0.00  0.00    +0.123 C 
ATOM      6  N   UNL     1       7.143  -6.072  -1.739  0.00  0.00    -0.312 N 
ATOM      7  C   UNL     1       8.366  -5.903  -1.236  0.00  0.00    +0.238 C 
ATOM      8  O   UNL     1       9.255  -6.634  -1.619  0.00  0.00    -0.273 OA
ATOM      9  C   UNL     1       8.695  -4.846  -0.223  0.00  0.00    +0.195 C 
ATOM     10  H   UNL     1       7.003  -6.818  -2.343  0.00  0.00    +0.149 HD
ENDROOT
BRANCH   9  11
ATOM     11  C   UNL     1       8.921  -5.493   1.119  0.00  0.00    +0.017 A 
ATOM     12  C   UNL     1       7.948  -5.412   2.098  0.00  0.00    +0.009 A 
ATOM     13  C   UNL     1       8.155  -6.005   3.329  0.00  0.00    +0.001 A 
ATOM     14  C   UNL     1       9.335  -6.680   3.583  0.00  0.00    +0.003 A 
ATOM     15  C   UNL     1      10.308  -6.763   2.606  0.00  0.00    +0.039 A 
ATOM     16  C   UNL     1      10.100  -6.173   1.370  0.00  0.00    +0.129 A 
ATOM     17  F   UNL     1      11.049  -6.257   0.412  0.00  0.00    -0.205 F 
ENDBRANCH   9  11
BRANCH   1  21
ATOM     18  C   UNL     1      11.720  -1.014  -0.371  0.00  0.00    -0.018 A 
ATOM     19  C   UNL     1      11.462  -2.096   0.471  0.00  0.00    +0.009 A 
ATOM     20  C   UNL     1      10.186  -2.601   0.572  0.00  0.00    +0.013 A 
ATOM     21  C   UNL     1       9.148  -2.030  -0.169  0.00  0.00    +0.037 A 
ATOM     22  C   UNL     1       9.408  -0.946  -1.012  0.00  0.00    +0.013 A 
ATOM     23  C   UNL     1      10.684  -0.440  -1.108  0.00  0.00    +0.009 A 
BRANCH  18  27
ATOM     24  C   UNL     1      15.664   0.543  -0.683  0.00  0.00    +0.000 A 
ATOM     25  C   UNL     1      15.412  -0.533   0.150  0.00  0.00    +0.001 A 
ATOM     26  C   UNL     1      14.134  -1.043   0.255  0.00  0.00    +0.008 A 
ATOM     27  C   UNL     1      13.096  -0.471  -0.480  0.00  0.00    -0.018 A 
ATOM     28  C   UNL     1      13.356   0.613  -1.316  0.00  0.00    +0.008 A 
ATOM     29  C   UNL     1      14.638   1.114  -1.414  0.00  0.00    +0.001 A 
ENDBRANCH  18  27
ENDBRANCH   1  21
TORSDOF 3
