REMARK  Name = ZINC20898569
REMARK  8 active torsions:
REMARK  status: ('A' for Active; 'I' for Inactive)
REMARK    1  A    between atoms: C_1  and  C_2
REMARK    2  A    between atoms: C_7  and  C_8
REMARK    3  A    between atoms: C_10  and  C_33
REMARK    4  A    between atoms: C_14  and  C_17
REMARK    5  A    between atoms: C_20  and  O_24
REMARK    6  A    between atoms: C_21  and  O_23
REMARK    7  A    between atoms: N_25  and  C_32
REMARK    8  A    between atoms: N_28  and  C_31
REMARK                            x       y       z     vdW  Elec       q    Type
REMARK                         _______ _______ _______ _____ _____    ______ ____
ROOT
ATOM      1  C   UNL     1       1.790   6.616   1.651  0.00  0.00    +0.044 C 
ATOM      2  C   UNL     1       1.604   5.179   1.239  0.00  0.00    -0.046 A 
ATOM      3  C   UNL     1       2.708   4.402   0.939  0.00  0.00    +0.028 A 
ATOM      4  C   UNL     1       2.540   3.079   0.563  0.00  0.00    +0.052 A 
ATOM      5  C   UNL     1       1.252   2.536   0.510  0.00  0.00    +0.068 A 
ATOM      6  C   UNL     1       0.153   3.322   0.795  0.00  0.00    +0.031 A 
ATOM      7  C   UNL     1       0.331   4.645   1.162  0.00  0.00    -0.045 A 
ATOM      8  C   UNL     1      -0.865   5.505   1.479  0.00  0.00    +0.044 C 
ATOM      9  N   UNL     1       1.119   1.188   0.147  0.00  0.00    -0.306 N 
ATOM     10  C   UNL     1      -0.013   0.502  -0.170  0.00  0.00    +0.069 A 
ATOM     11  C   UNL     1       0.354  -0.785  -0.475  0.00  0.00    +0.089 A 
ATOM     12  C   UNL     1       1.827  -0.856  -0.303  0.00  0.00    +0.082 A 
ATOM     13  C   UNL     1       2.223   0.349   0.078  0.00  0.00    +0.073 A 
ATOM     14  C   UNL     1       3.613   0.839   0.423  0.00  0.00    +0.150 C 
ATOM     15  N   UNL     1       3.644   2.294   0.210  0.00  0.00    -0.330 N 
ATOM     16  N   UNL     1       2.478  -2.074  -0.552  0.00  0.00    -0.294 N 
ATOM     17  C   UNL     1       1.712  -3.118  -0.938  0.00  0.00    +0.332 A 
ATOM     18  O   UNL     1       2.277  -4.172  -1.155  0.00  0.00    -0.246 OA
ATOM     19  N   UNL     1       0.386  -3.089  -1.100  0.00  0.00    -0.263 N 
ATOM     20  C   UNL     1      -0.377  -1.984  -0.895  0.00  0.00    +0.266 A 
ATOM     21  O   UNL     1      -1.584  -1.990  -1.049  0.00  0.00    -0.267 OA
ATOM     22  C   UNL     1      -0.284  -4.322  -1.523  0.00  0.00    +0.157 C 
ATOM     23  C   UNL     1       3.929  -2.208  -0.400  0.00  0.00    +0.154 C 
ATOM     24  H   UNL     1       4.536   2.767  -0.227  0.00  0.00    +0.147 HD
ENDROOT
BRANCH  14  25
ATOM     25  C   UNL     1       3.919   0.528   1.866  0.00  0.00    -0.018 A 
ATOM     26  C   UNL     1       3.257   1.205   2.873  0.00  0.00    +0.009 A 
ATOM     27  C   UNL     1       3.530   0.920   4.198  0.00  0.00    +0.049 A 
ATOM     28  C   UNL     1       4.478  -0.038   4.519  0.00  0.00    +0.158 A 
ATOM     29  C   UNL     1       5.149  -0.716   3.505  0.00  0.00    +0.159 A 
ATOM     30  C   UNL     1       4.866  -0.429   2.179  0.00  0.00    +0.055 A 
BRANCH  29  31
ATOM     31  O   UNL     1       6.080  -1.657   3.815  0.00  0.00    -0.503 OA
ATOM     32  H   UNL     1       6.610  -2.192   3.013  0.00  0.00    +0.292 HD
ENDBRANCH  29  31
BRANCH  28  33
ATOM     33  O   UNL     1       4.752  -0.316   5.822  0.00  0.00    -0.503 OA
ATOM     34  H   UNL     1       5.505  -1.077   6.075  0.00  0.00    +0.292 HD
ENDBRANCH  28  33
ENDBRANCH  14  25
BRANCH  10  35
ATOM     35  C   UNL     1      -1.385   1.046  -0.188  0.00  0.00    -0.000 A 
ATOM     36  C   UNL     1      -2.380   0.465   0.601  0.00  0.00    +0.010 A 
ATOM     37  C   UNL     1      -3.659   0.982   0.583  0.00  0.00    +0.001 A 
ATOM     38  C   UNL     1      -3.959   2.066  -0.224  0.00  0.00    +0.000 A 
ATOM     39  C   UNL     1      -2.980   2.642  -1.013  0.00  0.00    +0.001 A 
ATOM     40  C   UNL     1      -1.695   2.140  -1.000  0.00  0.00    +0.010 A 
ENDBRANCH  10  35
TORSDOF 4
