REMARK  Name = ZINC04101258
REMARK  8 active torsions:
REMARK  status: ('A' for Active; 'I' for Inactive)
REMARK    1  A    between atoms: C_1  and  C_2
REMARK    2  A    between atoms: C_2  and  C_31
REMARK    3  A    between atoms: C_6  and  C_14
REMARK    4  A    between atoms: C_8  and  C_12
REMARK    5  A    between atoms: C_9  and  N_11
REMARK    6  A    between atoms: C_18  and  O_20
REMARK    7  A    between atoms: O_20  and  C_21
REMARK    8  A    between atoms: C_21  and  C_23
REMARK                            x       y       z     vdW  Elec       q    Type
REMARK                         _______ _______ _______ _____ _____    ______ ____
ROOT
ATOM      1  C   UNL     1       0.174   1.254  -0.434  0.00  0.00    +0.012 C 
ATOM      2  C   UNL     1       0.125  -0.273  -0.354  0.00  0.00    -0.021 C 
ATOM      3  C   UNL     1      -1.329  -0.735  -0.238  0.00  0.00    +0.081 C 
ATOM      4  C   UNL     1      -1.376  -2.240  -0.116  0.00  0.00    +0.115 C 
ATOM      5  C   UNL     1      -0.375  -2.913   0.480  0.00  0.00    +0.046 C 
ATOM      6  C   UNL     1      -0.428  -4.417   0.606  0.00  0.00    +0.101 C 
ATOM      7  C   UNL     1      -1.426  -4.985  -0.363  0.00  0.00    +0.098 C 
ATOM      8  C   UNL     1      -2.373  -4.191  -0.920  0.00  0.00    +0.198 C 
ATOM      9  O   UNL     1      -2.446  -2.884  -0.620  0.00  0.00    -0.445 OA
ATOM     10  C   UNL     1       0.750  -2.243   1.000  0.00  0.00    +0.164 C 
ATOM     11  O   UNL     1       1.625  -2.883   1.548  0.00  0.00    -0.292 OA
ATOM     12  C   UNL     1       0.887  -0.749   0.887  0.00  0.00    +0.086 C 
ATOM     13  C   UNL     1       0.761  -0.874  -1.609  0.00  0.00    +0.012 C 
ENDROOT
BRANCH   6  14
ATOM     14  C   UNL     1      -0.834  -4.786   2.010  0.00  0.00    -0.031 A 
ATOM     15  C   UNL     1      -2.054  -4.368   2.509  0.00  0.00    +0.005 A 
ATOM     16  C   UNL     1      -2.429  -4.706   3.796  0.00  0.00    +0.004 A 
ATOM     17  C   UNL     1      -1.585  -5.462   4.587  0.00  0.00    +0.046 A 
ATOM     18  C   UNL     1      -0.361  -5.882   4.088  0.00  0.00    +0.132 A 
ATOM     19  C   UNL     1       0.011  -5.546   2.795  0.00  0.00    +0.051 A 
BRANCH  18  20
ATOM     20  O   UNL     1       0.471  -6.626   4.865  0.00  0.00    -0.420 OA
BRANCH  20  21
ATOM     21  C   UNL     1       1.614  -6.054   5.296  0.00  0.00    +0.380 C 
ATOM     22  O   UNL     1       1.826  -4.877   5.077  0.00  0.00    -0.241 OA
BRANCH  21  23
ATOM     23  C   UNL     1       2.601  -6.852   6.028  0.00  0.00    +0.212 A 
ATOM     24  C   UNL     1       3.792  -6.400   6.522  0.00  0.00    +0.056 A 
ATOM     25  C   UNL     1       4.411  -7.494   7.145  0.00  0.00    +0.042 A 
ATOM     26  C   UNL     1       3.583  -8.553   7.005  0.00  0.00    +0.196 A 
ATOM     27  O   UNL     1       2.491  -8.161   6.337  0.00  0.00    -0.456 OA
ENDBRANCH  21  23
ENDBRANCH  20  21
ENDBRANCH  18  20
ENDBRANCH   6  14
BRANCH   8  28
ATOM     28  N   UNL     1      -3.272  -4.732  -1.805  0.00  0.00    -0.328 N 
ATOM     29  H   UNL     1      -3.227  -5.675  -2.027  0.00  0.00    +0.145 HD
ATOM     30  H   UNL     1      -3.954  -4.171  -2.208  0.00  0.00    +0.145 HD
ENDBRANCH   8  28
BRANCH   7  31
ATOM     31  C   UNL     1      -1.376  -6.376  -0.701  0.00  0.00    +0.101 C 
ATOM     32  N   UNL     1      -1.336  -7.479  -0.969  0.00  0.00    -0.191 NA
ENDBRANCH   7  31
TORSDOF 6
