REMARK  Name = ZINC31939377
REMARK  2 active torsions:
REMARK  status: ('A' for Active; 'I' for Inactive)
REMARK    1  A    between atoms: N_10  and  N_11
REMARK    2  A    between atoms: C_12  and  C_13
REMARK                            x       y       z     vdW  Elec       q    Type
REMARK                         _______ _______ _______ _____ _____    ______ ____
ROOT
ATOM      1  C   UNL     1       0.396   7.659  -1.641  0.00  0.00    +0.002 A 
ATOM      2  C   UNL     1       1.530   7.526  -2.429  0.00  0.00    +0.004 A 
ATOM      3  C   UNL     1       2.100   6.285  -2.631  0.00  0.00    +0.048 A 
ATOM      4  C   UNL     1       1.537   5.163  -2.044  0.00  0.00    +0.157 A 
ATOM      5  C   UNL     1       0.391   5.293  -1.246  0.00  0.00    +0.111 A 
ATOM      6  C   UNL     1      -0.175   6.554  -1.050  0.00  0.00    +0.031 A 
ATOM      7  N   UNL     1       0.070   4.042  -0.818  0.00  0.00    -0.194 NA
ATOM      8  C   UNL     1       0.946   3.196  -1.298  0.00  0.00    +0.309 A 
ATOM      9  O   UNL     1       1.850   3.847  -2.051  0.00  0.00    -0.423 OA
ATOM     10  N   UNL     1       0.938   1.838  -1.070  0.00  0.00    -0.190 N 
ATOM     11  H   UNL     1       1.714   1.201  -1.520  0.00  0.00    +0.179 HD
ENDROOT
BRANCH  10  12
ATOM     12  N   UNL     1      -0.057   1.268  -0.266  0.00  0.00    -0.186 NA
ATOM     13  C   UNL     1       0.006   0.011   0.052  0.00  0.00    +0.138 C 
BRANCH  13  14
ATOM     14  C   UNL     1       1.289  -0.709  -0.042  0.00  0.00    -0.005 A 
ATOM     15  C   UNL     1       1.308  -2.105  -0.093  0.00  0.00    +0.010 A 
ATOM     16  C   UNL     1       2.511  -2.773  -0.187  0.00  0.00    +0.016 A 
ATOM     17  C   UNL     1       3.700  -2.063  -0.219  0.00  0.00    +0.018 A 
ATOM     18  C   UNL     1       3.689  -0.679  -0.163  0.00  0.00    +0.016 A 
ATOM     19  C   UNL     1       2.492   0.001  -0.075  0.00  0.00    +0.010 A 
ATOM     20 BR   UNL     1       5.345  -2.987  -0.341  0.00  0.00    -0.050 Br
ENDBRANCH  13  14
ENDBRANCH  10  12
TORSDOF 2
