REMARK  Name = ZINC20720299
REMARK  3 active torsions:
REMARK  status: ('A' for Active; 'I' for Inactive)
REMARK    1  A    between atoms: C_1  and  C_2
REMARK    2  A    between atoms: C_2  and  N_3
REMARK    3  A    between atoms: C_14  and  O_22
REMARK                            x       y       z     vdW  Elec       q    Type
REMARK                         _______ _______ _______ _____ _____    ______ ____
ROOT
ATOM      1  N   UNL     1      -1.372  -0.511   0.012  0.00  0.00    -0.270 N 
ATOM      2  C   UNL     1      -2.089  -0.780   1.165  0.00  0.00    +0.041 A 
ATOM      3  C   UNL     1      -1.706  -0.641   2.500  0.00  0.00    +0.024 A 
ATOM      4  C   UNL     1      -2.636  -0.989   3.467  0.00  0.00    +0.002 A 
ATOM      5  C   UNL     1      -3.893  -1.453   3.137  0.00  0.00    +0.000 A 
ATOM      6  C   UNL     1      -4.288  -1.597   1.812  0.00  0.00    +0.007 A 
ATOM      7  C   UNL     1      -3.368  -1.253   0.844  0.00  0.00    -0.006 A 
ATOM      8  C   UNL     1      -3.442  -1.274  -0.648  0.00  0.00    +0.112 C 
ATOM      9  C   UNL     1      -2.091  -0.766  -1.101  0.00  0.00    +0.235 C 
ATOM     10  O   UNL     1      -1.723  -0.618  -2.248  0.00  0.00    -0.274 OA
ATOM     11  C   UNL     1      -3.685  -2.688  -1.173  0.00  0.00    +0.121 C 
ATOM     12  C   UNL     1      -5.141  -3.051  -1.117  0.00  0.00    +0.191 C 
ATOM     13  N   UNL     1      -6.103  -2.191  -1.267  0.00  0.00    -0.198 NA
ATOM     14  C   UNL     1      -5.802  -0.871  -1.440  0.00  0.00    +0.156 A 
ATOM     15  C   UNL     1      -4.534  -0.375  -1.156  0.00  0.00    +0.036 A 
ATOM     16  C   UNL     1      -4.540   0.980  -1.426  0.00  0.00    +0.141 A 
ATOM     17  N   UNL     1      -5.740   1.316  -1.840  0.00  0.00    -0.180 NA
ATOM     18  N   UNL     1      -6.554   0.172  -1.849  0.00  0.00    -0.260 N 
ATOM     19  H   UNL     1      -7.490   0.138  -2.102  0.00  0.00    +0.191 HD
ENDROOT
BRANCH   1  21
ATOM     20  C   UNL     1      -0.019   1.526   0.010  0.00  0.00    +0.025 C 
ATOM     21  C   UNL     1       0.002  -0.004   0.002  0.00  0.00    +0.110 C 
ENDBRANCH   1  21
BRANCH  12  22
ATOM     22  O   UNL     1      -5.468  -4.341  -0.898  0.00  0.00    -0.495 OA
ATOM     23  H   UNL     1      -6.421  -4.507  -0.874  0.00  0.00    +0.293 HD
ENDBRANCH  12  22
TORSDOF 2
