REMARK  Name = ZINC40400827
REMARK  11 active torsions:
REMARK  status: ('A' for Active; 'I' for Inactive)
REMARK    1  A    between atoms: C_1  and  C_2
REMARK    2  A    between atoms: C_2  and  C_3
REMARK    3  A    between atoms: C_3  and  N_4
REMARK    4  A    between atoms: C_5  and  C_7
REMARK    5  A    between atoms: N_10  and  S_24
REMARK    6  A    between atoms: C_12  and  C_14
REMARK    7  A    between atoms: C_18  and  O_22
REMARK    8  A    between atoms: C_19  and  O_20
REMARK    9  A    between atoms: O_20  and  C_21
REMARK   10  A    between atoms: O_22  and  C_23
REMARK   11  A    between atoms: S_24  and  C_27
REMARK                            x       y       z     vdW  Elec       q    Type
REMARK                         _______ _______ _______ _____ _____    ______ ____
ROOT
ATOM      1  C   UNL     1      -2.316  -4.495  -0.566  0.00  0.00    +0.099 C 
ATOM      2  C   UNL     1      -1.907  -4.651  -2.046  0.00  0.00    +0.123 C 
ATOM      3  N   UNL     1      -3.122  -4.479  -2.855  0.00  0.00    -0.175 NA
ATOM      4  C   UNL     1      -4.255  -4.199  -1.954  0.00  0.00    +0.118 C 
ATOM      5  C   UNL     1      -3.836  -4.807  -0.587  0.00  0.00    +0.051 C 
ENDROOT
BRANCH   5   6
ATOM      6  C   UNL     1      -4.543  -4.122   0.554  0.00  0.00    +0.003 A 
ATOM      7  C   UNL     1      -3.976  -4.115   1.815  0.00  0.00    +0.008 A 
ATOM      8  C   UNL     1      -4.622  -3.488   2.864  0.00  0.00    +0.004 A 
ATOM      9  C   UNL     1      -5.839  -2.865   2.656  0.00  0.00    +0.049 A 
ATOM     10  C   UNL     1      -6.413  -2.869   1.396  0.00  0.00    +0.162 A 
ATOM     11  C   UNL     1      -5.759  -3.495   0.338  0.00  0.00    +0.165 A 
BRANCH  11  12
ATOM     12  O   UNL     1      -6.316  -3.496  -0.902  0.00  0.00    -0.491 OA
ATOM     13  C   UNL     1      -7.246  -4.541  -1.195  0.00  0.00    +0.277 C 
ENDBRANCH  11  12
BRANCH  10  14
ATOM     14  O   UNL     1      -7.610  -2.256   1.190  0.00  0.00    -0.491 OA
ATOM     15  C   UNL     1      -8.220  -1.629   2.320  0.00  0.00    +0.277 C 
ENDBRANCH  10  14
ENDBRANCH   5   6
BRANCH   1  17
ATOM     16  N   UNL     1      -1.224  -2.863   0.938  0.00  0.00    -0.315 N 
ATOM     17  C   UNL     1      -2.067  -3.088  -0.089  0.00  0.00    +0.218 C 
ATOM     18  O   UNL     1      -2.625  -2.157  -0.630  0.00  0.00    -0.275 OA
ATOM     19  H   UNL     1      -0.777  -3.608   1.370  0.00  0.00    +0.149 HD
BRANCH  16  20
ATOM     20  C   UNL     1      -0.982  -1.495   1.401  0.00  0.00    +0.104 C 
BRANCH  20  22
ATOM     21  C   UNL     1       0.260  -0.090   3.053  0.00  0.00    +0.005 C 
ATOM     22  C   UNL     1       0.007  -1.519   2.569  0.00  0.00    +0.015 C 
ENDBRANCH  20  22
ENDBRANCH  16  20
ENDBRANCH   1  17
BRANCH   3  23
ATOM     23  S   UNL     1      -3.205  -4.580  -4.506  0.00  0.00    +0.061 S 
ATOM     24  O   UNL     1      -4.345  -3.830  -4.902  0.00  0.00    -0.153 OA
ATOM     25  O   UNL     1      -1.901  -4.300  -4.996  0.00  0.00    -0.153 OA
BRANCH  23  26
ATOM     26  C   UNL     1      -3.544  -6.262  -4.908  0.00  0.00    +0.106 A 
ATOM     27  C   UNL     1      -2.502  -7.149  -5.105  0.00  0.00    +0.030 A 
ATOM     28  C   UNL     1      -2.768  -8.468  -5.421  0.00  0.00    +0.022 A 
ATOM     29  C   UNL     1      -4.076  -8.901  -5.539  0.00  0.00    +0.041 A 
ATOM     30  C   UNL     1      -5.119  -8.013  -5.342  0.00  0.00    +0.022 A 
ATOM     31  C   UNL     1      -4.852  -6.695  -5.021  0.00  0.00    +0.030 A 
ATOM     32 CL   UNL     1      -4.410 -10.557  -5.936  0.00  0.00    -0.084 Cl
ENDBRANCH  23  26
ENDBRANCH   3  23
TORSDOF 8
