REMARK  Name = ZINC35857043
REMARK  13 active torsions:
REMARK  status: ('A' for Active; 'I' for Inactive)
REMARK    1  A    between atoms: C_1  and  C_2
REMARK    2  A    between atoms: C_2  and  C_3
REMARK    3  A    between atoms: C_3  and  C_5
REMARK    4  A    between atoms: C_3  and  O_15
REMARK    5  A    between atoms: N_7  and  C_8
REMARK    6  A    between atoms: C_8  and  C_9
REMARK    7  A    between atoms: C_9  and  N_10
REMARK    8  A    between atoms: O_15  and  C_16
REMARK    9  A    between atoms: C_22  and  C_33
REMARK   10  A    between atoms: C_27  and  C_29
REMARK   11  A    between atoms: C_29  and  C_30
REMARK   12  A    between atoms: C_29  and  C_31
REMARK   13  A    between atoms: C_29  and  C_32
REMARK                            x       y       z     vdW  Elec       q    Type
REMARK                         _______ _______ _______ _____ _____    ______ ____
ROOT
ATOM      1  C   UNL     1       0.775   3.099  -1.838  0.00  0.00    +0.122 A 
ATOM      2  C   UNL     1       1.584   4.220  -1.723  0.00  0.00    +0.046 A 
ATOM      3  C   UNL     1       1.586   5.168  -2.723  0.00  0.00    +0.007 A 
ATOM      4  C   UNL     1       0.788   5.010  -3.851  0.00  0.00    -0.040 A 
ATOM      5  C   UNL     1      -0.008   3.892  -3.970  0.00  0.00    -0.016 A 
ATOM      6  C   UNL     1      -0.014   2.937  -2.964  0.00  0.00    +0.051 A 
ATOM      7  C   UNL     1      -0.875   3.645  -5.179  0.00  0.00    +0.137 C 
ATOM      8  N   UNL     1      -0.939   4.860  -5.998  0.00  0.00    -0.290 N 
ATOM      9  C   UNL     1       0.323   5.580  -6.239  0.00  0.00    +0.113 C 
ATOM     10  C   UNL     1       0.833   6.095  -4.894  0.00  0.00    +0.054 C 
ATOM     11  C   UNL     1      -2.105   5.299  -6.511  0.00  0.00    +0.222 C 
ATOM     12  O   UNL     1      -3.117   4.648  -6.360  0.00  0.00    -0.275 OA
ENDROOT
BRANCH   7  13
ATOM     13  C   UNL     1      -2.264   3.270  -4.731  0.00  0.00    -0.020 A 
ATOM     14  C   UNL     1      -3.076   4.215  -4.131  0.00  0.00    +0.006 A 
ATOM     15  C   UNL     1      -4.350   3.873  -3.719  0.00  0.00    +0.003 A 
ATOM     16  C   UNL     1      -4.814   2.584  -3.907  0.00  0.00    +0.038 A 
ATOM     17  C   UNL     1      -4.003   1.637  -4.507  0.00  0.00    +0.124 A 
ATOM     18  C   UNL     1      -2.729   1.983  -4.924  0.00  0.00    +0.044 A 
ATOM     19  F   UNL     1      -4.456   0.377  -4.690  0.00  0.00    -0.205 F 
ENDBRANCH   7  13
BRANCH  11  20
ATOM     20  C   UNL     1      -2.152   6.599  -7.271  0.00  0.00    +0.039 C 
ATOM     21  C   UNL     1      -3.601   6.923  -7.639  0.00  0.00    +0.020 C 
ATOM     22  C   UNL     1      -1.584   7.721  -6.399  0.00  0.00    +0.020 C 
ATOM     23  C   UNL     1      -1.318   6.474  -8.548  0.00  0.00    +0.020 C 
ENDBRANCH  11  20
BRANCH   1  24
ATOM     24  O   UNL     1       0.762   2.161  -0.854  0.00  0.00    -0.480 OA
BRANCH  24  25
ATOM     25  C   UNL     1       1.681   2.341   0.226  0.00  0.00    +0.258 C 
BRANCH  25  26
ATOM     26  C   UNL     1       2.207   1.000   0.668  0.00  0.00    +0.254 C 
ATOM     27  O   UNL     1       1.765  -0.016   0.175  0.00  0.00    -0.272 OA
ATOM     28  N   UNL     1       3.168   0.930   1.610  0.00  0.00    -0.314 N 
ATOM     29  H   UNL     1       3.521   1.743   2.004  0.00  0.00    +0.149 HD
BRANCH  28  30
ATOM     30  C   UNL     1       3.679  -0.374   2.039  0.00  0.00    +0.086 C 
BRANCH  30  31
ATOM     31  C   UNL     1       4.754  -0.174   3.109  0.00  0.00    -0.060 C 
BRANCH  31  32
ATOM     32  N   UNL     1       5.266  -1.481   3.540  0.00  0.00    +0.381 N 
ATOM     33  C   UNL     1       6.039  -2.115   2.441  0.00  0.00    -0.079 C 
ATOM     34  C   UNL     1       6.942  -3.132   3.184  0.00  0.00    -0.020 C 
ATOM     35  C   UNL     1       7.317  -2.378   4.481  0.00  0.00    -0.020 C 
ATOM     36  C   UNL     1       6.220  -1.313   4.658  0.00  0.00    -0.079 C 
ATOM     37  H   UNL     1       4.504  -2.079   3.820  0.00  0.00    -0.082 HD
ENDBRANCH  31  32
ENDBRANCH  30  31
ENDBRANCH  28  30
ENDBRANCH  25  26
BRANCH  25  39
ATOM     38  C   UNL     1       0.541   4.431   0.986  0.00  0.00    +0.008 C 
ATOM     39  C   UNL     1       0.966   3.019   1.396  0.00  0.00    +0.051 C 
ENDBRANCH  25  39
ENDBRANCH  24  25
ENDBRANCH   1  24
TORSDOF 9
