REMARK  Name = ZINC12279952
REMARK  6 active torsions:
REMARK  status: ('A' for Active; 'I' for Inactive)
REMARK    1  A    between atoms: C_3  and  C_8
REMARK    2  A    between atoms: C_8  and  N_9
REMARK    3  A    between atoms: C_20  and  N_58
REMARK    4  A    between atoms: C_24  and  C_25
REMARK    5  A    between atoms: C_24  and  N_58
REMARK    6  A    between atoms: C_25  and  O_31
REMARK                            x       y       z     vdW  Elec       q    Type
REMARK                         _______ _______ _______ _____ _____    ______ ____
ROOT
ATOM      1  N   UNL     1       1.161   1.759   0.000  0.00  0.00    -0.294 N 
ATOM      2  C   UNL     1      -0.013   1.076   0.008  0.00  0.00    +0.203 A 
ATOM      3  N   UNL     1      -1.159   1.702   0.017  0.00  0.00    -0.230 NA
ATOM      4  C   UNL     1      -1.212   3.031   0.030  0.00  0.00    +0.116 A 
ATOM      5  C   UNL     1      -0.052   3.822   0.023  0.00  0.00    +0.076 A 
ATOM      6  C   UNL     1       1.188   3.104   0.007  0.00  0.00    +0.263 A 
ATOM      7  O   UNL     1       2.250   3.703  -0.001  0.00  0.00    -0.267 OA
ATOM      8  C   UNL     1      -0.265   5.269   0.032  0.00  0.00    -0.023 A 
ATOM      9  C   UNL     1      -1.544   5.700   0.047  0.00  0.00    -0.006 A 
ATOM     10  S   UNL     1      -2.526   4.224   0.049  0.00  0.00    -0.073 S 
ATOM     11  C   UNL     1      -2.023   7.119   0.058  0.00  0.00    +0.027 C 
ATOM     12  C   UNL     1      -0.847   8.030  -0.324  0.00  0.00    -0.067 C 
ATOM     13  C   UNL     1       0.378   7.623   0.499  0.00  0.00    -0.011 C 
ATOM     14  C   UNL     1       0.893   6.263   0.026  0.00  0.00    +0.035 C 
ENDROOT
BRANCH  12  15
ATOM     15  N   UNL     1      -1.190   9.434  -0.025  0.00  0.00    +0.383 N 
ATOM     16  H   UNL     1      -0.327   9.968   0.129  0.00  0.00    -0.085 HD
ATOM     17  H   UNL     1      -1.769   9.467   0.822  0.00  0.00    -0.085 HD
BRANCH  15  18
ATOM     18  C   UNL     1      -1.937  10.029  -1.149  0.00  0.00    -0.047 C 
BRANCH  18  19
ATOM     19  C   UNL     1      -2.278  11.482  -0.811  0.00  0.00    +0.051 C 
ATOM     20  C   UNL     1      -3.029  11.532   0.521  0.00  0.00    +0.033 C 
ATOM     21  C   UNL     1      -3.370  12.985   0.859  0.00  0.00    +0.003 C 
ATOM     22  C   UNL     1      -4.251  13.572  -0.246  0.00  0.00    +0.000 C 
ATOM     23  C   UNL     1      -3.500  13.521  -1.578  0.00  0.00    +0.003 C 
ATOM     24  C   UNL     1      -3.159  12.069  -1.916  0.00  0.00    +0.033 C 
BRANCH  19  25
ATOM     25  O   UNL     1      -1.073  12.242  -0.708  0.00  0.00    -0.390 OA
ATOM     26  H   UNL     1      -0.465  11.926  -0.026  0.00  0.00    +0.210 HD
ENDBRANCH  19  25
ENDBRANCH  18  19
ENDBRANCH  15  18
ENDBRANCH  12  15
BRANCH   1  27
ATOM     27  C   UNL     1       2.424   1.016  -0.015  0.00  0.00    +0.161 C 
BRANCH  27  30
ATOM     28  C   UNL     1       2.814  -0.606  -3.402  0.00  0.00    +0.002 A 
ATOM     29  C   UNL     1       2.433  -0.381  -2.092  0.00  0.00    +0.005 A 
ATOM     30  C   UNL     1       2.843   0.767  -1.441  0.00  0.00    -0.026 A 
ATOM     31  C   UNL     1       3.643   1.685  -2.095  0.00  0.00    +0.025 A 
ATOM     32  C   UNL     1       4.029   1.458  -3.404  0.00  0.00    +0.041 A 
ATOM     33  C   UNL     1       3.613   0.311  -4.057  0.00  0.00    +0.020 A 
ATOM     34 CL   UNL     1       5.034   2.610  -4.226  0.00  0.00    -0.084 Cl
ENDBRANCH  27  30
ENDBRANCH   1  27
TORSDOF 6
