REMARK  Name = ZINC36826065
REMARK  9 active torsions:
REMARK  status: ('A' for Active; 'I' for Inactive)
REMARK    1  A    between atoms: C_1  and  C_2
REMARK    2  A    between atoms: C_2  and  C_24
REMARK    3  A    between atoms: N_5  and  C_9
REMARK    4  A    between atoms: C_9  and  C_10
REMARK    5  A    between atoms: N_12  and  C_13
REMARK    6  A    between atoms: C_27  and  C_30
REMARK    7  A    between atoms: C_30  and  C_31
REMARK    8  A    between atoms: C_30  and  C_32
REMARK    9  A    between atoms: C_30  and  C_33
REMARK                            x       y       z     vdW  Elec       q    Type
REMARK                         _______ _______ _______ _____ _____    ______ ____
ROOT
ATOM      1  C   UNL     1      -0.027   1.522  -0.002  0.00  0.00    +0.047 C 
ATOM      2  C   UNL     1      -0.000  -0.008  -0.001  0.00  0.00    +0.135 C 
ATOM      3  C   UNL     1       0.813  -0.528  -1.170  0.00  0.00    +0.251 C 
ATOM      4  O   UNL     1       0.591  -0.358  -2.349  0.00  0.00    -0.272 OA
ATOM      5  N   UNL     1       1.834  -1.219  -0.625  0.00  0.00    -0.215 N 
ATOM      6  C   UNL     1       1.779  -1.207   0.712  0.00  0.00    +0.310 C 
ATOM      7  O   UNL     1       2.591  -1.762   1.426  0.00  0.00    -0.252 OA
ATOM      8  N   UNL     1       0.725  -0.513   1.178  0.00  0.00    -0.281 N 
ATOM      9  H   UNL     1       0.489  -0.373   2.108  0.00  0.00    +0.152 HD
ENDROOT
BRANCH   2  10
ATOM     10  C   UNL     1      -1.402  -0.561  -0.038  0.00  0.00    -0.015 A 
ATOM     11  C   UNL     1      -2.005  -0.834  -1.251  0.00  0.00    +0.006 A 
ATOM     12  C   UNL     1      -3.291  -1.341  -1.285  0.00  0.00    +0.004 A 
ATOM     13  C   UNL     1      -3.973  -1.576  -0.106  0.00  0.00    -0.042 A 
ATOM     14  C   UNL     1      -3.369  -1.304   1.107  0.00  0.00    +0.004 A 
ATOM     15  C   UNL     1      -2.082  -0.801   1.142  0.00  0.00    +0.006 A 
BRANCH  13  16
ATOM     16  C   UNL     1      -5.374  -2.128  -0.143  0.00  0.00    -0.013 C 
ATOM     17  C   UNL     1      -5.369  -3.488  -0.844  0.00  0.00    +0.015 C 
ATOM     18  C   UNL     1      -5.896  -2.292   1.286  0.00  0.00    +0.015 C 
ATOM     19  C   UNL     1      -6.282  -1.163  -0.909  0.00  0.00    +0.015 C 
ENDBRANCH  13  16
ENDBRANCH   2  10
BRANCH   5  20
ATOM     20  C   UNL     1       2.874  -1.899  -1.400  0.00  0.00    +0.214 C 
BRANCH  20  21
ATOM     21  C   UNL     1       4.019  -0.950  -1.645  0.00  0.00    +0.235 C 
ATOM     22  O   UNL     1       3.971   0.183  -1.214  0.00  0.00    -0.274 OA
ATOM     23  N   UNL     1       5.097  -1.360  -2.343  0.00  0.00    -0.284 N 
ATOM     24  H   UNL     1       5.166  -2.284  -2.630  0.00  0.00    +0.155 HD
BRANCH  23  25
ATOM     25  C   UNL     1       6.117  -0.451  -2.654  0.00  0.00    +0.037 A 
ATOM     26  C   UNL     1       6.453   0.550  -1.752  0.00  0.00    +0.027 A 
ATOM     27  C   UNL     1       7.459   1.448  -2.056  0.00  0.00    +0.051 A 
ATOM     28  C   UNL     1       8.133   1.346  -3.261  0.00  0.00    +0.162 A 
ATOM     29  C   UNL     1       7.799   0.346  -4.164  0.00  0.00    +0.164 A 
ATOM     30  C   UNL     1       6.795  -0.557  -3.861  0.00  0.00    +0.072 A 
ATOM     31  O   UNL     1       8.471   0.256  -5.349  0.00  0.00    -0.488 OA
ATOM     32  C   UNL     1       8.243   1.317  -6.279  0.00  0.00    +0.232 C 
ATOM     33  C   UNL     1       9.152   2.499  -5.982  0.00  0.00    +0.082 C 
ATOM     34  C   UNL     1       8.850   3.138  -4.636  0.00  0.00    +0.232 C 
ATOM     35  O   UNL     1       9.129   2.228  -3.570  0.00  0.00    -0.488 OA
ENDBRANCH  23  25
ENDBRANCH  20  21
ENDBRANCH   5  20
TORSDOF 5
