REMARK  Name = ZINC62038736
REMARK  10 active torsions:
REMARK  status: ('A' for Active; 'I' for Inactive)
REMARK    1  A    between atoms: C_1  and  C_2
REMARK    2  A    between atoms: C_5  and  C_9
REMARK    3  A    between atoms: C_7  and  C_8
REMARK    4  A    between atoms: C_17  and  S_19
REMARK    5  A    between atoms: S_19  and  C_20
REMARK    6  A    between atoms: C_20  and  C_22
REMARK    7  A    between atoms: C_20  and  C_23
REMARK    8  A    between atoms: N_25  and  C_26
REMARK    9  A    between atoms: C_28  and  C_33
REMARK   10  A    between atoms: C_31  and  O_32
REMARK                            x       y       z     vdW  Elec       q    Type
REMARK                         _______ _______ _______ _____ _____    ______ ____
ROOT
ATOM      1  C   UNL     1       0.006  -4.234   0.023  0.00  0.00    +0.004 A 
ATOM      2  C   UNL     1       0.906  -4.914   0.774  0.00  0.00    +0.056 A 
ATOM      3  S   UNL     1       0.528  -6.620   0.418  0.00  0.00    -0.078 S 
ATOM      4  C   UNL     1      -0.812  -6.377  -0.717  0.00  0.00    +0.093 A 
ATOM      5  C   UNL     1      -0.941  -4.989  -0.790  0.00  0.00    +0.080 A 
ATOM      6  C   UNL     1      -2.015  -4.498  -1.684  0.00  0.00    +0.283 A 
ATOM      7  O   UNL     1      -2.204  -3.300  -1.820  0.00  0.00    -0.265 OA
ATOM      8  N   UNL     1      -2.774  -5.380  -2.342  0.00  0.00    -0.185 NA
ATOM      9  C   UNL     1      -2.604  -6.680  -2.226  0.00  0.00    +0.171 A 
ATOM     10  N   UNL     1      -1.629  -7.201  -1.429  0.00  0.00    -0.328 N 
ATOM     11  H   UNL     1      -1.524  -8.163  -1.359  0.00  0.00    +0.168 HD
ENDROOT
BRANCH   1  16
ATOM     12  C   UNL     1      -0.093   1.523   0.058  0.00  0.00    +0.044 C 
ATOM     13  C   UNL     1      -0.067   0.016   0.049  0.00  0.00    -0.048 A 
ATOM     14  C   UNL     1      -0.052  -0.666  -1.155  0.00  0.00    +0.004 A 
ATOM     15  C   UNL     1      -0.029  -2.045  -1.170  0.00  0.00    +0.009 A 
ATOM     16  C   UNL     1      -0.019  -2.752   0.032  0.00  0.00    -0.016 A 
ATOM     17  C   UNL     1      -0.033  -2.060   1.242  0.00  0.00    +0.012 A 
ATOM     18  C   UNL     1      -0.051  -0.680   1.244  0.00  0.00    -0.047 A 
ATOM     19  C   UNL     1      -0.061   0.070   2.551  0.00  0.00    +0.044 C 
ENDBRANCH   1  16
BRANCH   9  20
ATOM     20  S   UNL     1      -3.653  -7.770  -3.130  0.00  0.00    -0.075 S 
BRANCH  20  21
ATOM     21  C   UNL     1      -4.761  -6.659  -4.040  0.00  0.00    +0.137 C 
ATOM     22  C   UNL     1      -5.633  -5.885  -3.050  0.00  0.00    +0.029 C 
BRANCH  21  23
ATOM     23  C   UNL     1      -5.640  -7.468  -4.959  0.00  0.00    +0.230 C 
ATOM     24  O   UNL     1      -5.876  -8.630  -4.704  0.00  0.00    -0.274 OA
ATOM     25  N   UNL     1      -6.164  -6.900  -6.063  0.00  0.00    -0.282 N 
ATOM     26  H   UNL     1      -6.029  -5.954  -6.233  0.00  0.00    +0.155 HD
BRANCH  25  27
ATOM     27  C   UNL     1      -6.904  -7.675  -6.966  0.00  0.00    +0.076 A 
ATOM     28  C   UNL     1      -7.697  -8.708  -6.502  0.00  0.00    +0.038 A 
ATOM     29  C   UNL     1      -8.434  -9.480  -7.408  0.00  0.00    +0.016 A 
ATOM     30  C   UNL     1      -8.364  -9.202  -8.779  0.00  0.00    +0.015 A 
ATOM     31  C   UNL     1      -7.571  -8.171  -9.233  0.00  0.00    +0.048 A 
ATOM     32  C   UNL     1      -6.844  -7.401  -8.334  0.00  0.00    +0.138 A 
BRANCH  32  33
ATOM     33  O   UNL     1      -6.069  -6.383  -8.787  0.00  0.00    -0.505 OA
ATOM     34  H   UNL     1      -5.163  -6.644  -9.000  0.00  0.00    +0.292 HD
ENDBRANCH  32  33
BRANCH  29  35
ATOM     35  C   UNL     1      -9.278 -10.579  -6.922  0.00  0.00    +0.258 C 
ATOM     36  O   UNL     1      -9.916 -11.247  -7.708  0.00  0.00    -0.296 OA
ENDBRANCH  29  35
ENDBRANCH  25  27
ENDBRANCH  21  23
ENDBRANCH  20  21
ENDBRANCH   9  20
TORSDOF 7
