REMARK  Name = ZINC30287104
REMARK  9 active torsions:
REMARK  status: ('A' for Active; 'I' for Inactive)
REMARK    1  A    between atoms: C_1  and  C_2
REMARK    2  A    between atoms: C_2  and  C_3
REMARK    3  A    between atoms: C_3  and  C_4
REMARK    4  A    between atoms: C_4  and  N_5
REMARK    5  A    between atoms: C_9  and  C_11
REMARK    6  A    between atoms: C_11  and  C_13
REMARK    7  A    between atoms: C_11  and  N_14
REMARK    8  A    between atoms: C_17  and  N_20
REMARK    9  A    between atoms: C_21  and  C_23
REMARK                            x       y       z     vdW  Elec       q    Type
REMARK                         _______ _______ _______ _____ _____    ______ ____
ROOT
ATOM      1  C   UNL     1       0.002  -0.004   0.002  0.00  0.00    +0.017 C 
ATOM      2  C   UNL     1       0.835  -1.077  -0.703  0.00  0.00    -0.004 C 
ENDROOT
BRANCH   1   7
ATOM      3  N   UNL     1      -4.344  -0.215  -2.041  0.00  0.00    -0.299 N 
ATOM      4  C   UNL     1      -3.542  -0.508  -0.999  0.00  0.00    +0.306 C 
ATOM      5  O   UNL     1      -3.984  -1.113  -0.042  0.00  0.00    -0.252 OA
ATOM      6  N   UNL     1      -2.248  -0.132  -1.018  0.00  0.00    -0.242 N 
ATOM      7  C   UNL     1      -1.445  -0.425   0.024  0.00  0.00    +0.207 C 
ATOM      8  O   UNL     1      -1.886  -1.028   0.978  0.00  0.00    -0.277 OA
ATOM      9  H   UNL     1      -3.944   0.332  -2.907  0.00  0.00    +0.150 HD
ATOM     10  H   UNL     1      -1.847   0.415  -1.885  0.00  0.00    +0.159 HD
BRANCH   3  11
ATOM     11  C   UNL     1      -5.751  -0.624  -2.020  0.00  0.00    +0.106 C 
BRANCH  11  12
ATOM     12  C   UNL     1      -6.433  -0.171  -3.313  0.00  0.00    +0.018 C 
BRANCH  12  14
ATOM     13  C   UNL     1      -8.584  -0.145  -4.583  0.00  0.00    +0.004 C 
ATOM     14  C   UNL     1      -7.902  -0.598  -3.291  0.00  0.00    -0.002 C 
ENDBRANCH  12  14
ENDBRANCH  11  12
ENDBRANCH   3  11
ENDBRANCH   1   7
BRANCH   1  15
ATOM     15  N   UNL     1       0.484   0.164   1.380  0.00  0.00    +0.387 N 
ATOM     16  C   UNL     1       1.931   0.411   1.405  0.00  0.00    -0.076 C 
ATOM     17  C   UNL     1       2.421   0.435   2.854  0.00  0.00    +0.004 C 
ATOM     18  C   UNL     1       1.683   1.538   3.619  0.00  0.00    +0.069 C 
ATOM     19  C   UNL     1       0.175   1.283   3.536  0.00  0.00    +0.004 C 
ATOM     20  C   UNL     1      -0.250   1.234   2.067  0.00  0.00    -0.076 C 
ATOM     21  H   UNL     1       0.294  -0.774   1.922  0.00  0.00    -0.081 HD
BRANCH  18  22
ATOM     22  N   UNL     1       2.105   1.528   5.022  0.00  0.00    -0.312 N 
ATOM     23  C   UNL     1       3.212   2.198   5.397  0.00  0.00    +0.216 C 
ATOM     24  O   UNL     1       3.860   2.809   4.573  0.00  0.00    -0.276 OA
ATOM     25  H   UNL     1       1.518   0.974   5.769  0.00  0.00    +0.149 HD
BRANCH  23  26
ATOM     26  C   UNL     1       3.647   2.187   6.840  0.00  0.00    +0.075 C 
ATOM     27  C   UNL     1       3.538   3.499   7.620  0.00  0.00    +0.013 C 
ATOM     28  C   UNL     1       4.912   2.968   7.202  0.00  0.00    +0.013 C 
ENDBRANCH  23  26
ENDBRANCH  18  22
ENDBRANCH   1  15
TORSDOF 7
