REMARK  Name = ZINC66198585
REMARK  11 active torsions:
REMARK  status: ('A' for Active; 'I' for Inactive)
REMARK    1  A    between atoms: C_1  and  C_2
REMARK    2  A    between atoms: C_2  and  C_3
REMARK    3  A    between atoms: C_2  and  O_4
REMARK    4  A    between atoms: O_4  and  C_5
REMARK    5  A    between atoms: C_8  and  C_12
REMARK    6  A    between atoms: N_14  and  C_15
REMARK    7  A    between atoms: C_15  and  N_17
REMARK    8  A    between atoms: N_17  and  C_18
REMARK    9  A    between atoms: C_21  and  N_26
REMARK   10  A    between atoms: C_23  and  O_24
REMARK   11  A    between atoms: O_24  and  C_25
REMARK                            x       y       z     vdW  Elec       q    Type
REMARK                         _______ _______ _______ _____ _____    ______ ____
ROOT
ATOM      1  C   UNL     1       6.346  -0.249  -1.114  0.00  0.00    +0.250 C 
ATOM      2  O   UNL     1       6.961   0.164  -0.150  0.00  0.00    -0.270 OA
ATOM      3  N   UNL     1       7.005  -0.841  -2.130  0.00  0.00    -0.264 N 
ATOM      4  H   UNL     1       6.515  -1.171  -2.899  0.00  0.00    +0.157 HD
ENDROOT
BRANCH   1   8
ATOM      5  C   UNL     1       2.124   0.172  -1.279  0.00  0.00    +0.135 A 
ATOM      6  C   UNL     1       2.825   0.645  -0.176  0.00  0.00    +0.047 A 
ATOM      7  C   UNL     1       4.195   0.510  -0.119  0.00  0.00    +0.017 A 
ATOM      8  C   UNL     1       4.880  -0.103  -1.171  0.00  0.00    +0.038 A 
ATOM      9  C   UNL     1       4.171  -0.577  -2.279  0.00  0.00    +0.032 A 
ATOM     10  C   UNL     1       2.801  -0.443  -2.326  0.00  0.00    +0.060 A 
ATOM     11 BR   UNL     1       1.839  -1.091  -3.820  0.00  0.00    -0.046 Br
BRANCH   5  12
ATOM     12  O   UNL     1       0.774   0.307  -1.331  0.00  0.00    -0.488 OA
BRANCH  12  14
ATOM     13  C   UNL     1       0.237   2.510  -0.497  0.00  0.00    +0.051 C 
ATOM     14  C   UNL     1       0.150   1.003  -0.251  0.00  0.00    +0.167 C 
ATOM     15  C   UNL     1      -1.319   0.586  -0.157  0.00  0.00    +0.051 C 
ENDBRANCH  12  14
ENDBRANCH   5  12
ENDBRANCH   1   8
BRANCH   3  16
ATOM     16  C   UNL     1       8.345  -0.974  -2.078  0.00  0.00    +0.141 C 
ATOM     17  S   UNL     1       9.211  -0.392  -0.720  0.00  0.00    -0.018 S 
BRANCH  16  18
ATOM     18  N   UNL     1       9.004  -1.566  -3.094  0.00  0.00    -0.294 N 
ATOM     19  H   UNL     1       8.519  -1.858  -3.881  0.00  0.00    +0.154 HD
BRANCH  18  20
ATOM     20  C   UNL     1      10.389  -1.759  -3.013  0.00  0.00    +0.075 A 
ATOM     21  C   UNL     1      10.970  -2.130  -1.809  0.00  0.00    +0.029 A 
ATOM     22  C   UNL     1      12.337  -2.321  -1.731  0.00  0.00    +0.035 A 
ATOM     23  C   UNL     1      13.128  -2.142  -2.851  0.00  0.00    +0.130 A 
ATOM     24  C   UNL     1      12.556  -1.771  -4.054  0.00  0.00    +0.080 A 
ATOM     25  C   UNL     1      11.186  -1.584  -4.142  0.00  0.00    +0.143 A 
BRANCH  23  26
ATOM     26  N   UNL     1      14.591  -2.347  -2.762  0.00  0.00    +0.057 N 
ATOM     27  O   UNL     1      15.093  -2.670  -1.710  0.00  0.00    -0.126 OA
ATOM     28  O   UNL     1      15.284  -2.190  -3.740  0.00  0.00    -0.126 OA
ENDBRANCH  23  26
BRANCH  25  29
ATOM     29  O   UNL     1      10.621  -1.225  -5.326  0.00  0.00    -0.493 OA
ATOM     30  C   UNL     1      11.500  -1.064  -6.441  0.00  0.00    +0.277 C 
ENDBRANCH  25  29
ENDBRANCH  18  20
ENDBRANCH  16  18
ENDBRANCH   3  16
TORSDOF 8
