REMARK  Name = ZINC11998213
REMARK  7 active torsions:
REMARK  status: ('A' for Active; 'I' for Inactive)
REMARK    1  A    between atoms: C_1  and  C_2
REMARK    2  A    between atoms: C_5  and  C_8
REMARK    3  A    between atoms: C_8  and  C_10
REMARK    4  A    between atoms: C_8  and  N_61
REMARK    5  A    between atoms: C_10  and  N_11
REMARK    6  A    between atoms: C_12  and  C_14
REMARK    7  A    between atoms: C_18  and  N_20
REMARK                            x       y       z     vdW  Elec       q    Type
REMARK                         _______ _______ _______ _____ _____    ______ ____
ROOT
ATOM      1  N   UNL     1       0.634  -0.441  -1.260  0.00  0.00    -0.313 N 
ATOM      2  C   UNL     1       0.773  -1.762  -1.488  0.00  0.00    +0.244 C 
ATOM      3  O   UNL     1       0.507  -2.562  -0.611  0.00  0.00    -0.270 OA
ATOM      4  H   UNL     1       0.846   0.196  -1.959  0.00  0.00    +0.149 HD
ENDROOT
BRANCH   2   5
ATOM      5  C   UNL     1       1.247  -2.240  -2.804  0.00  0.00    +0.039 A 
ATOM      6  C   UNL     1       1.547  -1.324  -3.815  0.00  0.00    +0.013 A 
ATOM      7  C   UNL     1       1.994  -1.772  -5.041  0.00  0.00    +0.003 A 
ATOM      8  C   UNL     1       2.138  -3.127  -5.277  0.00  0.00    +0.025 A 
ATOM      9  C   UNL     1       1.836  -4.046  -4.280  0.00  0.00    +0.060 A 
ATOM     10  C   UNL     1       1.391  -3.606  -3.043  0.00  0.00    +0.038 A 
BRANCH   9  11
ATOM     11  N   UNL     1       1.982  -5.416  -4.524  0.00  0.00    -0.144 N 
ATOM     12  C   UNL     1       2.198  -6.364  -3.600  0.00  0.00    +0.240 C 
ATOM     13  O   UNL     1       2.254  -6.081  -2.422  0.00  0.00    -0.274 OA
ATOM     14  C   UNL     1       2.363  -7.783  -4.056  0.00  0.00    +0.122 C 
ATOM     15  C   UNL     1       1.783  -7.916  -5.489  0.00  0.00    +0.198 C 
ATOM     16  S   UNL     1       1.925  -6.161  -6.023  0.00  0.00    +0.052 S 
ATOM     17  O   UNL     1       0.720  -5.716  -6.628  0.00  0.00    -0.155 OA
ATOM     18  O   UNL     1       3.190  -5.914  -6.623  0.00  0.00    -0.155 OA
ENDBRANCH   9  11
ENDBRANCH   2   5
BRANCH   1  19
ATOM     19  C   UNL     1       0.164   0.032   0.045  0.00  0.00    +0.094 C 
BRANCH  19  20
ATOM     20  C   UNL     1       0.002   1.552   0.008  0.00  0.00    -0.020 C 
BRANCH  20  25
ATOM     21  C   UNL     1       5.144   4.019  -0.921  0.00  0.00    +0.044 C 
ATOM     22  C   UNL     1       3.803   3.376  -0.679  0.00  0.00    -0.050 A 
ATOM     23  C   UNL     1       2.913   3.220  -1.724  0.00  0.00    +0.003 A 
ATOM     24  C   UNL     1       1.682   2.630  -1.502  0.00  0.00    +0.002 A 
ATOM     25  C   UNL     1       1.343   2.195  -0.234  0.00  0.00    -0.059 A 
ATOM     26  C   UNL     1       2.232   2.356   0.812  0.00  0.00    +0.002 A 
ATOM     27  C   UNL     1       3.464   2.941   0.589  0.00  0.00    +0.003 A 
ENDBRANCH  20  25
BRANCH  20  33
ATOM     28  C   UNL     1      -1.825   1.372   1.586  0.00  0.00    -0.078 C 
ATOM     29  C   UNL     1      -2.287   1.768   2.990  0.00  0.00    -0.019 C 
ATOM     30  C   UNL     1      -2.432   3.291   3.064  0.00  0.00    -0.004 C 
ATOM     31  C   UNL     1      -1.092   3.941   2.705  0.00  0.00    -0.019 C 
ATOM     32  C   UNL     1      -0.665   3.482   1.310  0.00  0.00    -0.078 C 
ATOM     33  N   UNL     1      -0.520   2.010   1.312  0.00  0.00    +0.385 N 
ATOM     34  H   UNL     1       0.143   1.742   2.049  0.00  0.00    -0.081 HD
ENDBRANCH  20  33
ENDBRANCH  19  20
ENDBRANCH   1  19
TORSDOF 6
