REMARK  Name = ZINC58501062
REMARK  2 active torsions:
REMARK  status: ('A' for Active; 'I' for Inactive)
REMARK    1  A    between atoms: C_4  and  C_7
REMARK    2  A    between atoms: C_17  and  C_19
REMARK                            x       y       z     vdW  Elec       q    Type
REMARK                         _______ _______ _______ _____ _____    ______ ____
ROOT
ATOM      1  C   UNL     1       3.437  -0.578   0.140  0.00  0.00    +0.137 C 
ATOM      2  C   UNL     1       3.267  -1.174  -1.256  0.00  0.00    -0.012 A 
ATOM      3  C   UNL     1       3.488  -0.451  -2.427  0.00  0.00    +0.013 A 
ATOM      4  C   UNL     1       3.313  -1.044  -3.631  0.00  0.00    +0.046 A 
ATOM      5  S   UNL     1       2.816  -2.694  -3.160  0.00  0.00    -0.101 S 
ATOM      6  C   UNL     1       2.881  -2.471  -1.402  0.00  0.00    -0.003 A 
ATOM      7  C   UNL     1       2.588  -3.468  -0.329  0.00  0.00    +0.062 C 
ATOM      8  C   UNL     1       2.389  -2.719   0.998  0.00  0.00    +0.114 C 
ATOM      9  N   UNL     1       3.430  -1.685   1.106  0.00  0.00    -0.290 N 
ATOM     10  C   UNL     1       4.364  -1.752   2.075  0.00  0.00    +0.224 C 
ATOM     11  O   UNL     1       5.170  -0.855   2.204  0.00  0.00    -0.275 OA
ENDROOT
BRANCH  10  12
ATOM     12  C   UNL     1       4.408  -2.942   2.999  0.00  0.00    +0.116 C 
ATOM     13  C   UNL     1       5.138  -4.096   2.309  0.00  0.00    +0.113 C 
ATOM     14  C   UNL     1       6.608  -3.790   2.219  0.00  0.00    +0.218 C 
ATOM     15  O   UNL     1       7.238  -4.157   1.249  0.00  0.00    -0.275 OA
ATOM     16  N   UNL     1       7.233  -3.115   3.201  0.00  0.00    -0.285 N 
ATOM     17  C   UNL     1       6.521  -2.670   4.319  0.00  0.00    +0.037 A 
ATOM     18  C   UNL     1       5.137  -2.570   4.263  0.00  0.00    -0.014 A 
ATOM     19  C   UNL     1       4.433  -2.131   5.367  0.00  0.00    +0.006 A 
ATOM     20  C   UNL     1       5.105  -1.790   6.526  0.00  0.00    +0.000 A 
ATOM     21  C   UNL     1       6.483  -1.887   6.584  0.00  0.00    +0.002 A 
ATOM     22  C   UNL     1       7.193  -2.327   5.484  0.00  0.00    +0.023 A 
ATOM     23  H   UNL     1       8.184  -2.937   3.133  0.00  0.00    +0.155 HD
ENDBRANCH  10  12
BRANCH   1  27
ATOM     24  C   UNL     1       0.210   2.093   0.974  0.00  0.00    +0.000 A 
ATOM     25  C   UNL     1       1.516   2.529   1.095  0.00  0.00    +0.000 A 
ATOM     26  C   UNL     1       2.561   1.664   0.826  0.00  0.00    +0.006 A 
ATOM     27  C   UNL     1       2.299   0.364   0.435  0.00  0.00    -0.023 A 
ATOM     28  C   UNL     1       0.992  -0.071   0.315  0.00  0.00    +0.006 A 
ATOM     29  C   UNL     1      -0.052   0.794   0.583  0.00  0.00    +0.000 A 
ENDBRANCH   1  27
TORSDOF 2
