REMARK  Name = ZINC16012961
REMARK  5 active torsions:
REMARK  status: ('A' for Active; 'I' for Inactive)
REMARK    1  A    between atoms: C_4  and  C_7
REMARK    2  A    between atoms: C_7  and  N_8
REMARK    3  A    between atoms: C_13  and  C_31
REMARK    4  A    between atoms: C_31  and  C_32
REMARK    5  A    between atoms: C_35  and  O_38
REMARK                            x       y       z     vdW  Elec       q    Type
REMARK                         _______ _______ _______ _____ _____    ______ ____
ROOT
ATOM      1  N   UNL     1       4.152  -0.952   1.338  0.00  0.00    -0.237 N 
ATOM      2  C   UNL     1       4.914  -0.089   2.018  0.00  0.00    +0.227 C 
ATOM      3  O   UNL     1       5.320   0.972   1.594  0.00  0.00    -0.275 OA
ATOM      4  C   UNL     1       5.190  -0.641   3.399  0.00  0.00    +0.107 C 
ATOM      5  C   UNL     1       6.686  -1.004   3.508  0.00  0.00    +0.072 C 
ATOM      6  N   UNL     1       6.707  -2.353   4.134  0.00  0.00    -0.295 NA
ATOM      7  C   UNL     1       5.562  -3.053   3.521  0.00  0.00    +0.136 C 
ATOM      8  C   UNL     1       4.434  -1.999   3.399  0.00  0.00    +0.122 C 
ATOM      9  C   UNL     1       3.820  -2.056   2.018  0.00  0.00    +0.229 C 
ATOM     10  O   UNL     1       3.135  -2.961   1.593  0.00  0.00    -0.275 OA
ATOM     11  C   UNL     1       5.126  -4.225   4.354  0.00  0.00    +0.006 A 
ATOM     12  C   UNL     1       4.678  -4.352   5.650  0.00  0.00    +0.046 A 
ATOM     13  C   UNL     1       4.344  -5.601   6.148  0.00  0.00    +0.124 A 
ATOM     14  C   UNL     1       4.461  -6.718   5.339  0.00  0.00    +0.040 A 
ATOM     15  C   UNL     1       4.908  -6.593   4.040  0.00  0.00    +0.026 A 
ATOM     16  C   UNL     1       5.247  -5.341   3.532  0.00  0.00    +0.039 A 
ATOM     17  N   UNL     1       5.716  -4.964   2.271  0.00  0.00    -0.283 N 
ATOM     18  C   UNL     1       5.927  -3.636   2.184  0.00  0.00    +0.243 C 
ATOM     19  O   UNL     1       6.331  -3.029   1.215  0.00  0.00    -0.273 OA
ATOM     20  F   UNL     1       3.906  -5.728   7.420  0.00  0.00    -0.205 F 
ATOM     21  H   UNL     1       7.572  -2.831   3.933  0.00  0.00    +0.124 HD
ATOM     22  H   UNL     1       5.873  -5.586   1.543  0.00  0.00    +0.155 HD
ENDROOT
BRANCH   1  23
ATOM     23  C   UNL     1       3.711  -0.707  -0.038  0.00  0.00    +0.151 C 
BRANCH  23  27
ATOM     24  C   UNL     1      -0.017   1.378   0.010  0.00  0.00    +0.000 A 
ATOM     25  C   UNL     1       1.171   2.086   0.002  0.00  0.00    +0.000 A 
ATOM     26  C   UNL     1       2.377   1.411  -0.013  0.00  0.00    +0.005 A 
ATOM     27  C   UNL     1       2.396   0.029  -0.020  0.00  0.00    -0.030 A 
ATOM     28  C   UNL     1       1.208  -0.679  -0.012  0.00  0.00    +0.005 A 
ATOM     29  C   UNL     1       0.002  -0.004   0.002  0.00  0.00    +0.000 A 
ENDBRANCH  23  27
ENDBRANCH   1  23
BRANCH   5  30
ATOM     30  C   UNL     1       7.416   0.008   4.395  0.00  0.00    +0.054 C 
BRANCH  30  31
ATOM     31  C   UNL     1       8.893  -0.293   4.389  0.00  0.00    -0.046 A 
ATOM     32  C   UNL     1       9.424  -1.158   5.327  0.00  0.00    +0.007 A 
ATOM     33  C   UNL     1      10.778  -1.435   5.325  0.00  0.00    +0.045 A 
ATOM     34  C   UNL     1      11.604  -0.844   4.380  0.00  0.00    +0.117 A 
ATOM     35  C   UNL     1      11.067   0.025   3.439  0.00  0.00    +0.045 A 
ATOM     36  C   UNL     1       9.713   0.294   3.443  0.00  0.00    +0.007 A 
BRANCH  34  37
ATOM     37  O   UNL     1      12.935  -1.114   4.375  0.00  0.00    -0.507 OA
ATOM     38  H   UNL     1      13.181  -1.871   3.827  0.00  0.00    +0.292 HD
ENDBRANCH  34  37
ENDBRANCH  30  31
ENDBRANCH   5  30
TORSDOF 5
