REMARK  Name = ZINC35649226
REMARK  7 active torsions:
REMARK  status: ('A' for Active; 'I' for Inactive)
REMARK    1  A    between atoms: C_1  and  C_2
REMARK    2  A    between atoms: C_2  and  C_3
REMARK    3  A    between atoms: C_3  and  C_19
REMARK    4  A    between atoms: N_6  and  C_10
REMARK    5  A    between atoms: C_10  and  C_11
REMARK    6  A    between atoms: C_15  and  N_18
REMARK    7  A    between atoms: C_16  and  C_17
REMARK                            x       y       z     vdW  Elec       q    Type
REMARK                         _______ _______ _______ _____ _____    ______ ____
ROOT
ATOM      1  C   UNL     1       0.697  -0.515  -1.242  0.00  0.00    +0.110 C 
ATOM      2  C   UNL     1       0.842  -2.023  -1.219  0.00  0.00    +0.247 C 
ATOM      3  O   UNL     1      -0.049  -2.845  -1.183  0.00  0.00    -0.273 OA
ATOM      4  N   UNL     1       2.168  -2.262  -1.247  0.00  0.00    -0.220 N 
ATOM      5  C   UNL     1       2.874  -1.126  -1.284  0.00  0.00    +0.310 C 
ATOM      6  O   UNL     1       4.088  -1.085  -1.315  0.00  0.00    -0.252 OA
ATOM      7  N   UNL     1       2.088  -0.033  -1.285  0.00  0.00    -0.285 N 
ATOM      8  C   UNL     1      -0.067  -0.064  -2.489  0.00  0.00    +0.041 C 
ATOM      9  H   UNL     1       2.381   0.891  -1.308  0.00  0.00    +0.151 HD
ENDROOT
BRANCH   1  11
ATOM     10  C   UNL     1      -0.041   1.508   0.026  0.00  0.00    +0.006 C 
ATOM     11  C   UNL     1      -0.005  -0.022   0.025  0.00  0.00    +0.031 C 
ENDBRANCH   1  11
BRANCH   4  12
ATOM     12  C   UNL     1       2.764  -3.600  -1.236  0.00  0.00    +0.153 C 
BRANCH  12  13
ATOM     13  C   UNL     1       2.832  -4.131  -2.645  0.00  0.00    -0.025 A 
ATOM     14  C   UNL     1       2.478  -3.318  -3.707  0.00  0.00    +0.005 A 
ATOM     15  C   UNL     1       2.538  -3.801  -5.001  0.00  0.00    +0.002 A 
ATOM     16  C   UNL     1       2.953  -5.097  -5.238  0.00  0.00    +0.023 A 
ATOM     17  C   UNL     1       3.309  -5.916  -4.174  0.00  0.00    +0.028 A 
ATOM     18  C   UNL     1       3.253  -5.426  -2.875  0.00  0.00    -0.025 A 
ATOM     19  C   UNL     1       3.644  -6.309  -1.718  0.00  0.00    +0.046 C 
BRANCH  17  20
ATOM     20  N   UNL     1       3.729  -7.227  -4.410  0.00  0.00    -0.358 N 
ATOM     21  H   UNL     1       3.772  -7.567  -5.317  0.00  0.00    +0.142 HD
ATOM     22  H   UNL     1       3.978  -7.798  -3.666  0.00  0.00    +0.142 HD
ENDBRANCH  17  20
ENDBRANCH  12  13
ENDBRANCH   4  12
TORSDOF 4
