REMARK  Name = ZINC51095167
REMARK  6 active torsions:
REMARK  status: ('A' for Active; 'I' for Inactive)
REMARK    1  A    between atoms: C_1  and  C_2
REMARK    2  A    between atoms: C_7  and  N_10
REMARK    3  A    between atoms: N_10  and  C_11
REMARK    4  A    between atoms: C_12  and  C_14
REMARK    5  A    between atoms: C_16  and  N_21
REMARK    6  A    between atoms: N_21  and  N_22
REMARK                            x       y       z     vdW  Elec       q    Type
REMARK                         _______ _______ _______ _____ _____    ______ ____
ROOT
ATOM      1  C   UNL     1       3.450  -3.582  -1.053  0.00  0.00    +0.043 A 
ATOM      2  C   UNL     1       3.329  -2.866  -2.246  0.00  0.00    +0.057 A 
ATOM      3  C   UNL     1       4.086  -3.256  -3.345  0.00  0.00    +0.134 A 
ATOM      4  N   UNL     1       4.910  -4.289  -3.266  0.00  0.00    -0.220 NA
ATOM      5  C   UNL     1       5.050  -4.987  -2.155  0.00  0.00    +0.132 A 
ATOM      6  C   UNL     1       4.338  -4.662  -1.016  0.00  0.00    +0.053 A 
ATOM      7 CL   UNL     1       6.149  -6.331  -2.122  0.00  0.00    -0.062 Cl
ENDROOT
BRANCH   1  10
ATOM      8  N   UNL     1       1.434  -2.668   0.001  0.00  0.00    -0.298 N 
ATOM      9  C   UNL     1       0.830  -2.566  -1.329  0.00  0.00    +0.132 C 
ATOM     10  C   UNL     1       2.663  -3.203   0.144  0.00  0.00    +0.247 C 
ATOM     11  O   UNL     1       3.126  -3.373   1.254  0.00  0.00    -0.270 OA
BRANCH   8  17
ATOM     12  C   UNL     1       2.763   1.006   1.792  0.00  0.00    +0.007 C 
ATOM     13  C   UNL     1       1.898  -0.000   1.029  0.00  0.00    -0.012 C 
ATOM     14  C   UNL     1       0.602   0.678   0.581  0.00  0.00    +0.003 C 
ATOM     15  C   UNL     1      -0.263  -0.328  -0.182  0.00  0.00    +0.002 C 
ATOM     16  C   UNL     1      -0.594  -1.511   0.730  0.00  0.00    +0.022 C 
ATOM     17  C   UNL     1       0.703  -2.189   1.177  0.00  0.00    +0.076 C 
ATOM     18  C   UNL     1       1.567  -1.183   1.940  0.00  0.00    +0.025 C 
ENDBRANCH   8  17
ENDBRANCH   1  10
BRANCH   3  19
ATOM     19  N   UNL     1       3.976  -2.554  -4.539  0.00  0.00    -0.267 N 
ATOM     20  H   UNL     1       3.373  -1.797  -4.603  0.00  0.00    +0.167 HD
BRANCH  19  21
ATOM     21  N   UNL     1       4.716  -2.931  -5.624  0.00  0.00    -0.255 NA
ATOM     22  H   UNL     1       4.532  -2.331  -6.414  0.00  0.00    +0.140 HD
ATOM     23  H   UNL     1       5.701  -2.944  -5.402  0.00  0.00    +0.140 HD
ENDBRANCH  19  21
ENDBRANCH   3  19
TORSDOF 4
