REMARK  Name = ZINC21809473
REMARK  6 active torsions:
REMARK  status: ('A' for Active; 'I' for Inactive)
REMARK    1  A    between atoms: C_1  and  C_2
REMARK    2  A    between atoms: C_5  and  N_9
REMARK    3  A    between atoms: C_7  and  C_8
REMARK    4  A    between atoms: C_18  and  C_19
REMARK    5  A    between atoms: C_18  and  C_20
REMARK    6  A    between atoms: N_22  and  C_23
REMARK                            x       y       z     vdW  Elec       q    Type
REMARK                         _______ _______ _______ _____ _____    ______ ____
ROOT
ATOM      1  N   UNL     1       1.394   1.824   0.089  0.00  0.00    -0.250 N 
ATOM      2  C   UNL     1       2.041   2.246  -1.023  0.00  0.00    +0.268 C 
ATOM      3  O   UNL     1       3.178   2.680  -0.979  0.00  0.00    -0.268 OA
ATOM      4  C   UNL     1       1.297   2.151  -2.284  0.00  0.00    +0.107 A 
ATOM      5  C   UNL     1       1.706   2.324  -3.573  0.00  0.00    +0.048 A 
ATOM      6  C   UNL     1       0.599   2.112  -4.386  0.00  0.00    +0.038 A 
ATOM      7  C   UNL     1      -0.518   1.816  -3.591  0.00  0.00    +0.057 A 
ATOM      8  N   UNL     1      -0.063   1.860  -2.285  0.00  0.00    -0.333 N 
ATOM      9  C   UNL     1      -0.812   1.658  -1.042  0.00  0.00    +0.158 C 
ATOM     10  C   UNL     1       0.131   1.098   0.022  0.00  0.00    +0.133 C 
ATOM     11  C   UNL     1      -0.559   1.181   1.385  0.00  0.00    +0.044 C 
ATOM     12  C   UNL     1      -1.712   1.575  -4.287  0.00  0.00    +0.034 A 
ATOM     13  C   UNL     1      -1.737   1.639  -5.635  0.00  0.00    +0.048 A 
ATOM     14  S   UNL     1      -0.048   2.051  -6.037  0.00  0.00    -0.095 S 
ENDROOT
BRANCH   1  19
ATOM     15  C   UNL     1       3.670   2.915   5.169  0.00  0.00    +0.044 C 
ATOM     16  C   UNL     1       3.065   2.625   3.820  0.00  0.00    -0.047 A 
ATOM     17  C   UNL     1       1.965   3.343   3.388  0.00  0.00    +0.005 A 
ATOM     18  C   UNL     1       1.411   3.083   2.150  0.00  0.00    +0.024 A 
ATOM     19  C   UNL     1       1.955   2.093   1.342  0.00  0.00    +0.038 A 
ATOM     20  C   UNL     1       3.060   1.374   1.778  0.00  0.00    +0.027 A 
ATOM     21  C   UNL     1       3.612   1.642   3.016  0.00  0.00    -0.046 A 
ATOM     22  C   UNL     1       4.811   0.862   3.490  0.00  0.00    +0.044 C 
ENDBRANCH   1  19
BRANCH  10  23
ATOM     23  C   UNL     1       0.416  -0.348  -0.292  0.00  0.00    +0.239 C 
ATOM     24  O   UNL     1      -0.350  -0.980  -0.988  0.00  0.00    -0.273 OA
ATOM     25  N   UNL     1       1.523  -0.939   0.201  0.00  0.00    -0.311 N 
ATOM     26  H   UNL     1       2.218  -0.366   0.832  0.00  0.00    +0.149 HD
BRANCH  25  27
ATOM     27  C   UNL     1       1.800  -2.345  -0.104  0.00  0.00    +0.073 C 
ATOM     28  C   UNL     1       1.115  -3.256   0.935  0.00  0.00    +0.022 C 
ATOM     29  C   UNL     1       2.123  -4.412   1.150  0.00  0.00    +0.002 C 
ATOM     30  C   UNL     1       3.491  -3.687   1.098  0.00  0.00    +0.002 C 
ATOM     31  C   UNL     1       3.311  -2.619  -0.000  0.00  0.00    +0.022 C 
ENDBRANCH  25  27
ENDBRANCH  10  23
TORSDOF 3
