REMARK  Name = ZINC22059845
REMARK  8 active torsions:
REMARK  status: ('A' for Active; 'I' for Inactive)
REMARK    1  A    between atoms: C_1  and  C_2
REMARK    2  A    between atoms: C_2  and  N_3
REMARK    3  A    between atoms: N_3  and  C_4
REMARK    4  A    between atoms: N_3  and  C_18
REMARK    5  A    between atoms: C_4  and  C_5
REMARK    6  A    between atoms: N_7  and  C_8
REMARK    7  A    between atoms: C_18  and  C_19
REMARK    8  A    between atoms: C_29  and  C_31
REMARK                            x       y       z     vdW  Elec       q    Type
REMARK                         _______ _______ _______ _____ _____    ______ ____
ROOT
ATOM      1  N   UNL     1      -8.005   0.477  -1.134  0.00  0.00    +0.391 N 
ATOM      2  H   UNL     1      -7.527   1.103  -0.366  0.00  0.00    -0.080 HD
ENDROOT
BRANCH   1   4
ATOM      3  C   UNL     1      -9.321   0.539  -3.199  0.00  0.00    -0.017 C 
ATOM      4  C   UNL     1      -8.581   1.370  -2.149  0.00  0.00    -0.081 C 
ENDBRANCH   1   4
BRANCH   1   5
ATOM      5  C   UNL     1      -6.972  -0.388  -1.719  0.00  0.00    +0.020 C 
BRANCH   5   6
ATOM      6  C   UNL     1      -5.803   0.454  -2.161  0.00  0.00    +0.201 C 
ATOM      7  O   UNL     1      -5.827   1.656  -2.003  0.00  0.00    -0.278 OA
ATOM      8  N   UNL     1      -4.730  -0.130  -2.730  0.00  0.00    -0.287 N 
ATOM      9  H   UNL     1      -4.742  -1.207  -2.950  0.00  0.00    +0.155 HD
BRANCH   8  10
ATOM     10  C   UNL     1      -3.599   0.636  -3.042  0.00  0.00    +0.037 A 
ATOM     11  C   UNL     1      -2.764   0.252  -4.082  0.00  0.00    +0.027 A 
ATOM     12  C   UNL     1      -1.647   1.004  -4.387  0.00  0.00    +0.051 A 
ATOM     13  C   UNL     1      -1.357   2.149  -3.659  0.00  0.00    +0.162 A 
ATOM     14  C   UNL     1      -2.192   2.537  -2.617  0.00  0.00    +0.164 A 
ATOM     15  C   UNL     1      -3.312   1.780  -2.310  0.00  0.00    +0.072 A 
ATOM     16  O   UNL     1      -1.925   3.658  -1.892  0.00  0.00    -0.485 OA
ATOM     17  C   UNL     1      -0.596   4.182  -1.983  0.00  0.00    +0.270 C 
ATOM     18  C   UNL     1      -0.193   4.214  -3.464  0.00  0.00    +0.270 C 
ATOM     19  O   UNL     1      -0.250   2.877  -3.972  0.00  0.00    -0.485 OA
ENDBRANCH   8  10
ENDBRANCH   5   6
ENDBRANCH   1   5
BRANCH   1  20
ATOM     20  C   UNL     1      -9.052  -0.320  -0.480  0.00  0.00    +0.019 C 
BRANCH  20  21
ATOM     21  C   UNL     1      -9.862   0.566   0.432  0.00  0.00    +0.200 C 
ATOM     22  O   UNL     1      -9.646   1.758   0.467  0.00  0.00    -0.278 OA
ATOM     23  N   UNL     1     -10.826   0.032   1.207  0.00  0.00    -0.291 N 
ATOM     24  C   UNL     1     -11.027  -1.425   1.251  0.00  0.00    +0.114 C 
ATOM     25  C   UNL     1     -10.701  -1.909   2.678  0.00  0.00    +0.062 C 
ATOM     26  C   UNL     1     -11.307  -0.956   3.656  0.00  0.00    -0.003 A 
ATOM     27  C   UNL     1     -11.764   0.304   3.423  0.00  0.00    -0.012 A 
ATOM     28  C   UNL     1     -12.283   0.994   4.517  0.00  0.00    +0.013 A 
ATOM     29  C   UNL     1     -12.316   0.405   5.734  0.00  0.00    +0.046 A 
ATOM     30  S   UNL     1     -11.598  -1.193   5.389  0.00  0.00    -0.101 S 
ATOM     31  C   UNL     1     -11.695   0.896   2.016  0.00  0.00    +0.144 C 
BRANCH  31  32
ATOM     32  C   UNL     1     -11.119   2.288   2.075  0.00  0.00    +0.015 A 
ATOM     33  C   UNL     1     -11.695   3.465   1.730  0.00  0.00    +0.013 A 
ATOM     34  C   UNL     1     -10.969   4.633   1.870  0.00  0.00    +0.008 A 
ATOM     35  C   UNL     1      -9.702   4.566   2.348  0.00  0.00    +0.045 A 
ATOM     36  S   UNL     1      -9.504   2.814   2.623  0.00  0.00    -0.099 S 
ENDBRANCH  31  32
ENDBRANCH  20  21
ENDBRANCH   1  20
TORSDOF 7
