REMARK  Name = ZINC48889777
REMARK  4 active torsions:
REMARK  status: ('A' for Active; 'I' for Inactive)
REMARK    1  A    between atoms: C_1  and  C_2
REMARK    2  A    between atoms: C_2  and  C_4
REMARK    3  A    between atoms: C_2  and  N_14
REMARK    4  A    between atoms: C_15  and  C_17
REMARK                            x       y       z     vdW  Elec       q    Type
REMARK                         _______ _______ _______ _____ _____    ______ ____
ROOT
ATOM      1  C   UNL     1      -0.019   1.526   0.010  0.00  0.00    +0.033 C 
ATOM      2  C   UNL     1       0.002  -0.004   0.002  0.00  0.00    +0.100 C 
ENDROOT
BRANCH   2   3
ATOM      3  C   UNL     1       0.731  -0.503   1.223  0.00  0.00    -0.027 A 
ATOM      4  C   UNL     1       2.113  -0.515   1.249  0.00  0.00    +0.006 A 
ATOM      5  C   UNL     1       2.773  -0.976   2.369  0.00  0.00    +0.004 A 
ATOM      6  C   UNL     1       2.060  -1.428   3.472  0.00  0.00    -0.044 A 
ATOM      7  C   UNL     1       0.684  -1.412   3.448  0.00  0.00    -0.044 A 
ATOM      8  C   UNL     1       0.021  -0.945   2.320  0.00  0.00    +0.009 A 
ATOM      9  C   UNL     1      -0.153  -1.871   4.613  0.00  0.00    +0.035 C 
ATOM     10  C   UNL     1       0.678  -2.727   5.568  0.00  0.00    +0.005 C 
ATOM     11  C   UNL     1       1.964  -1.964   5.906  0.00  0.00    +0.005 C 
ATOM     12  C   UNL     1       2.845  -1.925   4.659  0.00  0.00    +0.035 C 
ENDBRANCH   2   3
BRANCH   2  13
ATOM     13  N   UNL     1       0.688  -0.476  -1.203  0.00  0.00    -0.303 N 
ATOM     14  C   UNL     1       0.006  -0.608  -2.358  0.00  0.00    +0.265 C 
ATOM     15  O   UNL     1      -1.178  -0.335  -2.400  0.00  0.00    -0.268 OA
ATOM     16  H   UNL     1       1.632  -0.695  -1.170  0.00  0.00    +0.150 HD
BRANCH  14  17
ATOM     17  C   UNL     1       0.698  -1.085  -3.574  0.00  0.00    +0.154 A 
ATOM     18  C   UNL     1       0.051  -1.236  -4.795  0.00  0.00    +0.155 A 
ATOM     19  N   UNL     1       0.807  -1.667  -5.772  0.00  0.00    -0.198 NA
ATOM     20  S   UNL     1       2.266  -1.855  -5.110  0.00  0.00    +0.116 S 
ATOM     21  N   UNL     1       1.983  -1.396  -3.589  0.00  0.00    -0.186 NA
ENDBRANCH  14  17
ENDBRANCH   2  13
TORSDOF 3
