REMARK  Name = ZINC06544685
REMARK  7 active torsions:
REMARK  status: ('A' for Active; 'I' for Inactive)
REMARK    1  A    between atoms: C_1  and  N_2
REMARK    2  A    between atoms: N_2  and  C_3
REMARK    3  A    between atoms: C_5  and  N_22
REMARK    4  A    between atoms: C_8  and  N_9
REMARK    5  A    between atoms: N_9  and  C_10
REMARK    6  A    between atoms: C_11  and  C_12
REMARK    7  A    between atoms: C_12  and  C_14
REMARK                            x       y       z     vdW  Elec       q    Type
REMARK                         _______ _______ _______ _____ _____    ______ ____
ROOT
ATOM      1  N   UNL     1       0.132   0.977  -0.720  0.00  0.00    -0.319 N 
ATOM      2  H   UNL     1       0.226  -0.095  -0.952  0.00  0.00    +0.152 HD
ENDROOT
BRANCH   1   8
ATOM      3  C   UNL     1      -2.179   0.933  -1.440  0.00  0.00    +0.050 A 
ATOM      4  C   UNL     1      -3.384   1.590  -1.646  0.00  0.00    +0.057 A 
ATOM      5  C   UNL     1      -3.497   2.935  -1.347  0.00  0.00    +0.128 A 
ATOM      6  C   UNL     1      -2.412   3.630  -0.842  0.00  0.00    +0.034 A 
ATOM      7  C   UNL     1      -1.210   2.982  -0.629  0.00  0.00    +0.027 A 
ATOM      8  C   UNL     1      -1.085   1.634  -0.931  0.00  0.00    +0.052 A 
BRANCH   3  10
ATOM      9  C   UNL     1      -3.213  -1.161  -2.275  0.00  0.00    +0.125 C 
ATOM     10  N   UNL     1      -2.063  -0.428  -1.741  0.00  0.00    -0.345 N 
ATOM     11  H   UNL     1      -1.107  -0.948  -1.576  0.00  0.00    +0.146 HD
ENDBRANCH   3  10
BRANCH   5  12
ATOM     12  N   UNL     1      -4.783   3.634  -1.568  0.00  0.00    +0.056 N 
ATOM     13  O   UNL     1      -5.739   3.025  -2.012  0.00  0.00    -0.126 OA
ATOM     14  O   UNL     1      -4.884   4.819  -1.305  0.00  0.00    -0.126 OA
ENDBRANCH   5  12
ENDBRANCH   1   8
BRANCH   1  15
ATOM     15  C   UNL     1       1.203   1.665  -0.228  0.00  0.00    +0.076 C 
ATOM     16  C   UNL     1       2.341   1.008   0.093  0.00  0.00    +0.066 C 
BRANCH  16  17
ATOM     17  C   UNL     1       2.365  -0.404   0.091  0.00  0.00    +0.187 C 
ATOM     18  O   UNL     1       1.335  -1.030  -0.085  0.00  0.00    -0.287 OA
BRANCH  17  19
ATOM     19  C   UNL     1       3.640  -1.123   0.304  0.00  0.00    +0.023 A 
ATOM     20  C   UNL     1       3.667  -2.518   0.302  0.00  0.00    +0.013 A 
ATOM     21  C   UNL     1       4.859  -3.183   0.501  0.00  0.00    +0.022 A 
ATOM     22  C   UNL     1       6.028  -2.469   0.702  0.00  0.00    +0.059 A 
ATOM     23  C   UNL     1       6.009  -1.083   0.704  0.00  0.00    +0.060 A 
ATOM     24  C   UNL     1       4.823  -0.407   0.500  0.00  0.00    +0.033 A 
ATOM     25 CL   UNL     1       7.480  -0.197   0.956  0.00  0.00    -0.082 Cl
ATOM     26 CL   UNL     1       7.524  -3.314   0.952  0.00  0.00    -0.082 Cl
ENDBRANCH  17  19
ENDBRANCH  16  17
ENDBRANCH   1  15
TORSDOF 6
