REMARK  Name = ZINC23541293
REMARK  10 active torsions:
REMARK  status: ('A' for Active; 'I' for Inactive)
REMARK    1  A    between atoms: C_1  and  C_2
REMARK    2  A    between atoms: C_2  and  C_3
REMARK    3  A    between atoms: C_10  and  C_12
REMARK    4  A    between atoms: C_15  and  S_18
REMARK    5  A    between atoms: N_16  and  C_17
REMARK    6  A    between atoms: S_18  and  C_19
REMARK    7  A    between atoms: C_19  and  C_20
REMARK    8  A    between atoms: N_22  and  C_23
REMARK    9  A    between atoms: C_28  and  C_29
REMARK   10  A    between atoms: C_29  and  C_31
REMARK                            x       y       z     vdW  Elec       q    Type
REMARK                         _______ _______ _______ _____ _____    ______ ____
ROOT
ATOM      1  S   UNL     1       1.897   3.416   0.005  0.00  0.00    -0.077 S 
ENDROOT
BRANCH   1   5
ATOM      2  C   UNL     1       0.001  -0.002  -0.029  0.00  0.00    +0.171 A 
ATOM      3  N   UNL     1       1.263  -0.370  -0.052  0.00  0.00    -0.128 NA
ATOM      4  N   UNL     1       2.022   0.667  -0.044  0.00  0.00    -0.122 NA
ATOM      5  C   UNL     1       1.294   1.760  -0.015  0.00  0.00    +0.192 A 
ATOM      6  N   UNL     1      -0.018   1.375  -0.004  0.00  0.00    -0.305 N 
ATOM      7  C   UNL     1      -1.196   2.244   0.022  0.00  0.00    +0.153 C 
BRANCH   2  14
ATOM      8  C   UNL     1      -3.943  -4.859   0.027  0.00  0.00    -0.007 C 
ATOM      9  C   UNL     1      -5.096  -3.963  -0.434  0.00  0.00    +0.009 C 
ATOM     10  C   UNL     1      -4.959  -2.593   0.247  0.00  0.00    +0.043 C 
ATOM     11  C   UNL     1      -3.543  -2.137   0.103  0.00  0.00    -0.006 A 
ATOM     12  C   UNL     1      -2.463  -2.886  -0.262  0.00  0.00    -0.036 A 
ATOM     13  C   UNL     1      -1.240  -2.228  -0.326  0.00  0.00    +0.023 A 
ATOM     14  C   UNL     1      -1.171  -0.893  -0.028  0.00  0.00    +0.057 A 
ATOM     15  S   UNL     1      -2.872  -0.518   0.368  0.00  0.00    -0.090 S 
ATOM     16  C   UNL     1      -2.626  -4.370  -0.576  0.00  0.00    +0.039 C 
BRANCH   8  18
ATOM     17  C   UNL     1      -3.119  -7.215   0.138  0.00  0.00    +0.004 C 
ATOM     18  C   UNL     1      -4.205  -6.297  -0.427  0.00  0.00    +0.000 C 
ENDBRANCH   8  18
ENDBRANCH   2  14
ENDBRANCH   1   5
BRANCH   1  19
ATOM     19  C   UNL     1       3.679   3.102  -0.025  0.00  0.00    +0.173 C 
BRANCH  19  20
ATOM     20  C   UNL     1       4.420   4.414  -0.012  0.00  0.00    +0.228 C 
ATOM     21  O   UNL     1       3.804   5.459   0.014  0.00  0.00    -0.275 OA
ATOM     22  N   UNL     1       5.768   4.427  -0.030  0.00  0.00    -0.284 N 
ATOM     23  H   UNL     1       6.328   3.483   0.039  0.00  0.00    +0.155 HD
BRANCH  22  24
ATOM     24  C   UNL     1       6.452   5.636  -0.135  0.00  0.00    +0.048 A 
ATOM     25  C   UNL     1       5.842   6.730  -0.728  0.00  0.00    +0.073 A 
ATOM     26  C   UNL     1       6.521   7.934  -0.834  0.00  0.00    +0.168 A 
ATOM     27  C   UNL     1       7.825   8.052  -0.343  0.00  0.00    +0.167 A 
ATOM     28  C   UNL     1       8.443   6.972   0.248  0.00  0.00    +0.062 A 
ATOM     29  C   UNL     1       7.761   5.753   0.365  0.00  0.00    +0.042 A 
ATOM     30  O   UNL     1       8.260   9.328  -0.570  0.00  0.00    -0.453 OA
ATOM     31  C   UNL     1       7.370   9.865  -1.566  0.00  0.00    +0.466 C 
ATOM     32  O   UNL     1       6.146   9.133  -1.364  0.00  0.00    -0.453 OA
BRANCH  29  33
ATOM     33  C   UNL     1       8.411   4.604   1.000  0.00  0.00    +0.162 C 
ATOM     34  O   UNL     1       7.854   3.526   1.019  0.00  0.00    -0.292 OA
ATOM     35  C   UNL     1       9.772   4.760   1.629  0.00  0.00    +0.091 C 
ENDBRANCH  29  33
ENDBRANCH  22  24
ENDBRANCH  19  20
ENDBRANCH   1  19
TORSDOF 7
