REMARK  Name = ZINC62779666
REMARK  5 active torsions:
REMARK  status: ('A' for Active; 'I' for Inactive)
REMARK    1  A    between atoms: C_6  and  C_7
REMARK    2  A    between atoms: N_9  and  C_10
REMARK    3  A    between atoms: C_10  and  C_12
REMARK    4  A    between atoms: C_10  and  C_18
REMARK    5  A    between atoms: N_19  and  O_20
REMARK                            x       y       z     vdW  Elec       q    Type
REMARK                         _______ _______ _______ _____ _____    ______ ____
ROOT
ATOM      1  C   UNL     1      -2.167  -3.124   0.007  0.00  0.00    +0.143 C 
ENDROOT
BRANCH   1   2
ATOM      2  C   UNL     1      -1.787  -4.469  -0.613  0.00  0.00    +0.017 C 
ATOM      3  C   UNL     1      -1.320  -4.253  -2.054  0.00  0.00    +0.006 C 
ATOM      4  C   UNL     1      -0.940  -5.598  -2.675  0.00  0.00    +0.000 C 
ATOM      5  C   UNL     1      -2.157  -6.526  -2.667  0.00  0.00    +0.000 C 
ATOM      6  C   UNL     1      -2.624  -6.742  -1.227  0.00  0.00    +0.000 C 
ATOM      7  C   UNL     1      -3.004  -5.396  -0.606  0.00  0.00    +0.006 C 
ENDBRANCH   1   2
BRANCH   1   8
ATOM      8  C   UNL     1      -2.627  -3.337   1.426  0.00  0.00    +0.152 C 
ATOM      9  N   UNL     1      -1.762  -3.394   2.384  0.00  0.00    -0.075 NA
ATOM     10  N   UNL     1      -3.970  -3.471   1.702  0.00  0.00    -0.342 N 
ATOM     11  H   UNL     1      -4.620  -3.428   0.983  0.00  0.00    +0.144 HD
ATOM     12  H   UNL     1      -4.266  -3.609   2.615  0.00  0.00    +0.144 HD
BRANCH   9  13
ATOM     13  O   UNL     1      -2.195  -3.595   3.718  0.00  0.00    -0.408 OA
ATOM     14  H   UNL     1      -1.476  -3.624   4.364  0.00  0.00    +0.328 HD
ENDBRANCH   9  13
ENDBRANCH   1   8
BRANCH   1  17
ATOM     15  C   UNL     1      -1.173  -0.899   0.009  0.00  0.00    +0.265 C 
ATOM     16  O   UNL     1      -2.294  -0.430   0.023  0.00  0.00    -0.268 OA
ATOM     17  N   UNL     1      -1.002  -2.236   0.000  0.00  0.00    -0.300 N 
ATOM     18  H   UNL     1      -0.107  -2.610  -0.011  0.00  0.00    +0.150 HD
BRANCH  15  24
ATOM     19  C   UNL     1      -0.017   1.411   0.010  0.00  0.00    +0.054 A 
ATOM     20  C   UNL     1       1.282   1.790  -0.001  0.00  0.00    +0.105 A 
ATOM     21  N   UNL     1       2.028   0.664  -0.014  0.00  0.00    -0.284 N 
ATOM     22  H   UNL     1       2.997   0.641  -0.023  0.00  0.00    +0.188 HD
ATOM     23  N   UNL     1       1.268  -0.371  -0.012  0.00  0.00    -0.169 NA
ATOM     24  C   UNL     1       0.002  -0.004   0.002  0.00  0.00    +0.147 A 
ENDBRANCH  15  24
ENDBRANCH   1  17
TORSDOF 5
