REMARK  Name = ZINC62606390
REMARK  7 active torsions:
REMARK  status: ('A' for Active; 'I' for Inactive)
REMARK    1  A    between atoms: C_1  and  C_2
REMARK    2  A    between atoms: C_2  and  C_3
REMARK    3  A    between atoms: C_3  and  N_4
REMARK    4  A    between atoms: N_16  and  C_19
REMARK    5  A    between atoms: C_19  and  N_20
REMARK    6  A    between atoms: N_20  and  C_21
REMARK    7  A    between atoms: C_21  and  C_25
REMARK                            x       y       z     vdW  Elec       q    Type
REMARK                         _______ _______ _______ _____ _____    ______ ____
ROOT
ATOM      1  N   UNL     1       0.223  -1.612  -0.818  0.00  0.00    -0.277 N 
ATOM      2  C   UNL     1       1.080  -2.238   0.014  0.00  0.00    +0.263 A 
ATOM      3  O   UNL     1       1.985  -1.623   0.545  0.00  0.00    -0.267 OA
ATOM      4  C   UNL     1       0.903  -3.679   0.270  0.00  0.00    +0.064 A 
ATOM      5  C   UNL     1       1.762  -4.372   1.121  0.00  0.00    +0.015 A 
ATOM      6  C   UNL     1       1.565  -5.720   1.337  0.00  0.00    +0.001 A 
ATOM      7  C   UNL     1       0.522  -6.385   0.713  0.00  0.00    +0.002 A 
ATOM      8  C   UNL     1      -0.335  -5.709  -0.134  0.00  0.00    +0.027 A 
ATOM      9  C   UNL     1      -0.152  -4.354  -0.362  0.00  0.00    +0.064 A 
ATOM     10  N   UNL     1      -1.004  -3.649  -1.210  0.00  0.00    -0.257 N 
ATOM     11  C   UNL     1      -0.817  -2.302  -1.426  0.00  0.00    +0.238 A 
ATOM     12  N   UNL     1      -1.742  -1.884  -2.247  0.00  0.00    -0.133 NA
ATOM     13  N   UNL     1      -2.559  -2.973  -2.576  0.00  0.00    -0.256 N 
ATOM     14  C   UNL     1      -2.074  -4.051  -1.927  0.00  0.00    +0.182 A 
ATOM     15  S   UNL     1      -2.712  -5.638  -1.988  0.00  0.00    -0.011 S 
ENDROOT
BRANCH   1  16
ATOM     16  C   UNL     1       0.389  -0.180  -1.079  0.00  0.00    +0.128 C 
BRANCH  16  18
ATOM     17  C   UNL     1      -0.238   2.117  -0.323  0.00  0.00    +0.005 C 
ATOM     18  C   UNL     1      -0.410   0.622  -0.050  0.00  0.00    +0.018 C 
ENDBRANCH  16  18
ENDBRANCH   1  16
BRANCH  13  19
ATOM     19  C   UNL     1      -3.719  -2.947  -3.470  0.00  0.00    +0.069 C 
BRANCH  19  20
ATOM     20  N   UNL     1      -3.262  -2.871  -4.864  0.00  0.00    +0.398 N 
ATOM     21  H   UNL     1      -2.792  -1.991  -5.016  0.00  0.00    -0.082 HD
ATOM     22  H   UNL     1      -2.623  -3.630  -5.050  0.00  0.00    -0.082 HD
BRANCH  20  23
ATOM     23  C   UNL     1      -4.418  -2.972  -5.765  0.00  0.00    -0.040 C 
ATOM     24  C   UNL     1      -4.210  -2.265  -7.115  0.00  0.00    -0.008 C 
ATOM     25  C   UNL     1      -4.772  -0.998  -6.449  0.00  0.00    -0.002 C 
ATOM     26  C   UNL     1      -5.514  -1.933  -5.479  0.00  0.00    -0.008 C 
BRANCH  23  27
ATOM     27  C   UNL     1      -4.939  -4.380  -5.892  0.00  0.00    -0.057 A 
ATOM     28  C   UNL     1      -4.298  -5.416  -5.238  0.00  0.00    +0.002 A 
ATOM     29  C   UNL     1      -4.776  -6.708  -5.355  0.00  0.00    +0.001 A 
ATOM     30  C   UNL     1      -5.895  -6.965  -6.125  0.00  0.00    +0.015 A 
ATOM     31  C   UNL     1      -6.536  -5.928  -6.779  0.00  0.00    +0.018 A 
ATOM     32  C   UNL     1      -6.061  -4.635  -6.658  0.00  0.00    +0.017 A 
ATOM     33 BR   UNL     1      -8.066  -6.279  -7.834  0.00  0.00    -0.050 Br
ENDBRANCH  23  27
ENDBRANCH  20  23
ENDBRANCH  19  20
ENDBRANCH  13  19
TORSDOF 6
