REMARK  Name = ZINC40987547
REMARK  9 active torsions:
REMARK  status: ('A' for Active; 'I' for Inactive)
REMARK    1  A    between atoms: C_1  and  C_2
REMARK    2  A    between atoms: C_2  and  O_3
REMARK    3  A    between atoms: O_3  and  C_4
REMARK    4  A    between atoms: C_4  and  C_6
REMARK    5  A    between atoms: C_7  and  C_31
REMARK    6  A    between atoms: C_10  and  N_11
REMARK    7  A    between atoms: C_12  and  C_14
REMARK    8  A    between atoms: N_17  and  C_19
REMARK    9  A    between atoms: C_34  and  C_37
REMARK                            x       y       z     vdW  Elec       q    Type
REMARK                         _______ _______ _______ _____ _____    ______ ____
ROOT
ATOM      1  N   UNL     1      -3.042  -2.526   2.494  0.00  0.00    -0.274 N 
ATOM      2  C   UNL     1      -3.820  -2.871   3.539  0.00  0.00    +0.269 C 
ATOM      3  O   UNL     1      -4.923  -3.343   3.346  0.00  0.00    -0.268 OA
ATOM      4  H   UNL     1      -2.162  -2.149   2.648  0.00  0.00    +0.156 HD
ENDROOT
BRANCH   2   5
ATOM      5  C   UNL     1      -3.332  -2.675   4.919  0.00  0.00    +0.151 A 
ATOM      6  C   UNL     1      -4.018  -2.987   6.104  0.00  0.00    +0.006 A 
ATOM      7  C   UNL     1      -3.190  -2.637   7.118  0.00  0.00    +0.044 A 
ATOM      8  N   UNL     1      -2.070  -2.144   6.564  0.00  0.00    -0.263 N 
ATOM      9  N   UNL     1      -2.162  -2.176   5.279  0.00  0.00    -0.166 NA
ATOM     10  C   UNL     1      -3.532  -2.797   8.577  0.00  0.00    +0.055 C 
ATOM     11  C   UNL     1      -5.048  -3.002   8.697  0.00  0.00    +0.006 C 
ATOM     12  C   UNL     1      -5.497  -4.100   7.729  0.00  0.00    +0.005 C 
ATOM     13  C   UNL     1      -5.385  -3.588   6.287  0.00  0.00    +0.039 C 
BRANCH   8  14
ATOM     14  C   UNL     1      -0.911  -1.649   7.311  0.00  0.00    +0.130 C 
ATOM     15  C   UNL     1       0.333  -2.467   6.926  0.00  0.00    +0.051 C 
ATOM     16  C   UNL     1       1.587  -1.733   7.480  0.00  0.00    +0.168 C 
ATOM     17  S   UNL     1       1.142   0.017   7.114  0.00  0.00    -0.029 S 
ATOM     18  O   UNL     1       1.446   0.818   8.248  0.00  0.00    -0.174 OA
ATOM     19  O   UNL     1       1.671   0.373   5.845  0.00  0.00    -0.174 OA
ATOM     20  C   UNL     1      -0.683  -0.155   6.975  0.00  0.00    +0.192 C 
ENDBRANCH   8  14
ENDBRANCH   2   5
BRANCH   1  25
ATOM     21  C   UNL     1      -2.841  -2.416   0.016  0.00  0.00    +0.095 A 
ATOM     22  C   UNL     1      -3.552  -2.716  -1.214  0.00  0.00    +0.005 A 
ATOM     23  C   UNL     1      -4.791  -3.249  -1.056  0.00  0.00    +0.056 A 
ATOM     24  S   UNL     1      -4.976  -3.337   0.712  0.00  0.00    -0.080 S 
ATOM     25  C   UNL     1      -3.499  -2.710   1.200  0.00  0.00    +0.087 A 
BRANCH  22  26
ATOM     26  C   UNL     1      -2.966  -2.457  -2.551  0.00  0.00    -0.017 A 
ATOM     27  C   UNL     1      -2.407  -1.213  -2.841  0.00  0.00    +0.009 A 
ATOM     28  C   UNL     1      -1.863  -0.978  -4.087  0.00  0.00    +0.004 A 
ATOM     29  C   UNL     1      -1.871  -1.974  -5.047  0.00  0.00    -0.050 A 
ATOM     30  C   UNL     1      -2.425  -3.210  -4.765  0.00  0.00    +0.004 A 
ATOM     31  C   UNL     1      -2.967  -3.458  -3.521  0.00  0.00    +0.009 A 
ATOM     32  C   UNL     1      -1.276  -1.711  -6.406  0.00  0.00    +0.044 C 
ENDBRANCH  22  26
BRANCH  21  33
ATOM     33  C   UNL     1      -1.497  -1.838   0.006  0.00  0.00    +0.342 C 
ATOM     34  O   UNL     1      -0.522  -2.566  -0.007  0.00  0.00    -0.245 OA
BRANCH  33  35
ATOM     35  O   UNL     1      -1.339  -0.499   0.012  0.00  0.00    -0.461 OA
BRANCH  35  37
ATOM     36  C   UNL     1      -0.019   1.526   0.010  0.00  0.00    +0.048 C 
ATOM     37  C   UNL     1       0.002  -0.004   0.002  0.00  0.00    +0.229 C 
ENDBRANCH  35  37
ENDBRANCH  33  35
ENDBRANCH  21  33
ENDBRANCH   1  25
TORSDOF 7
