REMARK  Name = ZINC06195748
REMARK  15 active torsions:
REMARK  status: ('A' for Active; 'I' for Inactive)
REMARK    1  A    between atoms: C_1  and  C_2
REMARK    2  A    between atoms: C_2  and  O_3
REMARK    3  A    between atoms: O_3  and  C_4
REMARK    4  A    between atoms: C_6  and  C_12
REMARK    5  A    between atoms: C_9  and  O_10
REMARK    6  A    between atoms: C_17  and  C_22
REMARK    7  A    between atoms: C_25  and  O_30
REMARK    8  A    between atoms: C_26  and  O_28
REMARK    9  A    between atoms: O_28  and  C_29
REMARK   10  A    between atoms: O_30  and  C_31
REMARK   11  A    between atoms: C_33  and  C_40
REMARK   12  A    between atoms: C_34  and  C_35
REMARK   13  A    between atoms: C_35  and  O_37
REMARK   14  A    between atoms: O_37  and  C_38
REMARK   15  A    between atoms: C_38  and  C_39
REMARK                            x       y       z     vdW  Elec       q    Type
REMARK                         _______ _______ _______ _____ _____    ______ ____
ROOT
ATOM      1  C   UNL     1      -1.274   3.388   0.301  0.00  0.00    +0.074 C 
ATOM      2  C   UNL     1      -2.530   3.975  -0.297  0.00  0.00    +0.112 C 
ATOM      3  C   UNL     1      -3.612   3.200  -0.526  0.00  0.00    +0.031 C 
ATOM      4  C   UNL     1      -4.874   3.780  -1.113  0.00  0.00    +0.060 C 
ATOM      5  C   UNL     1      -5.013   5.243  -0.694  0.00  0.00    +0.032 C 
ATOM      6  C   UNL     1      -3.772   6.008  -1.167  0.00  0.00    +0.083 C 
ATOM      7  C   UNL     1      -2.545   5.348  -0.599  0.00  0.00    +0.143 C 
ATOM      8  O   UNL     1      -1.549   6.014  -0.398  0.00  0.00    -0.297 OA
ATOM      9  N   UNL     1      -3.584   1.864  -0.227  0.00  0.00    -0.260 NA
ATOM     10  C   UNL     1      -2.394   1.207  -0.082  0.00  0.00    +0.049 C 
ATOM     11  C   UNL     1      -1.265   1.894   0.168  0.00  0.00    +0.066 C 
ATOM     12  C   UNL     1      -2.350  -0.295  -0.195  0.00  0.00    +0.066 C 
ENDROOT
BRANCH   1  15
ATOM     13  C   UNL     1      -0.067   4.855   3.567  0.00  0.00    +0.163 A 
ATOM     14  C   UNL     1      -0.138   4.512   2.226  0.00  0.00    +0.053 A 
ATOM     15  C   UNL     1      -1.197   3.756   1.761  0.00  0.00    -0.034 A 
ATOM     16  C   UNL     1      -2.183   3.331   2.632  0.00  0.00    +0.023 A 
ATOM     17  C   UNL     1      -2.116   3.666   3.972  0.00  0.00    +0.063 A 
ATOM     18  C   UNL     1      -1.059   4.428   4.444  0.00  0.00    +0.173 A 
ATOM     19 BR   UNL     1      -3.467   3.083   5.161  0.00  0.00    -0.046 Br
BRANCH  18  20
ATOM     20  O   UNL     1      -0.992   4.759   5.762  0.00  0.00    -0.503 OA
ATOM     21  H   UNL     1      -0.513   4.117   6.304  0.00  0.00    +0.292 HD
ENDBRANCH  18  20
BRANCH  13  22
ATOM     22  O   UNL     1       0.972   5.604   4.025  0.00  0.00    -0.489 OA
BRANCH  22  24
ATOM     23  C   UNL     1       3.035   6.835   3.763  0.00  0.00    +0.048 C 
ATOM     24  C   UNL     1       1.953   6.007   3.067  0.00  0.00    +0.226 C 
ENDBRANCH  22  24
ENDBRANCH  13  22
ENDBRANCH   1  15
BRANCH   5  25
ATOM     25  C   UNL     1      -6.246   5.840  -1.322  0.00  0.00    -0.040 A 
ATOM     26  C   UNL     1      -6.376   5.865  -2.698  0.00  0.00    +0.008 A 
ATOM     27  C   UNL     1      -7.505   6.412  -3.280  0.00  0.00    +0.049 A 
ATOM     28  C   UNL     1      -8.509   6.936  -2.483  0.00  0.00    +0.161 A 
ATOM     29  C   UNL     1      -8.379   6.911  -1.097  0.00  0.00    +0.162 A 
ATOM     30  C   UNL     1      -7.247   6.357  -0.521  0.00  0.00    +0.053 A 
BRANCH  29  31
ATOM     31  O   UNL     1      -9.363   7.424  -0.311  0.00  0.00    -0.491 OA
ATOM     32  C   UNL     1      -9.161   7.364   1.103  0.00  0.00    +0.277 C 
ENDBRANCH  29  31
BRANCH  28  33
ATOM     33  O   UNL     1      -9.621   7.474  -3.053  0.00  0.00    -0.491 OA
ATOM     34  C   UNL     1      -9.687   7.465  -4.480  0.00  0.00    +0.277 C 
ENDBRANCH  28  33
ENDBRANCH   5  25
BRANCH  11  35
ATOM     35  C   UNL     1      -0.044   1.193   0.305  0.00  0.00    +0.337 C 
ATOM     36  O   UNL     1       0.781   1.228  -0.589  0.00  0.00    -0.245 OA
BRANCH  35  37
ATOM     37  O   UNL     1       0.209   0.490   1.429  0.00  0.00    -0.462 OA
BRANCH  37  38
ATOM     38  C   UNL     1       1.464  -0.188   1.502  0.00  0.00    +0.229 C 
ATOM     39  C   UNL     1       1.570  -0.924   2.839  0.00  0.00    +0.048 C 
ENDBRANCH  37  38
ENDBRANCH  35  37
ENDBRANCH  11  35
TORSDOF 10
