REMARK  Name = ZINC47844181
REMARK  3 active torsions:
REMARK  status: ('A' for Active; 'I' for Inactive)
REMARK    1  A    between atoms: C_1  and  O_2
REMARK    2  A    between atoms: O_2  and  C_3
REMARK    3  A    between atoms: C_3  and  C_5
REMARK                            x       y       z     vdW  Elec       q    Type
REMARK                         _______ _______ _______ _____ _____    ______ ____
ROOT
ATOM      1  C   UNL     1      -1.244  -2.135   0.003  0.00  0.00    +0.270 C 
ATOM      2  N   UNL     1      -1.045  -2.627  -1.359  0.00  0.00    -0.317 N 
ATOM      3  C   UNL     1      -1.981  -2.463  -2.376  0.00  0.00    +0.055 A 
ATOM      4  C   UNL     1      -1.553  -2.534  -3.701  0.00  0.00    +0.025 A 
ATOM      5  C   UNL     1      -2.458  -2.392  -4.731  0.00  0.00    +0.002 A 
ATOM      6  C   UNL     1      -3.797  -2.180  -4.459  0.00  0.00    +0.002 A 
ATOM      7  C   UNL     1      -4.229  -2.102  -3.147  0.00  0.00    +0.030 A 
ATOM      8  C   UNL     1      -3.325  -2.235  -2.114  0.00  0.00    +0.126 A 
ATOM      9  S   UNL     1      -3.874  -2.095  -0.440  0.00  0.00    +0.062 S 
ATOM     10  O   UNL     1      -4.070  -0.711  -0.181  0.00  0.00    -0.153 OA
ATOM     11  O   UNL     1      -4.898  -3.063  -0.256  0.00  0.00    -0.153 OA
ATOM     12  N   UNL     1      -2.568  -2.582   0.481  0.00  0.00    -0.159 NA
ATOM     13  H   UNL     1      -0.218  -3.091  -1.564  0.00  0.00    +0.148 HD
ATOM     14  H   UNL     1      -2.670  -3.126   1.278  0.00  0.00    +0.151 HD
ENDROOT
BRANCH   1  15
ATOM     15  C   UNL     1      -1.185  -0.630   0.010  0.00  0.00    +0.344 C 
ATOM     16  O   UNL     1      -1.237  -0.018  -1.031  0.00  0.00    -0.247 OA
BRANCH  15  18
ATOM     17  C   UNL     1      -1.026   1.458   1.105  0.00  0.00    +0.280 C 
ATOM     18  O   UNL     1      -1.076   0.032   1.173  0.00  0.00    -0.466 OA
ENDBRANCH  15  18
ENDBRANCH   1  15
TORSDOF 2
