REMARK  Name = ZINC37326532
REMARK  3 active torsions:
REMARK  status: ('A' for Active; 'I' for Inactive)
REMARK    1  A    between atoms: C_4  and  C_7
REMARK    2  A    between atoms: C_7  and  C_8
REMARK    3  A    between atoms: C_10  and  C_13
REMARK                            x       y       z     vdW  Elec       q    Type
REMARK                         _______ _______ _______ _____ _____    ______ ____
ROOT
ATOM      1  C   UNL     1       4.164  -0.959   1.377  0.00  0.00    +0.176 A 
ATOM      2  N   UNL     1       4.924  -0.138   2.105  0.00  0.00    -0.191 NA
ATOM      3  C   UNL     1       5.135  -0.656   3.294  0.00  0.00    +0.261 A 
ATOM      4  O   UNL     1       4.503  -1.842   3.349  0.00  0.00    -0.333 OA
ATOM      5  N   UNL     1       3.873  -2.012   2.088  0.00  0.00    -0.061 NA
ENDROOT
BRANCH   3   6
ATOM      6  C   UNL     1       5.928  -0.045   4.380  0.00  0.00    +0.071 C 
ATOM      7  C   UNL     1       6.067  -0.677   5.530  0.00  0.00    -0.041 C 
ATOM      8  C   UNL     1       7.152  -0.101   6.453  0.00  0.00    +0.079 C 
ATOM      9  S   UNL     1       7.467   1.530   5.697  0.00  0.00    -0.098 S 
ATOM     10  C   UNL     1       6.571   1.273   4.172  0.00  0.00    +0.101 C 
ATOM     11  N   UNL     1       6.499   2.055   3.131  0.00  0.00    -0.292 NA
ATOM     12  C   UNL     1       6.400   0.002   7.789  0.00  0.00    +0.019 C 
ATOM     13  C   UNL     1       5.659  -1.362   7.843  0.00  0.00    +0.006 C 
ATOM     14  C   UNL     1       5.538  -1.832   6.376  0.00  0.00    +0.033 C 
ATOM     15  H   UNL     1       6.975   2.901   3.127  0.00  0.00    +0.187 HD
ENDBRANCH   3   6
BRANCH   1  16
ATOM     16  C   UNL     1       3.711  -0.707  -0.038  0.00  0.00    +0.114 C 
BRANCH  16  20
ATOM     17  C   UNL     1      -0.017   1.378   0.010  0.00  0.00    +0.000 A 
ATOM     18  C   UNL     1       1.171   2.086   0.002  0.00  0.00    +0.000 A 
ATOM     19  C   UNL     1       2.377   1.411  -0.013  0.00  0.00    +0.004 A 
ATOM     20  C   UNL     1       2.396   0.029  -0.020  0.00  0.00    -0.040 A 
ATOM     21  C   UNL     1       1.208  -0.679  -0.012  0.00  0.00    +0.004 A 
ATOM     22  C   UNL     1       0.002  -0.004   0.002  0.00  0.00    +0.000 A 
ENDBRANCH  16  20
ENDBRANCH   1  16
TORSDOF 3
