REMARK  Name = ZINC51046204
REMARK  7 active torsions:
REMARK  status: ('A' for Active; 'I' for Inactive)
REMARK    1  A    between atoms: C_1  and  C_2
REMARK    2  A    between atoms: C_5  and  C_8
REMARK    3  A    between atoms: N_13  and  C_14
REMARK    4  A    between atoms: C_14  and  C_16
REMARK    5  A    between atoms: C_16  and  N_17
REMARK    6  A    between atoms: C_21  and  C_24
REMARK    7  A    between atoms: N_26  and  C_27
REMARK                            x       y       z     vdW  Elec       q    Type
REMARK                         _______ _______ _______ _____ _____    ______ ____
ROOT
ATOM      1  C   UNL     1       0.117  -8.514   1.808  0.00  0.00    +0.222 C 
ATOM      2  O   UNL     1       0.122  -8.903   0.655  0.00  0.00    -0.276 OA
ENDROOT
BRANCH   1   8
ATOM      3  C   UNL     1       0.060  -4.252  -0.021  0.00  0.00    +0.055 A 
ATOM      4  C   UNL     1       0.069  -4.954  -1.177  0.00  0.00    +0.074 A 
ATOM      5  S   UNL     1       0.091  -6.636  -0.587  0.00  0.00    -0.060 S 
ATOM      6  C   UNL     1       0.087  -6.332   1.066  0.00  0.00    +0.163 A 
ATOM      7  N   UNL     1       0.075  -4.974   1.139  0.00  0.00    -0.335 N 
ATOM      8  N   UNL     1       0.099  -7.213   2.068  0.00  0.00    -0.158 NA
ATOM      9  H   UNL     1       0.074  -4.526   1.999  0.00  0.00    +0.168 HD
BRANCH   3  14
ATOM     10  C   UNL     1      -0.018   1.503   0.010  0.00  0.00    +0.044 C 
ATOM     11  C   UNL     1       0.002  -0.004   0.002  0.00  0.00    -0.050 A 
ATOM     12  C   UNL     1       0.006  -0.686  -1.202  0.00  0.00    +0.004 A 
ATOM     13  C   UNL     1       0.024  -2.066  -1.216  0.00  0.00    +0.010 A 
ATOM     14  C   UNL     1       0.040  -2.773  -0.013  0.00  0.00    -0.001 A 
ATOM     15  C   UNL     1       0.037  -2.079   1.197  0.00  0.00    +0.010 A 
ATOM     16  C   UNL     1       0.023  -0.699   1.198  0.00  0.00    +0.004 A 
ENDBRANCH   3  14
ENDBRANCH   1   8
BRANCH   1  17
ATOM     17  C   UNL     1       0.130  -9.508   2.939  0.00  0.00    +0.021 C 
BRANCH  17  18
ATOM     18  N   UNL     1       0.149 -10.872   2.393  0.00  0.00    +0.386 N 
ATOM     19  C   UNL     1       1.403 -11.087   1.661  0.00  0.00    -0.078 C 
ATOM     20  C   UNL     1       1.392 -12.477   1.021  0.00  0.00    -0.018 C 
ATOM     21  C   UNL     1       1.251 -13.537   2.118  0.00  0.00    +0.009 C 
ATOM     22  C   UNL     1      -0.022 -13.258   2.922  0.00  0.00    +0.058 C 
ATOM     23  C   UNL     1       0.041 -11.839   3.491  0.00  0.00    -0.065 C 
ATOM     24  H   UNL     1      -0.631 -10.991   1.763  0.00  0.00    -0.081 HD
BRANCH  22  25
ATOM     25  C   UNL     1      -0.130 -14.250   4.052  0.00  0.00    +0.215 C 
ATOM     26  O   UNL     1      -0.158 -13.861   5.200  0.00  0.00    -0.276 OA
ATOM     27  N   UNL     1      -0.196 -15.570   3.786  0.00  0.00    -0.312 N 
ATOM     28  H   UNL     1      -0.173 -15.881   2.867  0.00  0.00    +0.149 HD
BRANCH  27  29
ATOM     29  C   UNL     1      -0.301 -16.534   4.884  0.00  0.00    +0.073 C 
ATOM     30  C   UNL     1       0.568 -17.791   4.806  0.00  0.00    +0.024 C 
ATOM     31  C   UNL     1      -0.942 -17.889   4.575  0.00  0.00    +0.024 C 
ENDBRANCH  27  29
ENDBRANCH  22  25
ENDBRANCH  17  18
ENDBRANCH   1  17
TORSDOF 6
