REMARK  Name = ZINC34732259
REMARK  8 active torsions:
REMARK  status: ('A' for Active; 'I' for Inactive)
REMARK    1  A    between atoms: C_1  and  C_2
REMARK    2  A    between atoms: C_2  and  C_3
REMARK    3  A    between atoms: C_4  and  C_35
REMARK    4  A    between atoms: N_11  and  C_21
REMARK    5  A    between atoms: N_14  and  C_17
REMARK    6  A    between atoms: C_17  and  C_18
REMARK    7  A    between atoms: C_21  and  C_22
REMARK    8  A    between atoms: N_24  and  C_25
REMARK                            x       y       z     vdW  Elec       q    Type
REMARK                         _______ _______ _______ _____ _____    ______ ____
ROOT
ATOM      1  C   UNL     1      -1.422  -0.554   0.033  0.00  0.00    -0.040 C 
ATOM      2  C   UNL     1      -2.095  -0.904  -1.048  0.00  0.00    -0.064 C 
ATOM      3  C   UNL     1      -3.465  -1.362  -0.601  0.00  0.00    +0.073 C 
ATOM      4  C   UNL     1      -3.451  -1.213   0.890  0.00  0.00    +0.004 A 
ATOM      5  C   UNL     1      -2.235  -0.739   1.268  0.00  0.00    +0.003 A 
ATOM      6  C   UNL     1      -2.037  -0.535   2.720  0.00  0.00    +0.078 A 
ATOM      7  C   UNL     1      -0.834  -0.032   3.414  0.00  0.00    +0.266 A 
ATOM      8  O   UNL     1       0.161   0.275   2.782  0.00  0.00    -0.267 OA
ATOM      9  N   UNL     1      -0.852   0.084   4.754  0.00  0.00    -0.251 N 
ATOM     10  C   UNL     1      -1.933  -0.245   5.481  0.00  0.00    +0.334 A 
ATOM     11  O   UNL     1      -1.898  -0.123   6.690  0.00  0.00    -0.246 OA
ATOM     12  N   UNL     1      -3.055  -0.709   4.895  0.00  0.00    -0.278 N 
ATOM     13  C   UNL     1      -3.116  -0.855   3.537  0.00  0.00    +0.098 A 
ATOM     14  S   UNL     1      -4.362  -1.401   2.399  0.00  0.00    -0.074 S 
ATOM     15  C   UNL     1      -1.590  -0.855  -2.467  0.00  0.00    +0.039 C 
ENDROOT
BRANCH   1  17
ATOM     16  C   UNL     1      -0.022   1.492   0.018  0.00  0.00    +0.009 C 
ATOM     17  C   UNL     1      -0.007  -0.037   0.019  0.00  0.00    +0.032 C 
ENDBRANCH   1  17
BRANCH  12  18
ATOM     18  C   UNL     1      -4.215  -1.059   5.718  0.00  0.00    +0.222 C 
BRANCH  18  19
ATOM     19  C   UNL     1      -5.099   0.151   5.880  0.00  0.00    +0.230 C 
ATOM     20  O   UNL     1      -4.790   1.202   5.359  0.00  0.00    -0.274 OA
ATOM     21  N   UNL     1      -6.232   0.065   6.604  0.00  0.00    -0.328 N 
ATOM     22  H   UNL     1      -6.479  -0.775   7.021  0.00  0.00    +0.145 HD
ATOM     23  H   UNL     1      -6.801   0.844   6.709  0.00  0.00    +0.145 HD
ENDBRANCH  18  19
ENDBRANCH  12  18
BRANCH   9  24
ATOM     24  C   UNL     1       0.342   0.583   5.441  0.00  0.00    +0.226 C 
BRANCH  24  25
ATOM     25  C   UNL     1       0.265   2.084   5.556  0.00  0.00    +0.237 C 
ATOM     26  O   UNL     1      -0.693   2.678   5.108  0.00  0.00    -0.274 OA
ATOM     27  N   UNL     1       1.260   2.766   6.156  0.00  0.00    -0.283 N 
ATOM     28  H   UNL     1       1.994   2.287   6.573  0.00  0.00    +0.155 HD
BRANCH  27  29
ATOM     29  C   UNL     1       1.236   4.162   6.179  0.00  0.00    +0.041 A 
ATOM     30  C   UNL     1       0.037   4.834   6.282  0.00  0.00    +0.024 A 
ATOM     31  C   UNL     1       0.001   6.225   6.306  0.00  0.00    +0.002 A 
ATOM     32  C   UNL     1       1.145   6.959   6.228  0.00  0.00    +0.008 A 
ATOM     33  C   UNL     1       2.388   6.312   6.123  0.00  0.00    -0.016 A 
ATOM     34  C   UNL     1       2.438   4.897   6.103  0.00  0.00    +0.003 A 
ATOM     35  C   UNL     1       3.680   4.252   6.001  0.00  0.00    +0.010 A 
ATOM     36  C   UNL     1       4.820   4.993   5.929  0.00  0.00    +0.001 A 
ATOM     37  C   UNL     1       4.773   6.385   5.954  0.00  0.00    +0.001 A 
ATOM     38  C   UNL     1       3.585   7.044   6.040  0.00  0.00    +0.008 A 
ENDBRANCH  27  29
ENDBRANCH  24  25
ENDBRANCH   9  24
TORSDOF 6
