REMARK  Name = ZINC53627424
REMARK  7 active torsions:
REMARK  status: ('A' for Active; 'I' for Inactive)
REMARK    1  A    between atoms: C_1  and  C_2
REMARK    2  A    between atoms: C_13  and  C_15
REMARK    3  A    between atoms: C_15  and  C_16
REMARK    4  A    between atoms: C_16  and  C_17
REMARK    5  A    between atoms: N_19  and  C_20
REMARK    6  A    between atoms: C_20  and  C_21
REMARK    7  A    between atoms: C_21  and  C_22
REMARK                            x       y       z     vdW  Elec       q    Type
REMARK                         _______ _______ _______ _____ _____    ______ ____
ROOT
ATOM      1  C   UNL     1      -0.019   1.526   0.010  0.00  0.00    +0.013 C 
ATOM      2  C   UNL     1       0.002  -0.004   0.002  0.00  0.00    +0.033 C 
ATOM      3  C   UNL     1      -1.414  -0.524   0.009  0.00  0.00    -0.001 A 
ATOM      4  C   UNL     1      -2.346   0.128  -0.756  0.00  0.00    +0.019 A 
ATOM      5  C   UNL     1      -3.665  -0.318  -0.789  0.00  0.00    +0.024 A 
ATOM      6  C   UNL     1      -4.045  -1.443  -0.035  0.00  0.00    +0.139 A 
ATOM      7  C   UNL     1      -3.092  -2.092   0.736  0.00  0.00    +0.093 A 
ATOM      8  C   UNL     1      -1.783  -1.633   0.759  0.00  0.00    +0.139 A 
ATOM      9  O   UNL     1      -0.888  -2.295   1.545  0.00  0.00    -0.425 OA
ATOM     10  C   UNL     1       0.415  -1.979   1.408  0.00  0.00    +0.316 C 
ATOM     11  O   UNL     1       1.276  -2.826   1.418  0.00  0.00    -0.250 OA
ATOM     12  C   UNL     1       0.747  -0.510   1.241  0.00  0.00    +0.106 C 
ATOM     13  O   UNL     1      -5.360  -1.649  -0.253  0.00  0.00    -0.459 OA
ATOM     14  C   UNL     1      -5.857  -0.731  -1.098  0.00  0.00    +0.109 A 
ATOM     15  C   UNL     1      -4.883   0.116  -1.471  0.00  0.00    +0.001 A 
ATOM     16  C   UNL     1      -5.063   1.275  -2.414  0.00  0.00    +0.039 C 
ATOM     17  C   UNL     1      -6.383   1.084  -3.172  0.00  0.00    +0.005 C 
ATOM     18  C   UNL     1      -7.499   0.772  -2.171  0.00  0.00    +0.008 C 
ATOM     19  C   UNL     1      -7.285  -0.627  -1.584  0.00  0.00    +0.075 C 
ENDROOT
BRANCH  12  20
ATOM     20  C   UNL     1       0.290   0.271   2.476  0.00  0.00    +0.024 C 
BRANCH  20  21
ATOM     21  C   UNL     1       1.126  -0.153   3.685  0.00  0.00    +0.096 C 
BRANCH  21  22
ATOM     22  C   UNL     1       0.676   0.615   4.901  0.00  0.00    +0.213 C 
ATOM     23  O   UNL     1      -0.225   1.422   4.809  0.00  0.00    -0.276 OA
ATOM     24  N   UNL     1       1.274   0.405   6.090  0.00  0.00    -0.315 N 
ATOM     25  H   UNL     1       1.995  -0.240   6.163  0.00  0.00    +0.149 HD
BRANCH  24  26
ATOM     26  C   UNL     1       0.837   1.152   7.272  0.00  0.00    +0.110 C 
BRANCH  26  27
ATOM     27  C   UNL     1       1.673   0.728   8.481  0.00  0.00    +0.073 C 
BRANCH  27  28
ATOM     28  C   UNL     1       1.223   1.497   9.697  0.00  0.00    +0.035 A 
ATOM     29  N   UNL     1       0.318   1.081  10.636  0.00  0.00    -0.350 N 
ATOM     30  C   UNL     1       0.208   2.070  11.550  0.00  0.00    +0.171 A 
ATOM     31  N   UNL     1       0.998   3.049  11.204  0.00  0.00    -0.352 N 
ATOM     32  C   UNL     1       1.639   2.721  10.072  0.00  0.00    +0.105 A 
ATOM     33  H   UNL     1      -0.157   0.235  10.643  0.00  0.00    +0.166 HD
ATOM     34  H   UNL     1       1.108   3.881  11.691  0.00  0.00    +0.166 HD
ENDBRANCH  27  28
ENDBRANCH  26  27
ENDBRANCH  24  26
ENDBRANCH  21  22
ENDBRANCH  20  21
ENDBRANCH  12  20
TORSDOF 6
