REMARK  Name = ZINC01408243
REMARK  2 active torsions:
REMARK  status: ('A' for Active; 'I' for Inactive)
REMARK    1  A    between atoms: C_1  and  C_2
REMARK    2  A    between atoms: C_5  and  C_7
REMARK                            x       y       z     vdW  Elec       q    Type
REMARK                         _______ _______ _______ _____ _____    ______ ____
ROOT
ATOM      1  C   UNL     1       1.043  -4.062  -0.027  0.00  0.00    +0.215 C 
ATOM      2  N   UNL     1       2.229  -4.144  -0.898  0.00  0.00    -0.292 N 
ATOM      3  C   UNL     1       3.454  -3.764  -0.420  0.00  0.00    +0.183 C 
ATOM      4  N   UNL     1       3.759  -3.881   0.861  0.00  0.00    -0.183 NA
ATOM      5  C   UNL     1       2.808  -4.331   1.711  0.00  0.00    +0.236 A 
ATOM      6  N   UNL     1       1.481  -4.443   1.322  0.00  0.00    -0.285 N 
ATOM      7  C   UNL     1       0.780  -4.933   2.382  0.00  0.00    +0.072 A 
ATOM      8  C   UNL     1      -0.559  -5.260   2.562  0.00  0.00    +0.028 A 
ATOM      9  C   UNL     1      -0.930  -5.744   3.807  0.00  0.00    +0.002 A 
ATOM     10  C   UNL     1      -0.017  -5.900   4.836  0.00  0.00    +0.002 A 
ATOM     11  C   UNL     1       1.320  -5.582   4.683  0.00  0.00    +0.030 A 
ATOM     12  C   UNL     1       1.719  -5.091   3.434  0.00  0.00    +0.091 A 
ATOM     13  N   UNL     1       2.926  -4.700   2.965  0.00  0.00    -0.210 NA
ATOM     14  N   UNL     1       4.383  -3.252  -1.286  0.00  0.00    -0.331 N 
ATOM     15  H   UNL     1       4.170  -3.162  -2.228  0.00  0.00    +0.145 HD
ATOM     16  H   UNL     1       5.254  -2.980  -0.958  0.00  0.00    +0.145 HD
ATOM     17  H   UNL     1       2.141  -4.466  -1.809  0.00  0.00    +0.151 HD
ENDROOT
BRANCH   1  22
ATOM     18  C   UNL     1      -0.018   1.503   0.010  0.00  0.00    +0.051 C 
ATOM     19  C   UNL     1       0.002  -0.004   0.002  0.00  0.00    -0.013 A 
ATOM     20  C   UNL     1      -1.039  -0.872   0.002  0.00  0.00    +0.011 A 
ATOM     21  C   UNL     1      -0.780  -2.230  -0.007  0.00  0.00    +0.015 A 
ATOM     22  C   UNL     1       0.507  -2.653  -0.016  0.00  0.00    +0.031 A 
ATOM     23  S   UNL     1       1.404  -1.109  -0.018  0.00  0.00    -0.095 S 
ENDBRANCH   1  22
TORSDOF 1
