REMARK  Name = ZINC32739565
REMARK  12 active torsions:
REMARK  status: ('A' for Active; 'I' for Inactive)
REMARK    1  A    between atoms: C_1  and  C_2
REMARK    2  A    between atoms: C_2  and  C_4
REMARK    3  A    between atoms: C_2  and  N_14
REMARK    4  A    between atoms: C_15  and  C_17
REMARK    5  A    between atoms: C_17  and  S_18
REMARK    6  A    between atoms: S_18  and  C_19
REMARK    7  A    between atoms: C_22  and  C_31
REMARK    8  A    between atoms: N_23  and  C_24
REMARK    9  A    between atoms: C_31  and  C_33
REMARK   10  A    between atoms: C_31  and  N_34
REMARK   11  A    between atoms: N_34  and  C_35
REMARK   12  A    between atoms: N_34  and  C_36
REMARK                            x       y       z     vdW  Elec       q    Type
REMARK                         _______ _______ _______ _____ _____    ______ ____
ROOT
ATOM      1  S   UNL     1       3.114   2.416   4.560  0.00  0.00    -0.076 S 
ENDROOT
BRANCH   1   2
ATOM      2  C   UNL     1       3.775   1.614   5.983  0.00  0.00    +0.197 A 
ATOM      3  N   UNL     1       3.336   0.503   6.527  0.00  0.00    -0.122 NA
ATOM      4  N   UNL     1       4.052   0.204   7.551  0.00  0.00    -0.135 NA
ATOM      5  C   UNL     1       4.984   1.099   7.723  0.00  0.00    +0.125 A 
ATOM      6  N   UNL     1       4.845   2.028   6.727  0.00  0.00    -0.275 N 
BRANCH   6   7
ATOM      7  C   UNL     1       5.635   3.168   6.515  0.00  0.00    +0.050 A 
ATOM      8  C   UNL     1       6.976   3.033   6.183  0.00  0.00    +0.029 A 
ATOM      9  C   UNL     1       7.750   4.157   5.969  0.00  0.00    +0.040 A 
ATOM     10  C   UNL     1       7.192   5.418   6.097  0.00  0.00    +0.124 A 
ATOM     11  C   UNL     1       5.856   5.555   6.434  0.00  0.00    +0.040 A 
ATOM     12  C   UNL     1       5.077   4.433   6.643  0.00  0.00    +0.029 A 
ATOM     13  F   UNL     1       7.952   6.516   5.893  0.00  0.00    -0.205 F 
ENDBRANCH   6   7
BRANCH   5  14
ATOM     14  C   UNL     1       6.025   1.106   8.813  0.00  0.00    -0.003 C 
ATOM     15  C   UNL     1       7.093   0.055   8.505  0.00  0.00    -0.005 C 
BRANCH  14  16
ATOM     16  N   UNL     1       5.389   0.795  10.100  0.00  0.00    +0.382 N 
ATOM     17  C   UNL     1       4.877  -0.582  10.115  0.00  0.00    -0.096 C 
ATOM     18  C   UNL     1       6.317   1.023  11.215  0.00  0.00    -0.096 C 
ATOM     19  H   UNL     1       4.533   1.475  10.227  0.00  0.00    -0.082 HD
ENDBRANCH  14  16
ENDBRANCH   5  14
ENDBRANCH   1   2
BRANCH   1  20
ATOM     20  C   UNL     1       1.761   1.283   4.160  0.00  0.00    +0.173 C 
BRANCH  20  22
ATOM     21  N   UNL     1      -0.020   1.094   2.454  0.00  0.00    -0.308 N 
ATOM     22  C   UNL     1       1.032   1.782   2.939  0.00  0.00    +0.224 C 
ATOM     23  O   UNL     1       1.392   2.804   2.393  0.00  0.00    -0.275 OA
ATOM     24  H   UNL     1      -0.347   0.168   2.949  0.00  0.00    +0.149 HD
BRANCH  21  26
ATOM     25  C   UNL     1      -0.013   1.086   0.008  0.00  0.00    +0.033 C 
ATOM     26  C   UNL     1      -0.729   1.579   1.267  0.00  0.00    +0.100 C 
BRANCH  26  27
ATOM     27  C   UNL     1      -2.143   1.058   1.278  0.00  0.00    -0.027 A 
ATOM     28  C   UNL     1      -2.400  -0.241   1.677  0.00  0.00    +0.006 A 
ATOM     29  C   UNL     1      -3.697  -0.710   1.687  0.00  0.00    +0.004 A 
ATOM     30  C   UNL     1      -4.747   0.108   1.288  0.00  0.00    -0.044 A 
ATOM     31  C   UNL     1      -4.490   1.400   0.888  0.00  0.00    -0.044 A 
ATOM     32  C   UNL     1      -3.184   1.872   0.884  0.00  0.00    +0.009 A 
ATOM     33  C   UNL     1      -5.579   2.345   0.452  0.00  0.00    +0.035 C 
ATOM     34  C   UNL     1      -6.851   1.574   0.103  0.00  0.00    +0.005 C 
ATOM     35  C   UNL     1      -7.184   0.637   1.270  0.00  0.00    +0.005 C 
ATOM     36  C   UNL     1      -6.136  -0.474   1.309  0.00  0.00    +0.035 C 
ENDBRANCH  26  27
ENDBRANCH  21  26
ENDBRANCH  20  22
ENDBRANCH   1  20
TORSDOF 8
