REMARK  Name = ZINC35971662
REMARK  11 active torsions:
REMARK  status: ('A' for Active; 'I' for Inactive)
REMARK    1  A    between atoms: C_1  and  C_2
REMARK    2  A    between atoms: C_2  and  C_3
REMARK    3  A    between atoms: C_2  and  C_4
REMARK    4  A    between atoms: C_4  and  N_5
REMARK    5  A    between atoms: C_6  and  C_8
REMARK    6  A    between atoms: C_8  and  C_10
REMARK    7  A    between atoms: C_8  and  N_16
REMARK    8  A    between atoms: C_22  and  C_31
REMARK    9  A    between atoms: N_27  and  C_28
REMARK   10  A    between atoms: C_28  and  C_29
REMARK   11  A    between atoms: C_36  and  C_37
REMARK                            x       y       z     vdW  Elec       q    Type
REMARK                         _______ _______ _______ _____ _____    ______ ____
ROOT
ATOM      1  N   UNL     1      -5.357  -0.520  -2.313  0.00  0.00    -0.277 N 
ATOM      2  C   UNL     1      -5.840  -1.569  -3.225  0.00  0.00    +0.160 C 
ATOM      3  C   UNL     1      -7.322  -1.675  -2.945  0.00  0.00    +0.043 C 
ATOM      4  C   UNL     1      -7.592  -0.772  -1.981  0.00  0.00    +0.058 C 
ATOM      5  C   UNL     1      -6.417  -0.090  -1.605  0.00  0.00    +0.247 C 
ATOM      6  O   UNL     1      -6.368   0.777  -0.751  0.00  0.00    -0.270 OA
ATOM      7  C   UNL     1      -9.025  -0.661  -1.500  0.00  0.00    +0.142 C 
ATOM      8  N   UNL     1     -10.011  -1.556  -2.131  0.00  0.00    -0.288 N 
ATOM      9  C   UNL     1      -9.586  -2.409  -3.084  0.00  0.00    +0.307 C 
ATOM     10  O   UNL     1     -10.392  -3.151  -3.611  0.00  0.00    -0.252 OA
ATOM     11  N   UNL     1      -8.305  -2.464  -3.471  0.00  0.00    -0.253 N 
ATOM     12  H   UNL     1     -10.943  -1.533  -1.865  0.00  0.00    +0.151 HD
ENDROOT
BRANCH   7  13
ATOM     13  C   UNL     1      -9.481   0.758  -1.720  0.00  0.00    -0.011 A 
ATOM     14  C   UNL     1      -9.723   1.216  -3.001  0.00  0.00    +0.006 A 
ATOM     15  C   UNL     1     -10.141   2.518  -3.202  0.00  0.00    +0.000 A 
ATOM     16  C   UNL     1     -10.317   3.363  -2.122  0.00  0.00    +0.001 A 
ATOM     17  C   UNL     1     -10.076   2.904  -0.840  0.00  0.00    +0.013 A 
ATOM     18  C   UNL     1      -9.662   1.601  -0.639  0.00  0.00    +0.060 A 
BRANCH  18  19
ATOM     19  C   UNL     1      -9.403   1.099   0.759  0.00  0.00    +0.418 C 
ATOM     20  F   UNL     1      -9.574   2.148   1.669  0.00  0.00    -0.166 F 
ATOM     21  F   UNL     1     -10.303   0.071   1.059  0.00  0.00    -0.166 F 
ATOM     22  F   UNL     1      -8.094   0.614   0.846  0.00  0.00    -0.166 F 
ENDBRANCH  18  19
ENDBRANCH   7  13
BRANCH   1  23
ATOM     23  C   UNL     1      -3.979  -0.039  -2.194  0.00  0.00    +0.193 C 
BRANCH  23  24
ATOM     24  C   UNL     1      -3.449  -0.368  -0.822  0.00  0.00    -0.018 A 
ATOM     25  C   UNL     1      -3.793  -1.562  -0.216  0.00  0.00    +0.006 A 
ATOM     26  C   UNL     1      -3.307  -1.863   1.043  0.00  0.00    +0.000 A 
ATOM     27  C   UNL     1      -2.477  -0.971   1.695  0.00  0.00    +0.000 A 
ATOM     28  C   UNL     1      -2.132   0.223   1.088  0.00  0.00    +0.000 A 
ATOM     29  C   UNL     1      -2.615   0.522  -0.172  0.00  0.00    +0.006 A 
ENDBRANCH  23  24
BRANCH  23  31
ATOM     30  N   UNL     1      -1.808  -0.418  -3.317  0.00  0.00    -0.313 N 
ATOM     31  C   UNL     1      -3.121  -0.708  -3.237  0.00  0.00    +0.238 C 
ATOM     32  O   UNL     1      -3.613  -1.508  -4.005  0.00  0.00    -0.273 OA
ATOM     33  H   UNL     1      -1.414   0.222  -2.704  0.00  0.00    +0.149 HD
BRANCH  30  34
ATOM     34  C   UNL     1      -0.974  -1.068  -4.331  0.00  0.00    +0.107 C 
BRANCH  34  36
ATOM     35  C   UNL     1       1.046  -1.008  -2.862  0.00  0.00    +0.009 C 
ATOM     36  C   UNL     1       0.466  -0.566  -4.207  0.00  0.00    -0.000 C 
ATOM     37  C   UNL     1       1.309  -1.149  -5.343  0.00  0.00    +0.009 C 
ENDBRANCH  34  36
ENDBRANCH  30  34
ENDBRANCH  23  31
ENDBRANCH   1  23
BRANCH  11  38
ATOM     38  C   UNL     1      -7.938  -3.423  -4.516  0.00  0.00    +0.141 C 
BRANCH  38  39
ATOM     39  C   UNL     1      -7.554  -4.735  -3.882  0.00  0.00    -0.015 C 
ATOM     40  C   UNL     1      -8.157  -5.840  -4.246  0.00  0.00    +0.005 C 
ENDBRANCH  38  39
ENDBRANCH  11  38
TORSDOF 9
