REMARK  Name = ZINC06322073
REMARK  10 active torsions:
REMARK  status: ('A' for Active; 'I' for Inactive)
REMARK    1  A    between atoms: C_1  and  C_2
REMARK    2  A    between atoms: C_5  and  C_40
REMARK    3  A    between atoms: C_9  and  C_14
REMARK    4  A    between atoms: C_14  and  C_16
REMARK    5  A    between atoms: C_14  and  N_73
REMARK    6  A    between atoms: N_20  and  C_21
REMARK    7  A    between atoms: C_27  and  C_28
REMARK    8  A    between atoms: C_27  and  N_73
REMARK    9  A    between atoms: C_34  and  C_35
REMARK   10  A    between atoms: C_34  and  N_73
REMARK                            x       y       z     vdW  Elec       q    Type
REMARK                         _______ _______ _______ _____ _____    ______ ____
ROOT
ATOM      1  C   UNL     1      -0.253  -2.038   1.243  0.00  0.00    +0.040 C 
ENDROOT
BRANCH   1  10
ATOM      2  C   UNL     1      -4.827  -4.377   2.093  0.00  0.00    +0.044 C 
ATOM      3  C   UNL     1      -4.840  -3.871   0.674  0.00  0.00    -0.041 A 
ATOM      4  C   UNL     1      -5.936  -4.073  -0.116  0.00  0.00    +0.004 A 
ATOM      5  C   UNL     1      -5.959  -3.610  -1.425  0.00  0.00    +0.005 A 
ATOM      6  C   UNL     1      -4.876  -2.939  -1.952  0.00  0.00    -0.026 A 
ATOM      7  C   UNL     1      -3.749  -2.722  -1.167  0.00  0.00    +0.052 A 
ATOM      8  C   UNL     1      -3.730  -3.193   0.160  0.00  0.00    +0.002 A 
ATOM      9  C   UNL     1      -2.539  -2.959   0.979  0.00  0.00    +0.018 A 
ATOM     10  C   UNL     1      -1.494  -2.295   0.427  0.00  0.00    +0.011 A 
ATOM     11  C   UNL     1      -1.566  -1.839  -0.907  0.00  0.00    +0.251 A 
ATOM     12  O   UNL     1      -0.617  -1.239  -1.381  0.00  0.00    -0.268 OA
ATOM     13  N   UNL     1      -2.653  -2.054  -1.669  0.00  0.00    -0.322 N 
ATOM     14  H   UNL     1      -2.667  -1.730  -2.583  0.00  0.00    +0.169 HD
ATOM     15  C   UNL     1      -4.915  -2.441  -3.374  0.00  0.00    +0.046 C 
ENDBRANCH   1  10
BRANCH   1  16
ATOM     16  C   UNL     1       0.910  -2.780   0.636  0.00  0.00    +0.143 A 
ATOM     17  N   UNL     1       1.559  -2.458  -0.456  0.00  0.00    -0.115 NA
ATOM     18  N   UNL     1       2.485  -3.335  -0.642  0.00  0.00    -0.023 NA
ATOM     19  N   UNL     1       2.437  -4.212   0.299  0.00  0.00    -0.044 NA
ATOM     20  N   UNL     1       1.479  -3.905   1.106  0.00  0.00    -0.227 N 
BRANCH  20  21
ATOM     21  C   UNL     1       1.085  -4.641   2.310  0.00  0.00    +0.111 C 
ATOM     22  C   UNL     1       2.263  -4.694   3.284  0.00  0.00    +0.027 C 
ATOM     23  C   UNL     1       1.852  -5.464   4.541  0.00  0.00    +0.002 C 
ATOM     24  C   UNL     1       1.444  -6.887   4.157  0.00  0.00    +0.000 C 
ATOM     25  C   UNL     1       0.266  -6.835   3.182  0.00  0.00    +0.002 C 
ATOM     26  C   UNL     1       0.677  -6.065   1.925  0.00  0.00    +0.027 C 
ENDBRANCH  20  21
ENDBRANCH   1  16
BRANCH   1  27
ATOM     27  N   UNL     1       0.046  -0.590   1.227  0.00  0.00    +0.397 N 
ATOM     28  H   UNL     1       0.405  -0.334   0.299  0.00  0.00    -0.079 HD
BRANCH  27  29
ATOM     29  C   UNL     1      -1.184   0.183   1.496  0.00  0.00    -0.041 C 
BRANCH  29  30
ATOM     30  C   UNL     1      -0.956   1.614   1.082  0.00  0.00    -0.064 A 
ATOM     31  C   UNL     1      -0.453   2.525   1.992  0.00  0.00    +0.002 A 
ATOM     32  C   UNL     1      -0.238   3.836   1.612  0.00  0.00    +0.000 A 
ATOM     33  C   UNL     1      -0.537   4.240   0.324  0.00  0.00    +0.000 A 
ATOM     34  C   UNL     1      -1.046   3.330  -0.585  0.00  0.00    +0.000 A 
ATOM     35  C   UNL     1      -1.255   2.018  -0.206  0.00  0.00    +0.002 A 
ENDBRANCH  29  30
ENDBRANCH  27  29
BRANCH  27  36
ATOM     36  C   UNL     1       1.073  -0.276   2.243  0.00  0.00    -0.001 C 
BRANCH  36  37
ATOM     37  C   UNL     1       0.538  -0.525   3.629  0.00  0.00    +0.089 A 
ATOM     38  C   UNL     1       0.608  -1.687   4.303  0.00  0.00    +0.042 A 
ATOM     39  C   UNL     1      -0.014  -1.473   5.554  0.00  0.00    +0.041 A 
ATOM     40  C   UNL     1      -0.427  -0.193   5.571  0.00  0.00    +0.195 A 
ATOM     41  O   UNL     1      -0.085   0.378   4.404  0.00  0.00    -0.470 OA
ENDBRANCH  36  37
ENDBRANCH  27  36
ENDBRANCH   1  27
TORSDOF 8
