REMARK  Name = ZINC10053926
REMARK  8 active torsions:
REMARK  status: ('A' for Active; 'I' for Inactive)
REMARK    1  A    between atoms: C_1  and  C_2
REMARK    2  A    between atoms: C_2  and  O_3
REMARK    3  A    between atoms: O_3  and  C_4
REMARK    4  A    between atoms: C_4  and  C_6
REMARK    5  A    between atoms: C_7  and  C_20
REMARK    6  A    between atoms: C_12  and  C_14
REMARK    7  A    between atoms: C_20  and  N_63
REMARK    8  A    between atoms: C_24  and  C_26
REMARK                            x       y       z     vdW  Elec       q    Type
REMARK                         _______ _______ _______ _____ _____    ______ ____
ROOT
ATOM      1  C   UNL     1      -1.963   1.286   0.939  0.00  0.00    +0.076 C 
ATOM      2  C   UNL     1      -1.710   2.525   0.466  0.00  0.00    +0.008 C 
ATOM      3  N   UNL     1      -0.438   2.914   0.153  0.00  0.00    -0.274 N 
ATOM      4  C   UNL     1       0.632   2.119   0.275  0.00  0.00    +0.304 C 
ATOM      5  O   UNL     1       1.725   2.553  -0.034  0.00  0.00    -0.252 OA
ATOM      6  N   UNL     1       0.539   0.855   0.733  0.00  0.00    -0.288 N 
ATOM      7  C   UNL     1      -0.790   0.341   1.104  0.00  0.00    +0.143 C 
ATOM      8  H   UNL     1      -0.304   3.815  -0.179  0.00  0.00    +0.156 HD
ATOM      9  H   UNL     1       1.328   0.297   0.816  0.00  0.00    +0.151 HD
ENDROOT
BRANCH   7  10
ATOM     10  C   UNL     1      -0.737  -0.085   2.549  0.00  0.00    -0.023 A 
ATOM     11  C   UNL     1      -0.041   0.676   3.468  0.00  0.00    +0.006 A 
ATOM     12  C   UNL     1       0.004   0.288   4.795  0.00  0.00    +0.000 A 
ATOM     13  C   UNL     1      -0.638  -0.867   5.199  0.00  0.00    +0.000 A 
ATOM     14  C   UNL     1      -1.330  -1.631   4.278  0.00  0.00    +0.000 A 
ATOM     15  C   UNL     1      -1.380  -1.240   2.953  0.00  0.00    +0.006 A 
ENDBRANCH   7  10
BRANCH   1  16
ATOM     16  C   UNL     1      -3.279   0.883   1.268  0.00  0.00    +0.339 C 
ATOM     17  O   UNL     1      -4.193   1.684   1.205  0.00  0.00    -0.245 OA
BRANCH  16  18
ATOM     18  O   UNL     1      -3.519  -0.388   1.651  0.00  0.00    -0.462 OA
BRANCH  18  20
ATOM     19  C   UNL     1      -4.947  -2.197   2.379  0.00  0.00    +0.048 C 
ATOM     20  C   UNL     1      -4.871  -0.725   1.969  0.00  0.00    +0.229 C 
ENDBRANCH  18  20
ENDBRANCH  16  18
ENDBRANCH   1  16
BRANCH   2  21
ATOM     21  C   UNL     1      -2.847   3.497   0.286  0.00  0.00    -0.026 C 
BRANCH  21  26
ATOM     22  C   UNL     1      -2.681   3.634  -2.133  0.00  0.00    -0.078 C 
ATOM     23  C   UNL     1      -3.683   4.123  -3.209  0.00  0.00    -0.020 C 
ATOM     24  C   UNL     1      -4.757   4.828  -2.339  0.00  0.00    -0.013 C 
ATOM     25  C   UNL     1      -4.806   3.952  -1.070  0.00  0.00    -0.037 C 
ATOM     26  N   UNL     1      -3.531   3.216  -1.003  0.00  0.00    +0.388 N 
ATOM     27  H   UNL     1      -3.716   2.208  -1.072  0.00  0.00    -0.080 HD
BRANCH  25  28
ATOM     28  C   UNL     1      -4.983   4.820   0.149  0.00  0.00    -0.057 A 
ATOM     29  C   UNL     1      -5.994   4.545   1.052  0.00  0.00    +0.006 A 
ATOM     30  C   UNL     1      -6.157   5.336   2.173  0.00  0.00    +0.049 A 
ATOM     31  C   UNL     1      -5.312   6.415   2.391  0.00  0.00    +0.162 A 
ATOM     32  C   UNL     1      -4.297   6.692   1.482  0.00  0.00    +0.162 A 
ATOM     33  C   UNL     1      -4.137   5.892   0.361  0.00  0.00    +0.051 A 
ATOM     34  O   UNL     1      -3.452   7.741   1.681  0.00  0.00    -0.485 OA
ATOM     35  C   UNL     1      -3.874   8.740   2.616  0.00  0.00    +0.270 C 
ATOM     36  C   UNL     1      -4.396   8.032   3.874  0.00  0.00    +0.270 C 
ATOM     37  O   UNL     1      -5.491   7.192   3.494  0.00  0.00    -0.485 OA
ENDBRANCH  25  28
ENDBRANCH  21  26
ENDBRANCH   2  21
TORSDOF 7
