REMARK  Name = ZINC18009096
REMARK  5 active torsions:
REMARK  status: ('A' for Active; 'I' for Inactive)
REMARK    1  A    between atoms: C_1  and  O_2
REMARK    2  A    between atoms: O_2  and  C_3
REMARK    3  A    between atoms: C_8  and  N_9
REMARK    4  A    between atoms: N_10  and  C_11
REMARK    5  A    between atoms: C_12  and  N_19
REMARK                            x       y       z     vdW  Elec       q    Type
REMARK                         _______ _______ _______ _____ _____    ______ ____
ROOT
ATOM      1  C   UNL     1      -3.551   3.523   4.614  0.00  0.00    +0.190 A 
ATOM      2  C   UNL     1      -4.171   3.950   5.807  0.00  0.00    +0.153 A 
ATOM      3  N   UNL     1      -5.263   4.701   5.728  0.00  0.00    -0.199 NA
ATOM      4  C   UNL     1      -5.769   5.048   4.553  0.00  0.00    +0.195 A 
ATOM      5  N   UNL     1      -5.218   4.668   3.408  0.00  0.00    -0.293 N 
ATOM      6  C   UNL     1      -4.122   3.921   3.391  0.00  0.00    +0.282 A 
ATOM      7  O   UNL     1      -3.565   3.544   2.217  0.00  0.00    -0.265 OA
ATOM      8  N   UNL     1      -6.907   5.830   4.520  0.00  0.00    -0.329 N 
ATOM      9  H   UNL     1      -7.341   6.128   3.554  0.00  0.00    +0.145 HD
ATOM     10  H   UNL     1      -7.378   6.155   5.459  0.00  0.00    +0.145 HD
ATOM     11  H   UNL     1      -5.670   4.973   2.453  0.00  0.00    +0.172 HD
ENDROOT
BRANCH   2  12
ATOM     12  N   UNL     1      -3.651   3.593   7.036  0.00  0.00    -0.341 N 
ATOM     13  H   UNL     1      -4.143   3.932   7.960  0.00  0.00    +0.144 HD
ATOM     14  H   UNL     1      -2.746   2.970   7.091  0.00  0.00    +0.144 HD
ENDBRANCH   2  12
BRANCH   1  16
ATOM     15  N   UNL     1      -1.878   2.372   3.543  0.00  0.00    -0.145 NA
ATOM     16  N   UNL     1      -2.430   2.752   4.645  0.00  0.00    -0.140 NA
BRANCH  15  22
ATOM     17  C   UNL     1      -0.149   1.182   2.379  0.00  0.00    +0.147 A 
ATOM     18  C   UNL     1       0.989   0.394   2.422  0.00  0.00    +0.048 A 
ATOM     19  C   UNL     1       1.533   0.028   3.638  0.00  0.00    +0.004 A 
ATOM     20  C   UNL     1       0.941   0.436   4.822  0.00  0.00    +0.002 A 
ATOM     21  C   UNL     1      -0.195   1.217   4.798  0.00  0.00    +0.033 A 
ATOM     22  C   UNL     1      -0.752   1.598   3.574  0.00  0.00    +0.128 A 
BRANCH  17  24
ATOM     23  C   UNL     1      -0.013   1.086   0.008  0.00  0.00    +0.277 C 
ATOM     24  O   UNL     1      -0.682   1.547   1.184  0.00  0.00    -0.493 OA
ENDBRANCH  17  24
ENDBRANCH  15  22
ENDBRANCH   1  16
TORSDOF 4
