REMARK  Name = ZINC35486632
REMARK  8 active torsions:
REMARK  status: ('A' for Active; 'I' for Inactive)
REMARK    1  A    between atoms: C_1  and  N_2
REMARK    2  A    between atoms: N_2  and  C_3
REMARK    3  A    between atoms: N_2  and  C_4
REMARK    4  A    between atoms: C_4  and  C_5
REMARK    5  A    between atoms: C_5  and  N_6
REMARK    6  A    between atoms: C_7  and  C_23
REMARK    7  A    between atoms: C_27  and  O_29
REMARK    8  A    between atoms: O_29  and  C_30
REMARK                            x       y       z     vdW  Elec       q    Type
REMARK                         _______ _______ _______ _____ _____    ______ ____
ROOT
ATOM      1  N   UNL     1      -1.748  -0.286  -1.511  0.00  0.00    -0.285 N 
ATOM      2  C   UNL     1      -2.461  -1.550  -1.759  0.00  0.00    +0.145 C 
ATOM      3  C   UNL     1      -3.812  -1.383  -1.144  0.00  0.00    +0.072 A 
ATOM      4  C   UNL     1      -4.961  -2.292  -1.075  0.00  0.00    +0.199 A 
ATOM      5  O   UNL     1      -4.905  -3.464  -1.401  0.00  0.00    -0.287 OA
ATOM      6  C   UNL     1      -6.200  -1.646  -0.571  0.00  0.00    +0.065 A 
ATOM      7  C   UNL     1      -7.421  -2.317  -0.634  0.00  0.00    +0.030 A 
ATOM      8  C   UNL     1      -8.561  -1.700  -0.166  0.00  0.00    +0.019 A 
ATOM      9  C   UNL     1      -8.491  -0.418   0.364  0.00  0.00    +0.019 A 
ATOM     10  C   UNL     1      -7.291   0.252   0.433  0.00  0.00    +0.048 A 
ATOM     11  C   UNL     1      -6.122  -0.351  -0.032  0.00  0.00    +0.140 A 
ATOM     12  O   UNL     1      -4.955   0.326   0.057  0.00  0.00    -0.450 OA
ATOM     13  C   UNL     1      -3.865  -0.137  -0.588  0.00  0.00    +0.199 A 
ATOM     14  C   UNL     1      -2.573   0.530  -0.823  0.00  0.00    +0.283 C 
ATOM     15  O   UNL     1      -2.291   1.653  -0.454  0.00  0.00    -0.267 OA
ATOM     16 BR   UNL     1     -10.222  -2.600  -0.247  0.00  0.00    -0.050 Br
ENDROOT
BRANCH   2  17
ATOM     17  C   UNL     1      -2.590  -1.793  -3.241  0.00  0.00    -0.019 A 
ATOM     18  C   UNL     1      -2.868  -0.739  -4.092  0.00  0.00    +0.006 A 
ATOM     19  C   UNL     1      -2.986  -0.958  -5.452  0.00  0.00    +0.004 A 
ATOM     20  C   UNL     1      -2.826  -2.231  -5.964  0.00  0.00    +0.046 A 
ATOM     21  C   UNL     1      -2.546  -3.290  -5.112  0.00  0.00    +0.129 A 
ATOM     22  C   UNL     1      -2.423  -3.066  -3.748  0.00  0.00    +0.052 A 
BRANCH  21  23
ATOM     23  O   UNL     1      -2.388  -4.543  -5.614  0.00  0.00    -0.456 OA
BRANCH  23  24
ATOM     24  C   UNL     1      -2.125  -5.551  -4.741  0.00  0.00    +0.128 A 
ATOM     25  C   UNL     1      -3.168  -6.265  -4.168  0.00  0.00    +0.046 A 
ATOM     26  C   UNL     1      -2.897  -7.288  -3.281  0.00  0.00    +0.004 A 
ATOM     27  C   UNL     1      -1.588  -7.602  -2.964  0.00  0.00    +0.000 A 
ATOM     28  C   UNL     1      -0.547  -6.892  -3.533  0.00  0.00    +0.004 A 
ATOM     29  C   UNL     1      -0.812  -5.872  -4.426  0.00  0.00    +0.046 A 
ENDBRANCH  23  24
ENDBRANCH  21  23
ENDBRANCH   2  17
BRANCH   1  30
ATOM     30  C   UNL     1      -0.381   0.028  -1.932  0.00  0.00    +0.090 C 
BRANCH  30  31
ATOM     31  C   UNL     1       0.600  -0.398  -0.838  0.00  0.00    -0.060 C 
BRANCH  31  33
ATOM     32  C   UNL     1       2.126   1.373  -1.377  0.00  0.00    -0.097 C 
ATOM     33  N   UNL     1       1.972  -0.083  -1.261  0.00  0.00    +0.377 N 
ATOM     34  C   UNL     1       2.921  -0.598  -0.265  0.00  0.00    -0.097 C 
ATOM     35  H   UNL     1       2.155  -0.513  -2.155  0.00  0.00    -0.083 HD
ENDBRANCH  31  33
ENDBRANCH  30  31
ENDBRANCH   1  30
TORSDOF 6
