REMARK  Name = ZINC39413856
REMARK  12 active torsions:
REMARK  status: ('A' for Active; 'I' for Inactive)
REMARK    1  A    between atoms: C_1  and  C_2
REMARK    2  A    between atoms: C_2  and  N_3
REMARK    3  A    between atoms: N_3  and  C_4
REMARK    4  A    between atoms: N_3  and  S_6
REMARK    5  A    between atoms: C_4  and  C_5
REMARK    6  A    between atoms: S_6  and  C_9
REMARK    7  A    between atoms: C_13  and  C_15
REMARK    8  A    between atoms: C_19  and  S_28
REMARK    9  A    between atoms: N_21  and  C_22
REMARK   10  A    between atoms: S_28  and  C_29
REMARK   11  A    between atoms: C_29  and  C_30
REMARK   12  A    between atoms: C_30  and  C_32
REMARK                            x       y       z     vdW  Elec       q    Type
REMARK                         _______ _______ _______ _____ _____    ______ ____
ROOT
ATOM      1  C   UNL     1       4.449   2.371   4.364  0.00  0.00    +0.218 C 
ATOM      2  N   UNL     1       3.447   1.964   5.351  0.00  0.00    -0.286 N 
ATOM      3  N   UNL     1       3.193   2.868   6.144  0.00  0.00    -0.180 NA
ATOM      4  C   UNL     1       3.969   4.076   5.858  0.00  0.00    +0.273 C 
ATOM      5  N   UNL     1       4.806   3.765   4.685  0.00  0.00    -0.273 N 
ATOM      6  H   UNL     1       3.034   1.087   5.376  0.00  0.00    +0.185 HD
ENDROOT
BRANCH   1  11
ATOM      7  C   UNL     1       2.749   1.047   1.264  0.00  0.00    +0.106 A 
ATOM      8  C   UNL     1       2.807   2.145   0.427  0.00  0.00    +0.028 A 
ATOM      9  C   UNL     1       3.397   3.317   0.864  0.00  0.00    +0.002 A 
ATOM     10  C   UNL     1       3.928   3.390   2.138  0.00  0.00    +0.007 A 
ATOM     11  C   UNL     1       3.869   2.292   2.975  0.00  0.00    -0.004 A 
ATOM     12  C   UNL     1       3.276   1.121   2.540  0.00  0.00    +0.035 A 
BRANCH   7  13
ATOM     13  S   UNL     1       1.997  -0.446   0.708  0.00  0.00    +0.061 S 
ATOM     14  O   UNL     1       2.551  -1.496   1.489  0.00  0.00    -0.153 OA
ATOM     15  O   UNL     1       2.069  -0.433  -0.711  0.00  0.00    -0.153 OA
BRANCH  13  16
ATOM     16  N   UNL     1       0.390  -0.361   1.101  0.00  0.00    -0.177 NA
BRANCH  16  18
ATOM     17  C   UNL     1      -0.781   1.695   0.486  0.00  0.00    +0.022 C 
ATOM     18  C   UNL     1      -0.566   0.217   0.154  0.00  0.00    +0.106 C 
ENDBRANCH  16  18
BRANCH  16  19
ATOM     19  C   UNL     1      -0.075  -0.866   2.395  0.00  0.00    +0.106 C 
ATOM     20  C   UNL     1      -0.565  -2.306   2.236  0.00  0.00    +0.022 C 
ENDBRANCH  16  19
ENDBRANCH  13  16
ENDBRANCH   7  13
ENDBRANCH   1  11
BRANCH   5  21
ATOM     21  C   UNL     1       5.720   4.594   4.031  0.00  0.00    +0.034 A 
ATOM     22  C   UNL     1       6.513   4.086   3.009  0.00  0.00    +0.023 A 
ATOM     23  C   UNL     1       7.415   4.909   2.364  0.00  0.00    +0.002 A 
ATOM     24  C   UNL     1       7.530   6.236   2.735  0.00  0.00    +0.000 A 
ATOM     25  C   UNL     1       6.742   6.745   3.751  0.00  0.00    +0.002 A 
ATOM     26  C   UNL     1       5.834   5.929   4.396  0.00  0.00    +0.023 A 
ENDBRANCH   5  21
BRANCH   4  27
ATOM     27  S   UNL     1       2.855   5.458   5.482  0.00  0.00    -0.106 S 
BRANCH  27  28
ATOM     28  C   UNL     1       1.854   4.850   4.097  0.00  0.00    +0.149 C 
BRANCH  28  29
ATOM     29  C   UNL     1       0.808   5.876   3.745  0.00  0.00    +0.171 C 
ATOM     30  O   UNL     1       0.744   6.910   4.365  0.00  0.00    -0.294 OA
BRANCH  29  31
ATOM     31  C   UNL     1      -0.159   5.611   2.619  0.00  0.00    +0.195 C 
ATOM     32  C   UNL     1       0.526   5.807   1.284  0.00  0.00    +0.008 C 
ATOM     33  C   UNL     1      -0.137   6.787   0.673  0.00  0.00    +0.017 C 
ATOM     34  C   UNL     1      -1.225   7.251   1.535  0.00  0.00    +0.106 C 
ATOM     35  N   UNL     1      -1.252   6.591   2.647  0.00  0.00    -0.277 NA
ENDBRANCH  29  31
ENDBRANCH  28  29
ENDBRANCH  27  28
ENDBRANCH   4  27
TORSDOF 10
