REMARK  Name = ZINC00717914
REMARK  8 active torsions:
REMARK  status: ('A' for Active; 'I' for Inactive)
REMARK    1  A    between atoms: C_1  and  C_2
REMARK    2  A    between atoms: C_3  and  C_18
REMARK    3  A    between atoms: C_4  and  C_10
REMARK    4  A    between atoms: C_18  and  O_20
REMARK    5  A    between atoms: O_20  and  C_21
REMARK    6  A    between atoms: C_21  and  C_22
REMARK    7  A    between atoms: C_25  and  O_28
REMARK    8  A    between atoms: O_28  and  C_29
REMARK                            x       y       z     vdW  Elec       q    Type
REMARK                         _______ _______ _______ _____ _____    ______ ____
ROOT
ATOM      1  C   UNL     1       1.309   8.198   1.885  0.00  0.00    +0.061 C 
ATOM      2  C   UNL     1       1.219   7.264   3.064  0.00  0.00    +0.021 C 
ATOM      3  C   UNL     1       0.916   5.964   2.861  0.00  0.00    +0.078 C 
ATOM      4  C   UNL     1       0.831   5.061   4.075  0.00  0.00    +0.144 C 
ATOM      5  N   UNL     1       1.098   5.679   5.386  0.00  0.00    -0.288 N 
ATOM      6  C   UNL     1       1.389   6.994   5.427  0.00  0.00    +0.304 C 
ATOM      7  O   UNL     1       1.606   7.514   6.504  0.00  0.00    -0.252 OA
ATOM      8  N   UNL     1       1.446   7.747   4.322  0.00  0.00    -0.273 N 
ATOM      9  H   UNL     1       1.062   5.152   6.199  0.00  0.00    +0.151 HD
ATOM     10  H   UNL     1       1.660   8.688   4.419  0.00  0.00    +0.156 HD
ENDROOT
BRANCH   4  11
ATOM     11  C   UNL     1       1.815   3.936   3.888  0.00  0.00    -0.021 A 
ATOM     12  C   UNL     1       3.158   4.142   4.147  0.00  0.00    +0.008 A 
ATOM     13  C   UNL     1       4.061   3.109   3.980  0.00  0.00    +0.040 A 
ATOM     14  C   UNL     1       3.623   1.871   3.543  0.00  0.00    +0.137 A 
ATOM     15  C   UNL     1       2.279   1.667   3.278  0.00  0.00    +0.053 A 
ATOM     16  C   UNL     1       1.376   2.700   3.451  0.00  0.00    +0.024 A 
ATOM     17 BR   UNL     1       1.678  -0.024   2.680  0.00  0.00    -0.047 Br
ATOM     18  F   UNL     1       4.506   0.862   3.374  0.00  0.00    -0.204 F 
ENDBRANCH   4  11
BRANCH   3  19
ATOM     19  C   UNL     1       0.681   5.463   1.560  0.00  0.00    +0.339 C 
ATOM     20  O   UNL     1       0.640   6.225   0.612  0.00  0.00    -0.245 OA
BRANCH  19  21
ATOM     21  O   UNL     1       0.503   4.139   1.368  0.00  0.00    -0.457 OA
BRANCH  21  22
ATOM     22  C   UNL     1       0.270   3.702   0.028  0.00  0.00    +0.268 C 
BRANCH  22  23
ATOM     23  C   UNL     1       0.096   2.205   0.010  0.00  0.00    -0.010 A 
ATOM     24  C   UNL     1      -1.164   1.656   0.162  0.00  0.00    +0.010 A 
ATOM     25  C   UNL     1      -1.327   0.284   0.146  0.00  0.00    +0.046 A 
ATOM     26  C   UNL     1      -0.225  -0.542  -0.024  0.00  0.00    +0.120 A 
ATOM     27  C   UNL     1       1.037   0.012  -0.177  0.00  0.00    +0.046 A 
ATOM     28  C   UNL     1       1.195   1.384  -0.160  0.00  0.00    +0.010 A 
BRANCH  26  29
ATOM     29  O   UNL     1      -0.383  -1.892  -0.041  0.00  0.00    -0.495 OA
ATOM     30  C   UNL     1       0.795  -2.680  -0.220  0.00  0.00    +0.277 C 
ENDBRANCH  26  29
ENDBRANCH  22  23
ENDBRANCH  21  22
ENDBRANCH  19  21
ENDBRANCH   3  19
TORSDOF 6
