REMARK  Name = ZINC53619539
REMARK  8 active torsions:
REMARK  status: ('A' for Active; 'I' for Inactive)
REMARK    1  A    between atoms: C_1  and  C_2
REMARK    2  A    between atoms: C_13  and  C_15
REMARK    3  A    between atoms: C_15  and  C_16
REMARK    4  A    between atoms: C_16  and  C_17
REMARK    5  A    between atoms: N_19  and  C_20
REMARK    6  A    between atoms: C_20  and  C_21
REMARK    7  A    between atoms: C_21  and  C_22
REMARK    8  A    between atoms: C_29  and  C_30
REMARK                            x       y       z     vdW  Elec       q    Type
REMARK                         _______ _______ _______ _____ _____    ______ ____
ROOT
ATOM      1  C   UNL     1      -0.019   1.526   0.010  0.00  0.00    +0.013 C 
ATOM      2  C   UNL     1       0.002  -0.004   0.002  0.00  0.00    +0.033 C 
ATOM      3  C   UNL     1      -1.414  -0.524   0.009  0.00  0.00    -0.001 A 
ATOM      4  C   UNL     1      -2.348   0.129  -0.755  0.00  0.00    +0.019 A 
ATOM      5  C   UNL     1      -3.663  -0.318  -0.787  0.00  0.00    +0.028 A 
ATOM      6  C   UNL     1      -4.044  -1.442  -0.036  0.00  0.00    +0.139 A 
ATOM      7  C   UNL     1      -3.092  -2.093   0.734  0.00  0.00    +0.093 A 
ATOM      8  C   UNL     1      -1.782  -1.633   0.758  0.00  0.00    +0.139 A 
ATOM      9  O   UNL     1      -0.888  -2.296   1.544  0.00  0.00    -0.425 OA
ATOM     10  C   UNL     1       0.415  -1.979   1.408  0.00  0.00    +0.316 C 
ATOM     11  O   UNL     1       1.277  -2.826   1.419  0.00  0.00    -0.250 OA
ATOM     12  C   UNL     1       0.747  -0.510   1.241  0.00  0.00    +0.106 C 
ATOM     13  O   UNL     1      -5.359  -1.649  -0.254  0.00  0.00    -0.462 OA
ATOM     14  C   UNL     1      -5.862  -0.731  -1.096  0.00  0.00    +0.204 A 
ATOM     15  C   UNL     1      -4.888   0.129  -1.475  0.00  0.00    +0.028 A 
ENDROOT
BRANCH  15  16
ATOM     16  C   UNL     1      -5.025   1.284  -2.395  0.00  0.00    -0.014 A 
ATOM     17  C   UNL     1      -4.536   2.535  -2.024  0.00  0.00    +0.008 A 
ATOM     18  C   UNL     1      -4.666   3.606  -2.885  0.00  0.00    +0.001 A 
ATOM     19  C   UNL     1      -5.280   3.440  -4.113  0.00  0.00    +0.000 A 
ATOM     20  C   UNL     1      -5.769   2.200  -4.486  0.00  0.00    +0.001 A 
ATOM     21  C   UNL     1      -5.639   1.121  -3.636  0.00  0.00    +0.008 A 
ENDBRANCH  15  16
BRANCH  12  22
ATOM     22  C   UNL     1       0.290   0.270   2.476  0.00  0.00    +0.024 C 
BRANCH  22  23
ATOM     23  C   UNL     1       1.125  -0.154   3.685  0.00  0.00    +0.096 C 
BRANCH  23  24
ATOM     24  C   UNL     1       0.675   0.615   4.901  0.00  0.00    +0.213 C 
ATOM     25  O   UNL     1      -0.225   1.422   4.809  0.00  0.00    -0.276 OA
ATOM     26  N   UNL     1       1.274   0.405   6.090  0.00  0.00    -0.315 N 
ATOM     27  H   UNL     1       1.994  -0.241   6.164  0.00  0.00    +0.149 HD
BRANCH  26  28
ATOM     28  C   UNL     1       0.836   1.152   7.272  0.00  0.00    +0.110 C 
BRANCH  28  29
ATOM     29  C   UNL     1       1.672   0.728   8.482  0.00  0.00    +0.073 C 
BRANCH  29  30
ATOM     30  C   UNL     1       1.222   1.496   9.697  0.00  0.00    +0.035 A 
ATOM     31  N   UNL     1       0.316   1.080  10.636  0.00  0.00    -0.350 N 
ATOM     32  C   UNL     1       0.206   2.069  11.550  0.00  0.00    +0.171 A 
ATOM     33  N   UNL     1       0.997   3.048  11.204  0.00  0.00    -0.352 N 
ATOM     34  C   UNL     1       1.638   2.721  10.072  0.00  0.00    +0.105 A 
ATOM     35  H   UNL     1      -0.158   0.234  10.643  0.00  0.00    +0.166 HD
ATOM     36  H   UNL     1       1.106   3.879  11.692  0.00  0.00    +0.166 HD
ENDBRANCH  29  30
ENDBRANCH  28  29
ENDBRANCH  26  28
ENDBRANCH  23  24
ENDBRANCH  22  23
ENDBRANCH  12  22
TORSDOF 7
