REMARK  Name = ZINC48873028
REMARK  7 active torsions:
REMARK  status: ('A' for Active; 'I' for Inactive)
REMARK    1  A    between atoms: C_1  and  C_2
REMARK    2  A    between atoms: C_2  and  C_4
REMARK    3  A    between atoms: C_2  and  N_14
REMARK    4  A    between atoms: C_15  and  C_17
REMARK    5  A    between atoms: N_19  and  C_20
REMARK    6  A    between atoms: C_27  and  C_29
REMARK    7  A    between atoms: C_27  and  C_30
REMARK                            x       y       z     vdW  Elec       q    Type
REMARK                         _______ _______ _______ _____ _____    ______ ____
ROOT
ATOM      1  N   UNL     1       0.577  -0.968  -1.276  0.00  0.00    -0.301 N 
ATOM      2  C   UNL     1       1.918  -1.087  -1.336  0.00  0.00    +0.300 C 
ATOM      3  O   UNL     1       2.602  -0.720  -0.403  0.00  0.00    -0.265 OA
ATOM      4  H   UNL     1       0.030  -1.261  -2.022  0.00  0.00    +0.150 HD
ENDROOT
BRANCH   2   5
ATOM      5  C   UNL     1       2.562  -1.670  -2.550  0.00  0.00    +0.303 C 
ATOM      6  O   UNL     1       1.878  -2.037  -3.483  0.00  0.00    -0.265 OA
ATOM      7  N   UNL     1       3.903  -1.790  -2.610  0.00  0.00    -0.278 N 
ATOM      8  H   UNL     1       4.445  -1.567  -1.837  0.00  0.00    +0.155 HD
BRANCH   7   9
ATOM      9  C   UNL     1       4.514  -2.234  -3.787  0.00  0.00    +0.038 A 
ATOM     10  C   UNL     1       5.670  -3.002  -3.723  0.00  0.00    +0.027 A 
ATOM     11  C   UNL     1       6.274  -3.442  -4.885  0.00  0.00    +0.051 A 
ATOM     12  C   UNL     1       5.729  -3.118  -6.117  0.00  0.00    +0.167 A 
ATOM     13  C   UNL     1       4.570  -2.349  -6.185  0.00  0.00    +0.169 A 
ATOM     14  C   UNL     1       3.962  -1.913  -5.020  0.00  0.00    +0.073 A 
ATOM     15  O   UNL     1       4.241  -2.171  -7.498  0.00  0.00    -0.448 OA
ATOM     16  C   UNL     1       5.432  -2.492  -8.240  0.00  0.00    +0.248 C 
ATOM     17  O   UNL     1       6.126  -3.422  -7.388  0.00  0.00    -0.448 OA
ATOM     18  C   UNL     1       5.074  -3.148  -9.575  0.00  0.00    +0.104 C 
ATOM     19  C   UNL     1       6.278  -1.237  -8.467  0.00  0.00    +0.104 C 
ENDBRANCH   7   9
ENDBRANCH   2   5
BRANCH   1  21
ATOM     20  C   UNL     1      -0.156   1.123  -0.240  0.00  0.00    +0.033 C 
ATOM     21  C   UNL     1      -0.056  -0.396  -0.085  0.00  0.00    +0.101 C 
BRANCH  21  22
ATOM     22  C   UNL     1      -1.437  -0.976   0.079  0.00  0.00    -0.020 A 
ATOM     23  C   UNL     1      -2.124  -1.423  -1.007  0.00  0.00    +0.006 A 
ATOM     24  C   UNL     1      -3.402  -1.963  -0.875  0.00  0.00    +0.001 A 
ATOM     25  C   UNL     1      -4.000  -2.058   0.344  0.00  0.00    +0.008 A 
ATOM     26  C   UNL     1      -3.321  -1.608   1.488  0.00  0.00    -0.018 A 
ATOM     27  C   UNL     1      -2.019  -1.064   1.355  0.00  0.00    -0.013 A 
ATOM     28  C   UNL     1      -1.337  -0.619   2.501  0.00  0.00    +0.009 A 
ATOM     29  C   UNL     1      -1.933  -0.720   3.720  0.00  0.00    +0.001 A 
ATOM     30  C   UNL     1      -3.211  -1.260   3.852  0.00  0.00    +0.001 A 
ATOM     31  C   UNL     1      -3.906  -1.690   2.764  0.00  0.00    +0.008 A 
ENDBRANCH  21  22
ENDBRANCH   1  21
TORSDOF 4
