REMARK  Name = ZINC16607020
REMARK  10 active torsions:
REMARK  status: ('A' for Active; 'I' for Inactive)
REMARK    1  A    between atoms: C_1  and  C_2
REMARK    2  A    between atoms: C_3  and  C_32
REMARK    3  A    between atoms: C_4  and  C_24
REMARK    4  A    between atoms: C_10  and  C_11
REMARK    5  A    between atoms: C_27  and  O_30
REMARK    6  A    between atoms: O_30  and  C_31
REMARK    7  A    between atoms: C_32  and  O_34
REMARK    8  A    between atoms: O_34  and  C_35
REMARK    9  A    between atoms: C_35  and  C_36
REMARK   10  A    between atoms: C_35  and  C_37
REMARK                            x       y       z     vdW  Elec       q    Type
REMARK                         _______ _______ _______ _____ _____    ______ ____
ROOT
ATOM      1  C   UNL     1       7.611  -6.045   0.499  0.00  0.00    +0.066 C 
ATOM      2  C   UNL     1       6.483  -5.052   0.385  0.00  0.00    +0.053 C 
ATOM      3  C   UNL     1       5.192  -5.497   0.321  0.00  0.00    +0.085 C 
ATOM      4  C   UNL     1       4.089  -4.469   0.207  0.00  0.00    +0.162 C 
ATOM      5  N   UNL     1       4.496  -3.037   0.174  0.00  0.00    -0.275 N 
ATOM      6  C   UNL     1       3.681  -1.980   0.085  0.00  0.00    +0.268 A 
ATOM      7  O   UNL     1       2.475  -2.137   0.020  0.00  0.00    -0.266 OA
ATOM      8  C   UNL     1       4.237  -0.673   0.060  0.00  0.00    +0.081 A 
ATOM      9  C   UNL     1       3.607   0.532  -0.030  0.00  0.00    +0.030 C 
ATOM     10  S   UNL     1       5.982  -1.033   0.186  0.00  0.00    -0.046 S 
ATOM     11  C   UNL     1       5.852  -2.809   0.252  0.00  0.00    +0.178 A 
ATOM     12  N   UNL     1       6.752  -3.753   0.348  0.00  0.00    -0.228 NA
ENDROOT
BRANCH   9  13
ATOM     13  C   UNL     1       2.168   0.589  -0.282  0.00  0.00    +0.001 A 
ATOM     14  C   UNL     1       1.454  -0.209  -1.133  0.00  0.00    +0.091 A 
ATOM     15  N   UNL     1       0.144   0.144  -1.097  0.00  0.00    -0.360 N 
ATOM     16  H   UNL     1      -0.558  -0.280  -1.617  0.00  0.00    +0.165 HD
ATOM     17  C   UNL     1      -0.050   1.189  -0.218  0.00  0.00    +0.047 A 
ATOM     18  C   UNL     1       1.199   1.517   0.332  0.00  0.00    +0.007 A 
ATOM     19  C   UNL     1       1.305   2.548   1.262  0.00  0.00    +0.010 A 
ATOM     20  C   UNL     1       0.177   3.244   1.639  0.00  0.00    +0.001 A 
ATOM     21  C   UNL     1      -1.058   2.922   1.097  0.00  0.00    +0.002 A 
ATOM     22  C   UNL     1      -1.177   1.901   0.178  0.00  0.00    +0.026 A 
ENDBRANCH   9  13
BRANCH   4  23
ATOM     23  C   UNL     1       3.156  -4.659   1.376  0.00  0.00    -0.020 A 
ATOM     24  C   UNL     1       3.491  -4.149   2.616  0.00  0.00    +0.009 A 
ATOM     25  C   UNL     1       2.635  -4.317   3.688  0.00  0.00    +0.046 A 
ATOM     26  C   UNL     1       1.444  -5.008   3.521  0.00  0.00    +0.120 A 
ATOM     27  C   UNL     1       1.113  -5.523   2.276  0.00  0.00    +0.046 A 
ATOM     28  C   UNL     1       1.970  -5.348   1.206  0.00  0.00    +0.009 A 
BRANCH  26  29
ATOM     29  O   UNL     1       0.603  -5.179   4.574  0.00  0.00    -0.495 OA
ATOM     30  C   UNL     1       1.009  -4.621   5.825  0.00  0.00    +0.277 C 
ENDBRANCH  26  29
ENDBRANCH   4  23
BRANCH   3  31
ATOM     31  C   UNL     1       4.899  -6.869   0.358  0.00  0.00    +0.339 C 
ATOM     32  O   UNL     1       5.801  -7.683   0.450  0.00  0.00    -0.245 OA
BRANCH  31  33
ATOM     33  O   UNL     1       3.616  -7.288   0.293  0.00  0.00    -0.459 OA
BRANCH  33  34
ATOM     34  C   UNL     1       3.390  -8.698   0.336  0.00  0.00    +0.171 C 
ATOM     35  C   UNL     1       3.218  -9.142   1.790  0.00  0.00    +0.052 C 
ATOM     36  C   UNL     1       2.125  -9.037  -0.454  0.00  0.00    +0.052 C 
ENDBRANCH  33  34
ENDBRANCH  31  33
ENDBRANCH   3  31
TORSDOF 6
