REMARK  Name = ZINC39262107
REMARK  10 active torsions:
REMARK  status: ('A' for Active; 'I' for Inactive)
REMARK    1  A    between atoms: C_7  and  C_18
REMARK    2  A    between atoms: N_9  and  S_10
REMARK    3  A    between atoms: S_10  and  C_13
REMARK    4  A    between atoms: C_18  and  C_19
REMARK    5  A    between atoms: C_19  and  C_20
REMARK    6  A    between atoms: C_20  and  C_21
REMARK    7  A    between atoms: N_23  and  C_24
REMARK    8  A    between atoms: C_24  and  C_25
REMARK    9  A    between atoms: C_25  and  C_26
REMARK   10  A    between atoms: C_26  and  N_27
REMARK                            x       y       z     vdW  Elec       q    Type
REMARK                         _______ _______ _______ _____ _____    ______ ____
ROOT
ATOM      1  C   UNL     1      -0.017   1.362   0.009  0.00  0.00    +0.001 A 
ATOM      2  C   UNL     1       1.170   2.083   0.002  0.00  0.00    +0.002 A 
ATOM      3  C   UNL     1       2.386   1.436  -0.013  0.00  0.00    +0.028 A 
ATOM      4  C   UNL     1       2.428   0.046  -0.021  0.00  0.00    +0.072 A 
ATOM      5  C   UNL     1       1.223  -0.681  -0.013  0.00  0.00    +0.005 A 
ATOM      6  C   UNL     1       0.002  -0.004   0.002  0.00  0.00    +0.010 A 
ATOM      7  C   UNL     1       1.604  -2.095  -0.025  0.00  0.00    -0.020 A 
ATOM      8  C   UNL     1       2.945  -2.141  -0.038  0.00  0.00    +0.116 A 
ATOM      9  N   UNL     1       3.455  -0.871  -0.036  0.00  0.00    -0.218 N 
ENDROOT
BRANCH   9  10
ATOM     10  S   UNL     1       5.067  -0.494  -0.050  0.00  0.00    +0.090 S 
ATOM     11  O   UNL     1       5.269   0.466   0.979  0.00  0.00    -0.147 OA
ATOM     12  O   UNL     1       5.773  -1.726  -0.090  0.00  0.00    -0.147 OA
BRANCH  10  13
ATOM     13  C   UNL     1       5.398   0.326  -1.574  0.00  0.00    +0.148 A 
ATOM     14  C   UNL     1       5.350   1.651  -1.859  0.00  0.00    +0.037 A 
ATOM     15  C   UNL     1       5.653   2.072  -3.140  0.00  0.00    +0.010 A 
ATOM     16  C   UNL     1       5.990   1.149  -4.073  0.00  0.00    +0.047 A 
ATOM     17  S   UNL     1       5.890  -0.371  -3.142  0.00  0.00    -0.077 S 
ENDBRANCH  10  13
ENDBRANCH   9  10
BRANCH   7  18
ATOM     18  C   UNL     1       0.666  -3.275  -0.021  0.00  0.00    +0.038 C 
BRANCH  18  19
ATOM     19  C   UNL     1       0.236  -3.589  -1.455  0.00  0.00    +0.014 C 
BRANCH  19  20
ATOM     20  C   UNL     1      -0.715  -4.787  -1.452  0.00  0.00    +0.096 C 
BRANCH  20  21
ATOM     21  C   UNL     1      -1.139  -5.096  -2.865  0.00  0.00    +0.213 C 
ATOM     22  O   UNL     1      -0.722  -4.424  -3.784  0.00  0.00    -0.276 OA
ATOM     23  N   UNL     1      -1.983  -6.119  -3.107  0.00  0.00    -0.315 N 
ATOM     24  H   UNL     1      -2.317  -6.657  -2.372  0.00  0.00    +0.149 HD
BRANCH  23  25
ATOM     25  C   UNL     1      -2.395  -6.420  -4.480  0.00  0.00    +0.106 C 
BRANCH  25  26
ATOM     26  C   UNL     1      -3.346  -7.618  -4.477  0.00  0.00    +0.040 C 
BRANCH  26  27
ATOM     27  C   UNL     1      -3.776  -7.931  -5.911  0.00  0.00    +0.124 C 
BRANCH  27  28
ATOM     28  N   UNL     1      -4.688  -9.079  -5.908  0.00  0.00    -0.338 N 
ATOM     29  C   UNL     1      -4.334 -10.397  -6.008  0.00  0.00    +0.104 A 
ATOM     30  C   UNL     1      -5.474 -11.111  -5.963  0.00  0.00    +0.101 A 
ATOM     31  N   UNL     1      -6.497 -10.252  -5.838  0.00  0.00    -0.352 N 
ATOM     32  C   UNL     1      -6.033  -9.033  -5.799  0.00  0.00    +0.173 A 
ATOM     33  H   UNL     1      -7.434 -10.499  -5.781  0.00  0.00    +0.166 HD
ENDBRANCH  27  28
ENDBRANCH  26  27
ENDBRANCH  25  26
ENDBRANCH  23  25
ENDBRANCH  20  21
ENDBRANCH  19  20
ENDBRANCH  18  19
ENDBRANCH   7  18
TORSDOF 10
