REMARK  Name = ZINC06114419
REMARK  7 active torsions:
REMARK  status: ('A' for Active; 'I' for Inactive)
REMARK    1  A    between atoms: C_1  and  C_2
REMARK    2  A    between atoms: C_7  and  C_9
REMARK    3  A    between atoms: C_15  and  S_17
REMARK    4  A    between atoms: S_17  and  C_18
REMARK    5  A    between atoms: C_18  and  C_20
REMARK    6  A    between atoms: C_18  and  C_21
REMARK    7  A    between atoms: N_26  and  C_27
REMARK                            x       y       z     vdW  Elec       q    Type
REMARK                         _______ _______ _______ _____ _____    ______ ____
ROOT
ATOM      1  C   UNL     1      -0.018   1.503   0.010  0.00  0.00    +0.088 C 
ATOM      2  C   UNL     1       0.002  -0.004   0.002  0.00  0.00    +0.128 A 
ATOM      3  N   UNL     1       0.005  -0.642  -1.153  0.00  0.00    -0.225 NA
ATOM      4  C   UNL     1       0.024  -1.960  -1.187  0.00  0.00    +0.113 A 
ATOM      5  C   UNL     1       0.040  -2.728  -0.000  0.00  0.00    +0.040 A 
ATOM      6  C   UNL     1       0.059  -4.163  -0.199  0.00  0.00    +0.029 A 
ATOM      7  C   UNL     1       0.060  -4.650  -1.464  0.00  0.00    +0.022 A 
ATOM      8  S   UNL     1       0.034  -3.181  -2.474  0.00  0.00    -0.069 S 
ATOM      9  C   UNL     1       0.035  -1.978   1.211  0.00  0.00    +0.109 A 
ATOM     10  N   UNL     1       0.022  -0.655   1.151  0.00  0.00    -0.225 NA
ENDROOT
BRANCH   7  11
ATOM     11  C   UNL     1       0.078  -6.062  -1.901  0.00  0.00    -0.011 A 
ATOM     12  C   UNL     1       0.092  -7.088  -0.956  0.00  0.00    +0.009 A 
ATOM     13  C   UNL     1       0.109  -8.404  -1.371  0.00  0.00    +0.001 A 
ATOM     14  C   UNL     1       0.112  -8.707  -2.721  0.00  0.00    +0.000 A 
ATOM     15  C   UNL     1       0.098  -7.694  -3.663  0.00  0.00    +0.001 A 
ATOM     16  C   UNL     1       0.075  -6.374  -3.262  0.00  0.00    +0.009 A 
ENDBRANCH   7  11
BRANCH   9  17
ATOM     17  S   UNL     1       0.054  -2.800   2.769  0.00  0.00    -0.093 S 
BRANCH  17  18
ATOM     18  C   UNL     1       0.041  -1.448   3.979  0.00  0.00    +0.136 C 
ATOM     19  C   UNL     1       1.336  -0.643   3.858  0.00  0.00    +0.029 C 
BRANCH  18  20
ATOM     20  C   UNL     1      -0.069  -2.019   5.369  0.00  0.00    +0.233 C 
ATOM     21  O   UNL     1       0.313  -3.148   5.592  0.00  0.00    -0.274 OA
ATOM     22  N   UNL     1      -0.591  -1.275   6.364  0.00  0.00    -0.239 N 
ATOM     23  C   UNL     1      -0.688  -1.786   7.607  0.00  0.00    +0.306 C 
ATOM     24  O   UNL     1      -0.305  -2.917   7.832  0.00  0.00    -0.252 OA
ATOM     25  N   UNL     1      -1.210  -1.042   8.603  0.00  0.00    -0.302 N 
ATOM     26  C   UNL     1      -1.316  -1.597   9.954  0.00  0.00    +0.129 C 
ATOM     27  H   UNL     1      -0.896  -0.372   6.185  0.00  0.00    +0.159 HD
ATOM     28  H   UNL     1      -1.516  -0.139   8.424  0.00  0.00    +0.150 HD
ENDBRANCH  18  20
ENDBRANCH  17  18
ENDBRANCH   9  17
TORSDOF 4
