REMARK  Name = ZINC02822270
REMARK  5 active torsions:
REMARK  status: ('A' for Active; 'I' for Inactive)
REMARK    1  A    between atoms: C_1  and  S_2
REMARK    2  A    between atoms: S_2  and  O_5
REMARK    3  A    between atoms: O_5  and  C_6
REMARK    4  A    between atoms: C_7  and  C_14
REMARK    5  A    between atoms: C_19  and  C_21
REMARK                            x       y       z     vdW  Elec       q    Type
REMARK                         _______ _______ _______ _____ _____    ______ ____
ROOT
ATOM      1  C   UNL     1      -1.012   2.562  -0.102  0.00  0.00    +0.182 A 
ATOM      2  C   UNL     1      -1.197   3.952  -0.198  0.00  0.00    +0.025 A 
ATOM      3  C   UNL     1      -0.113   4.773  -0.539  0.00  0.00    +0.031 A 
ATOM      4  C   UNL     1       1.125   4.213  -0.770  0.00  0.00    +0.043 A 
ATOM      5  C   UNL     1       1.303   2.841  -0.668  0.00  0.00    +0.043 A 
ATOM      6  C   UNL     1       0.242   2.019  -0.333  0.00  0.00    +0.087 A 
ATOM      7 CL   UNL     1       0.481   0.304  -0.210  0.00  0.00    -0.080 Cl
ATOM      8 CL   UNL     1       2.468   5.229  -1.192  0.00  0.00    -0.083 Cl
ENDROOT
BRANCH   2   9
ATOM      9  C   UNL     1      -2.516   4.539   0.049  0.00  0.00    +0.046 C 
ATOM     10  C   UNL     1      -2.623   5.728   0.740  0.00  0.00    +0.153 C 
ATOM     11  C   UNL     1      -1.546   6.458   1.433  0.00  0.00    +0.364 C 
ATOM     12  O   UNL     1      -0.374   6.140   1.517  0.00  0.00    -0.243 OA
ATOM     13  O   UNL     1      -2.136   7.555   1.953  0.00  0.00    -0.399 OA
ATOM     14  C   UNL     1      -3.447   7.530   1.639  0.00  0.00    +0.267 C 
ATOM     15  N   UNL     1      -3.749   6.472   0.932  0.00  0.00    -0.203 NA
BRANCH  14  16
ATOM     16  C   UNL     1      -4.412   8.559   2.040  0.00  0.00    +0.189 A 
ATOM     17  C   UNL     1      -4.136   9.673   2.781  0.00  0.00    +0.055 A 
ATOM     18  C   UNL     1      -5.345  10.375   2.921  0.00  0.00    +0.042 A 
ATOM     19  C   UNL     1      -6.295   9.663   2.276  0.00  0.00    +0.196 A 
ATOM     20  O   UNL     1      -5.728   8.569   1.746  0.00  0.00    -0.458 OA
ENDBRANCH  14  16
ENDBRANCH   2   9
BRANCH   1  21
ATOM     21  O   UNL     1      -2.055   1.755   0.221  0.00  0.00    -0.344 OA
BRANCH  21  23
ATOM     22  C   UNL     1      -2.929   3.073   2.348  0.00  0.00    +0.242 C 
ATOM     23  S   UNL     1      -2.221   1.527   1.716  0.00  0.00    +0.118 S 
ATOM     24  O   UNL     1      -3.172   0.476   1.819  0.00  0.00    -0.137 OA
ATOM     25  O   UNL     1      -0.898   1.358   2.207  0.00  0.00    -0.137 OA
ENDBRANCH  21  23
ENDBRANCH   1  21
TORSDOF 4
