REMARK  Name = ZINC09266973
REMARK  9 active torsions:
REMARK  status: ('A' for Active; 'I' for Inactive)
REMARK    1  A    between atoms: C_1  and  C_2
REMARK    2  A    between atoms: C_8  and  C_37
REMARK    3  A    between atoms: C_8  and  C_38
REMARK    4  A    between atoms: C_9  and  C_15
REMARK    5  A    between atoms: C_16  and  C_17
REMARK    6  A    between atoms: N_19  and  C_31
REMARK    7  A    between atoms: C_21  and  C_22
REMARK    8  A    between atoms: C_25  and  O_29
REMARK    9  A    between atoms: O_29  and  C_30
REMARK                            x       y       z     vdW  Elec       q    Type
REMARK                         _______ _______ _______ _____ _____    ______ ____
ROOT
ATOM      1  C   UNL     1       2.211  -3.017  -0.716  0.00  0.00    +0.021 A 
ATOM      2  C   UNL     1       1.859  -4.309  -0.450  0.00  0.00    +0.123 A 
ATOM      3  N   UNL     1       0.760  -4.290   0.334  0.00  0.00    -0.239 N 
ATOM      4  N   UNL     1       0.394  -2.965   0.588  0.00  0.00    -0.166 NA
ATOM      5  C   UNL     1       1.243  -2.166  -0.022  0.00  0.00    +0.100 A 
ENDROOT
BRANCH   5   6
ATOM      6  C   UNL     1       1.220  -0.684  -0.013  0.00  0.00    +0.004 A 
ATOM      7  C   UNL     1       0.002  -0.004   0.002  0.00  0.00    +0.014 A 
ATOM      8  C   UNL     1      -0.017   1.375   0.010  0.00  0.00    +0.048 A 
ATOM      9  C   UNL     1       1.175   2.087   0.002  0.00  0.00    +0.138 A 
ATOM     10  C   UNL     1       2.390   1.413  -0.013  0.00  0.00    +0.083 A 
ATOM     11  C   UNL     1       2.415   0.034  -0.021  0.00  0.00    +0.033 A 
ATOM     12 CL   UNL     1       3.877   2.308  -0.022  0.00  0.00    -0.080 Cl
BRANCH   9  13
ATOM     13  O   UNL     1       1.153   3.446   0.009  0.00  0.00    -0.494 OA
ATOM     14  C   UNL     1      -0.131   4.074   0.024  0.00  0.00    +0.277 C 
ENDBRANCH   9  13
ENDBRANCH   5   6
BRANCH   3  15
ATOM     15  C   UNL     1       0.091  -5.422   0.818  0.00  0.00    +0.065 A 
ATOM     16  C   UNL     1       0.548  -6.692   0.492  0.00  0.00    +0.028 A 
ATOM     17  C   UNL     1      -0.111  -7.806   0.975  0.00  0.00    +0.002 A 
ATOM     18  C   UNL     1      -1.230  -7.657   1.773  0.00  0.00    +0.000 A 
ATOM     19  C   UNL     1      -1.691  -6.394   2.094  0.00  0.00    +0.002 A 
ATOM     20  C   UNL     1      -1.033  -5.276   1.619  0.00  0.00    +0.028 A 
ENDBRANCH   3  15
BRANCH   1  22
ATOM     21  C   UNL     1       4.149  -3.456  -2.113  0.00  0.00    +0.020 C 
ATOM     22  C   UNL     1       3.350  -2.565  -1.541  0.00  0.00    +0.011 C 
BRANCH  21  31
ATOM     23  C   UNL     1       8.765  -8.006  -3.690  0.00  0.00    +0.044 C 
ATOM     24  C   UNL     1       7.815  -6.857  -3.907  0.00  0.00    -0.050 A 
ATOM     25  C   UNL     1       6.969  -6.854  -5.001  0.00  0.00    +0.005 A 
ATOM     26  C   UNL     1       6.100  -5.803  -5.205  0.00  0.00    +0.024 A 
ATOM     27  C   UNL     1       6.069  -4.734  -4.309  0.00  0.00    +0.036 A 
ATOM     28  C   UNL     1       6.920  -4.749  -3.211  0.00  0.00    -0.016 A 
ATOM     29  C   UNL     1       7.789  -5.802  -3.013  0.00  0.00    +0.009 A 
ATOM     30  C   UNL     1       6.670  -3.488  -2.409  0.00  0.00    +0.034 C 
ATOM     31  C   UNL     1       5.311  -2.995  -2.955  0.00  0.00    +0.131 C 
ATOM     32  N   UNL     1       5.290  -3.571  -4.327  0.00  0.00    -0.296 N 
ATOM     33  C   UNL     1       5.959  -2.527  -5.138  0.00  0.00    +0.203 C 
ATOM     34  C   UNL     1       5.728  -1.238  -4.383  0.00  0.00    +0.232 C 
ATOM     35  O   UNL     1       5.859  -0.119  -4.834  0.00  0.00    -0.274 OA
ATOM     36  N   UNL     1       5.348  -1.538  -3.110  0.00  0.00    -0.289 N 
ATOM     37  C   UNL     1       7.766  -2.453  -2.673  0.00  0.00    +0.020 C 
ATOM     38  C   UNL     1       6.573  -3.801  -0.915  0.00  0.00    +0.020 C 
ATOM     39  H   UNL     1       5.141  -0.897  -2.412  0.00  0.00    +0.151 HD
ENDBRANCH  21  31
ENDBRANCH   1  22
TORSDOF 5
