REMARK  Name = ZINC02468319
REMARK  5 active torsions:
REMARK  status: ('A' for Active; 'I' for Inactive)
REMARK    1  A    between atoms: C_10  and  C_12
REMARK    2  A    between atoms: C_12  and  S_13
REMARK    3  A    between atoms: S_13  and  C_14
REMARK    4  A    between atoms: N_18  and  C_19
REMARK    5  A    between atoms: C_22  and  N_25
REMARK                            x       y       z     vdW  Elec       q    Type
REMARK                         _______ _______ _______ _____ _____    ______ ____
ROOT
ATOM      1  C   UNL     1      -3.481   1.222   0.868  0.00  0.00    +0.174 A 
ATOM      2  N   UNL     1      -4.423   0.364   0.551  0.00  0.00    -0.230 NA
ATOM      3  C   UNL     1      -4.011  -0.387  -0.484  0.00  0.00    +0.131 A 
ATOM      4  C   UNL     1      -2.776   0.012  -0.833  0.00  0.00    +0.113 A 
ATOM      5  N   UNL     1      -2.429   1.039   0.019  0.00  0.00    -0.295 N 
ENDROOT
BRANCH   5   6
ATOM      6  C   UNL     1      -1.224   1.754   0.017  0.00  0.00    +0.049 A 
ATOM      7  C   UNL     1      -0.013   1.076   0.008  0.00  0.00    +0.028 A 
ATOM      8  C   UNL     1       1.174   1.783   0.000  0.00  0.00    +0.035 A 
ATOM      9  C   UNL     1       1.156   3.166   0.008  0.00  0.00    +0.126 A 
ATOM     10  C   UNL     1      -0.049   3.844   0.023  0.00  0.00    +0.035 A 
ATOM     11  C   UNL     1      -1.239   3.142   0.031  0.00  0.00    +0.028 A 
BRANCH   9  12
ATOM     12  N   UNL     1       2.429   3.921  -0.002  0.00  0.00    +0.056 N 
ATOM     13  O   UNL     1       3.491   3.325  -0.015  0.00  0.00    -0.126 OA
ATOM     14  O   UNL     1       2.414   5.139   0.005  0.00  0.00    -0.126 OA
ENDBRANCH   9  12
ENDBRANCH   5   6
BRANCH   1  15
ATOM     15  S   UNL     1      -3.563   2.411   2.166  0.00  0.00    -0.078 S 
BRANCH  15  16
ATOM     16  C   UNL     1      -5.213   2.050   2.818  0.00  0.00    +0.173 C 
BRANCH  16  26
ATOM     17  C   UNL     1      -9.950   0.366   4.011  0.00  0.00    +0.000 A 
ATOM     18  C   UNL     1      -8.866   0.207   3.167  0.00  0.00    +0.002 A 
ATOM     19  C   UNL     1      -7.752   1.006   3.310  0.00  0.00    +0.024 A 
ATOM     20  C   UNL     1      -7.709   1.982   4.307  0.00  0.00    +0.040 A 
ATOM     21  C   UNL     1      -8.800   2.134   5.148  0.00  0.00    -0.024 A 
ATOM     22  C   UNL     1      -9.915   1.331   5.001  0.00  0.00    +0.005 A 
ATOM     23  C   UNL     1      -8.502   3.247   6.127  0.00  0.00    +0.056 C 
ATOM     24  C   UNL     1      -7.089   3.723   5.753  0.00  0.00    +0.118 C 
ATOM     25  N   UNL     1      -6.689   2.887   4.618  0.00  0.00    -0.270 N 
ATOM     26  C   UNL     1      -5.510   2.974   3.972  0.00  0.00    +0.230 C 
ATOM     27  O   UNL     1      -4.687   3.795   4.319  0.00  0.00    -0.274 OA
ENDBRANCH  16  26
ENDBRANCH  15  16
ENDBRANCH   1  15
TORSDOF 5
