REMARK  Name = ZINC40679411
REMARK  10 active torsions:
REMARK  status: ('A' for Active; 'I' for Inactive)
REMARK    1  A    between atoms: C_1  and  C_2
REMARK    2  A    between atoms: C_2  and  N_3
REMARK    3  A    between atoms: N_3  and  C_4
REMARK    4  A    between atoms: C_11  and  N_36
REMARK    5  A    between atoms: C_12  and  N_16
REMARK    6  A    between atoms: N_16  and  C_17
REMARK    7  A    between atoms: C_20  and  C_24
REMARK    8  A    between atoms: C_22  and  C_23
REMARK    9  A    between atoms: C_24  and  C_26
REMARK   10  A    between atoms: C_24  and  C_28
REMARK                            x       y       z     vdW  Elec       q    Type
REMARK                         _______ _______ _______ _____ _____    ______ ____
ROOT
ATOM      1  N   UNL     1       0.784  -3.207  -5.723  0.00  0.00    -0.299 N 
ATOM      2  H   UNL     1       1.692  -3.514  -5.867  0.00  0.00    +0.154 HD
ENDROOT
BRANCH   1   6
ATOM      3  N   UNL     1       1.615  -2.571  -1.000  0.00  0.00    -0.284 N 
ATOM      4  C   UNL     1       0.788  -2.497  -2.115  0.00  0.00    +0.151 A 
ATOM      5  C   UNL     1       1.248  -2.908  -3.367  0.00  0.00    +0.104 A 
ATOM      6  C   UNL     1       0.376  -2.813  -4.453  0.00  0.00    +0.126 A 
ATOM      7  N   UNL     1      -0.852  -2.338  -4.255  0.00  0.00    -0.333 N 
ATOM      8  C   UNL     1      -1.246  -1.961  -3.055  0.00  0.00    +0.200 A 
ATOM      9  N   UNL     1      -0.457  -2.040  -2.003  0.00  0.00    -0.220 NA
ATOM     10  H   UNL     1      -1.464  -2.268  -5.004  0.00  0.00    +0.168 HD
BRANCH   3  11
ATOM     11  C   UNL     1       2.352  -1.452  -0.601  0.00  0.00    +0.035 A 
ATOM     12  C   UNL     1       3.086  -1.485   0.578  0.00  0.00    +0.023 A 
ATOM     13  C   UNL     1       3.812  -0.378   0.969  0.00  0.00    +0.002 A 
ATOM     14  C   UNL     1       3.810   0.764   0.188  0.00  0.00    +0.000 A 
ATOM     15  C   UNL     1       3.080   0.800  -0.986  0.00  0.00    +0.002 A 
ATOM     16  C   UNL     1       2.356  -0.305  -1.386  0.00  0.00    +0.023 A 
ENDBRANCH   3  11
BRANCH   5  17
ATOM     17  N   UNL     1       2.552  -3.402  -3.530  0.00  0.00    -0.353 N 
ATOM     18  H   UNL     1       3.121  -3.533  -2.756  0.00  0.00    +0.143 HD
ATOM     19  H   UNL     1       2.883  -3.612  -4.417  0.00  0.00    +0.143 HD
ENDBRANCH   5  17
BRANCH   3  21
ATOM     20  C   UNL     1       0.656  -3.835   0.861  0.00  0.00    +0.025 C 
ATOM     21  C   UNL     1       1.716  -3.821  -0.243  0.00  0.00    +0.109 C 
ENDBRANCH   3  21
ENDBRANCH   1   6
BRANCH   1  22
ATOM     22  C   UNL     1      -0.116  -3.162  -6.791  0.00  0.00    +0.037 A 
ATOM     23  C   UNL     1      -0.717  -4.329  -7.245  0.00  0.00    +0.043 A 
ATOM     24  C   UNL     1      -1.607  -4.280  -8.301  0.00  0.00    +0.047 A 
ATOM     25  C   UNL     1      -1.899  -3.070  -8.907  0.00  0.00    -0.008 A 
ATOM     26  C   UNL     1      -1.301  -1.907  -8.457  0.00  0.00    +0.011 A 
ATOM     27  C   UNL     1      -0.415  -1.949  -7.398  0.00  0.00    -0.029 A 
ATOM     28  C   UNL     1       0.230  -0.679  -6.905  0.00  0.00    +0.045 C 
ATOM     29 CL   UNL     1      -2.359  -5.738  -8.870  0.00  0.00    -0.083 Cl
BRANCH  25  30
ATOM     30  C   UNL     1      -2.869  -3.020 -10.059  0.00  0.00    +0.153 C 
BRANCH  30  31
ATOM     31  C   UNL     1      -2.141  -2.603 -11.311  0.00  0.00    -0.026 A 
ATOM     32  C   UNL     1      -1.665  -1.310 -11.435  0.00  0.00    +0.006 A 
ATOM     33  C   UNL     1      -0.998  -0.927 -12.583  0.00  0.00    +0.020 A 
ATOM     34  C   UNL     1      -0.805  -1.837 -13.608  0.00  0.00    +0.041 A 
ATOM     35  C   UNL     1      -1.281  -3.130 -13.482  0.00  0.00    +0.020 A 
ATOM     36  C   UNL     1      -1.943  -3.514 -12.332  0.00  0.00    +0.006 A 
ATOM     37 CL   UNL     1       0.033  -1.356 -15.050  0.00  0.00    -0.084 Cl
ENDBRANCH  30  31
BRANCH  30  38
ATOM     38  C   UNL     1      -3.933  -2.047  -9.762  0.00  0.00    +0.075 C 
ATOM     39  N   UNL     1      -4.754  -1.296  -9.534  0.00  0.00    -0.196 NA
ENDBRANCH  30  38
ENDBRANCH  25  30
ENDBRANCH   1  22
TORSDOF 8
