REMARK  Name = ZINC64986004
REMARK  9 active torsions:
REMARK  status: ('A' for Active; 'I' for Inactive)
REMARK    1  A    between atoms: C_1  and  C_2
REMARK    2  A    between atoms: C_5  and  S_8
REMARK    3  A    between atoms: S_8  and  N_11
REMARK    4  A    between atoms: C_13  and  C_23
REMARK    5  A    between atoms: C_20  and  C_22
REMARK    6  A    between atoms: N_25  and  C_26
REMARK    7  A    between atoms: C_29  and  C_32
REMARK    8  A    between atoms: C_32  and  O_34
REMARK    9  A    between atoms: O_34  and  C_35
REMARK                            x       y       z     vdW  Elec       q    Type
REMARK                         _______ _______ _______ _____ _____    ______ ____
ROOT
ATOM      1  N   UNL     1       1.606  -5.004  -0.066  0.00  0.00    -0.195 N 
ATOM      2  C   UNL     1       2.307  -5.308  -1.325  0.00  0.00    +0.186 C 
ATOM      3  C   UNL     1       3.721  -4.719  -1.222  0.00  0.00    +0.278 C 
ATOM      4  O   UNL     1       4.376  -5.292  -0.088  0.00  0.00    -0.476 OA
ATOM      5  C   UNL     1       3.707  -5.294   1.096  0.00  0.00    +0.144 A 
ATOM      6  C   UNL     1       2.324  -5.148   1.131  0.00  0.00    +0.093 A 
ATOM      7  C   UNL     1       1.657  -5.151   2.346  0.00  0.00    +0.029 A 
ATOM      8  C   UNL     1       2.369  -5.291   3.523  0.00  0.00    +0.005 A 
ATOM      9  C   UNL     1       3.744  -5.427   3.488  0.00  0.00    -0.047 A 
ATOM     10  C   UNL     1       4.411  -5.437   2.281  0.00  0.00    +0.051 A 
ATOM     11  C   UNL     1       4.516  -5.577   4.774  0.00  0.00    +0.044 C 
ENDROOT
BRANCH   3  12
ATOM     12  C   UNL     1       4.495  -5.044  -2.474  0.00  0.00    +0.260 C 
ATOM     13  O   UNL     1       5.467  -5.768  -2.415  0.00  0.00    -0.271 OA
ATOM     14  N   UNL     1       4.109  -4.530  -3.658  0.00  0.00    -0.282 N 
ATOM     15  H   UNL     1       3.380  -3.891  -3.695  0.00  0.00    +0.155 HD
BRANCH  14  16
ATOM     16  C   UNL     1       4.756  -4.917  -4.830  0.00  0.00    +0.034 A 
ATOM     17  C   UNL     1       5.246  -6.213  -4.958  0.00  0.00    +0.024 A 
ATOM     18  C   UNL     1       5.886  -6.598  -6.114  0.00  0.00    +0.017 A 
ATOM     19  C   UNL     1       6.043  -5.685  -7.161  0.00  0.00    +0.059 A 
ATOM     20  C   UNL     1       5.550  -4.384  -7.030  0.00  0.00    +0.017 A 
ATOM     21  C   UNL     1       4.907  -4.007  -5.872  0.00  0.00    +0.024 A 
BRANCH  19  22
ATOM     22  C   UNL     1       6.729  -6.094  -8.401  0.00  0.00    +0.339 C 
ATOM     23  O   UNL     1       7.157  -7.225  -8.514  0.00  0.00    -0.245 OA
BRANCH  22  24
ATOM     24  O   UNL     1       6.880  -5.213  -9.409  0.00  0.00    -0.464 OA
ATOM     25  C   UNL     1       7.553  -5.677 -10.581  0.00  0.00    +0.280 C 
ENDBRANCH  22  24
ENDBRANCH  19  22
ENDBRANCH  14  16
ENDBRANCH   3  12
BRANCH   1  26
ATOM     26  S   UNL     1       0.027  -4.504  -0.063  0.00  0.00    +0.075 S 
ATOM     27  O   UNL     1      -0.253  -4.036  -1.375  0.00  0.00    -0.150 OA
ATOM     28  O   UNL     1      -0.138  -3.687   1.088  0.00  0.00    -0.150 OA
BRANCH  26  33
ATOM     29  C   UNL     1      -3.398  -9.397   0.790  0.00  0.00    +0.044 C 
ATOM     30  C   UNL     1      -2.542  -8.175   0.577  0.00  0.00    -0.050 A 
ATOM     31  C   UNL     1      -2.094  -7.447   1.663  0.00  0.00    +0.005 A 
ATOM     32  C   UNL     1      -1.309  -6.326   1.468  0.00  0.00    +0.029 A 
ATOM     33  C   UNL     1      -0.972  -5.933   0.186  0.00  0.00    +0.109 A 
ATOM     34  C   UNL     1      -1.420  -6.662  -0.900  0.00  0.00    +0.029 A 
ATOM     35  C   UNL     1      -2.201  -7.785  -0.705  0.00  0.00    +0.005 A 
ENDBRANCH  26  33
ENDBRANCH   1  26
TORSDOF 6
