REMARK  Name = ZINC41418993
REMARK  6 active torsions:
REMARK  status: ('A' for Active; 'I' for Inactive)
REMARK    1  A    between atoms: C_1  and  C_2
REMARK    2  A    between atoms: C_5  and  N_9
REMARK    3  A    between atoms: C_7  and  C_8
REMARK    4  A    between atoms: C_11  and  C_17
REMARK    5  A    between atoms: C_17  and  N_18
REMARK    6  A    between atoms: N_21  and  C_22
REMARK                            x       y       z     vdW  Elec       q    Type
REMARK                         _______ _______ _______ _____ _____    ______ ____
ROOT
ATOM      1  N   UNL     1       0.059  -4.170  -0.021  0.00  0.00    -0.267 N 
ATOM      2  C   UNL     1      -0.045  -4.866  -1.301  0.00  0.00    +0.147 C 
ATOM      3  C   UNL     1       0.443  -6.309  -1.150  0.00  0.00    +0.154 C 
ATOM      4  O   UNL     1      -0.194  -6.892  -0.008  0.00  0.00    -0.364 OA
ATOM      5  C   UNL     1       0.240  -6.318   1.227  0.00  0.00    +0.256 C 
ATOM      6  C   UNL     1       0.176  -4.818   1.144  0.00  0.00    +0.246 C 
ATOM      7  O   UNL     1       0.227  -4.173   2.170  0.00  0.00    -0.273 OA
ENDROOT
BRANCH   1  12
ATOM      8  C   UNL     1      -0.017   1.503   0.008  0.00  0.00    +0.044 C 
ATOM      9  C   UNL     1       0.003  -0.004   0.001  0.00  0.00    -0.047 A 
ATOM     10  C   UNL     1       1.207  -0.678  -0.097  0.00  0.00    +0.005 A 
ATOM     11  C   UNL     1       1.229  -2.058  -0.104  0.00  0.00    +0.024 A 
ATOM     12  C   UNL     1       0.040  -2.771  -0.013  0.00  0.00    +0.037 A 
ATOM     13  C   UNL     1      -1.167  -2.091   0.085  0.00  0.00    +0.027 A 
ATOM     14  C   UNL     1      -1.181  -0.710   0.097  0.00  0.00    -0.046 A 
ATOM     15  C   UNL     1      -2.491   0.028   0.209  0.00  0.00    +0.044 C 
ENDBRANCH   1  12
BRANCH   3  16
ATOM     16  C   UNL     1       0.084  -7.106  -2.406  0.00  0.00    +0.139 C 
BRANCH  16  17
ATOM     17  N   UNL     1       0.552  -8.486  -2.259  0.00  0.00    -0.297 N 
ATOM     18  C   UNL     1       0.345  -9.377  -3.248  0.00  0.00    +0.300 C 
ATOM     19  O   UNL     1      -0.231  -9.036  -4.263  0.00  0.00    -0.253 OA
ATOM     20  N   UNL     1       0.775 -10.647  -3.113  0.00  0.00    -0.297 N 
ATOM     21  H   UNL     1       1.012  -8.759  -1.449  0.00  0.00    +0.150 HD
ATOM     22  H   UNL     1       1.235 -10.920  -2.303  0.00  0.00    +0.151 HD
BRANCH  20  23
ATOM     23  C   UNL     1       0.550 -11.616  -4.188  0.00  0.00    +0.074 C 
ATOM     24  C   UNL     1      -0.844 -12.228  -4.039  0.00  0.00    +0.022 C 
ATOM     25  C   UNL     1      -1.080 -13.240  -5.162  0.00  0.00    +0.002 C 
ATOM     26  C   UNL     1      -0.026 -14.346  -5.082  0.00  0.00    +0.000 C 
ATOM     27  C   UNL     1       1.369 -13.734  -5.231  0.00  0.00    +0.002 C 
ATOM     28  C   UNL     1       1.604 -12.722  -4.108  0.00  0.00    +0.022 C 
ENDBRANCH  20  23
ENDBRANCH  16  17
ENDBRANCH   3  16
TORSDOF 4
