REMARK  Name = ZINC01926979
REMARK  11 active torsions:
REMARK  status: ('A' for Active; 'I' for Inactive)
REMARK    1  A    between atoms: C_1  and  C_2
REMARK    2  A    between atoms: C_2  and  C_3
REMARK    3  A    between atoms: C_7  and  C_28
REMARK    4  A    between atoms: C_8  and  N_9
REMARK    5  A    between atoms: N_9  and  C_10
REMARK    6  A    between atoms: C_10  and  O_11
REMARK    7  A    between atoms: O_11  and  C_12
REMARK    8  A    between atoms: C_12  and  C_13
REMARK    9  A    between atoms: C_14  and  C_16
REMARK   10  A    between atoms: C_16  and  S_17
REMARK   11  A    between atoms: S_17  and  C_18
REMARK                            x       y       z     vdW  Elec       q    Type
REMARK                         _______ _______ _______ _____ _____    ______ ____
ROOT
ATOM      1  N   UNL     1      -1.657  -0.521  -2.280  0.00  0.00    -0.246 N 
ATOM      2  C   UNL     1      -1.692   0.725  -2.793  0.00  0.00    +0.232 C 
ATOM      3  O   UNL     1      -1.132   0.965  -3.841  0.00  0.00    -0.274 OA
ENDROOT
BRANCH   1   9
ATOM      4  C   UNL     1      -1.446  -0.798   0.110  0.00  0.00    -0.026 A 
ATOM      5  C   UNL     1      -2.021  -1.049   1.341  0.00  0.00    +0.005 A 
ATOM      6  C   UNL     1      -3.380  -1.288   1.435  0.00  0.00    +0.001 A 
ATOM      7  C   UNL     1      -4.168  -1.276   0.299  0.00  0.00    +0.005 A 
ATOM      8  C   UNL     1      -3.599  -1.026  -0.935  0.00  0.00    -0.029 A 
ATOM      9  C   UNL     1      -2.236  -0.781  -1.032  0.00  0.00    +0.045 A 
ATOM     10  C   UNL     1      -4.458  -1.014  -2.173  0.00  0.00    +0.045 C 
BRANCH   4  12
ATOM     11  C   UNL     1       0.294   0.968   0.083  0.00  0.00    +0.009 C 
ATOM     12  C   UNL     1       0.034  -0.538   0.008  0.00  0.00    +0.033 C 
ENDBRANCH   4  12
ENDBRANCH   1   9
BRANCH   1  13
ATOM     13  C   UNL     1      -1.014  -1.604  -3.028  0.00  0.00    +0.275 C 
BRANCH  13  14
ATOM     14  O   UNL     1      -2.015  -2.451  -3.597  0.00  0.00    -0.361 OA
BRANCH  14  15
ATOM     15  C   UNL     1      -2.596  -1.938  -4.798  0.00  0.00    +0.158 C 
ATOM     16  C   UNL     1      -3.648  -2.921  -5.315  0.00  0.00    +0.034 C 
ENDBRANCH  14  15
ENDBRANCH  13  14
ENDBRANCH   1  13
BRANCH   2  17
ATOM     17  C   UNL     1      -2.429   1.819  -2.064  0.00  0.00    +0.173 C 
BRANCH  17  18
ATOM     18  S   UNL     1      -2.451   3.317  -3.087  0.00  0.00    -0.079 S 
BRANCH  18  19
ATOM     19  C   UNL     1      -3.335   4.487  -2.109  0.00  0.00    +0.168 A 
ATOM     20  N   UNL     1      -3.607   5.774  -2.480  0.00  0.00    -0.333 N 
ATOM     21  H   UNL     1      -3.353   6.198  -3.314  0.00  0.00    +0.168 HD
ATOM     22  C   UNL     1      -4.315   6.359  -1.442  0.00  0.00    +0.067 A 
ATOM     23  C   UNL     1      -4.856   7.619  -1.238  0.00  0.00    +0.028 A 
ATOM     24  C   UNL     1      -5.522   7.899  -0.063  0.00  0.00    +0.002 A 
ATOM     25  C   UNL     1      -5.654   6.927   0.917  0.00  0.00    +0.002 A 
ATOM     26  C   UNL     1      -5.123   5.670   0.732  0.00  0.00    +0.030 A 
ATOM     27  C   UNL     1      -4.446   5.371  -0.453  0.00  0.00    +0.090 A 
ATOM     28  N   UNL     1      -3.833   4.252  -0.920  0.00  0.00    -0.222 NA
ENDBRANCH  18  19
ENDBRANCH  17  18
ENDBRANCH   2  17
TORSDOF 8
