REMARK  Name = ZINC11973289
REMARK  5 active torsions:
REMARK  status: ('A' for Active; 'I' for Inactive)
REMARK    1  A    between atoms: C_4  and  C_7
REMARK    2  A    between atoms: C_10  and  C_32
REMARK    3  A    between atoms: C_12  and  C_13
REMARK    4  A    between atoms: C_19  and  C_20
REMARK    5  A    between atoms: C_19  and  N_63
REMARK                            x       y       z     vdW  Elec       q    Type
REMARK                         _______ _______ _______ _____ _____    ______ ____
ROOT
ATOM      1  C   UNL     1      -3.246  -2.289  -2.830  0.00  0.00    +0.022 C 
ATOM      2  C   UNL     1      -2.075  -2.841  -3.649  0.00  0.00    +0.006 C 
ATOM      3  C   UNL     1      -0.902  -1.860  -3.573  0.00  0.00    -0.018 C 
ATOM      4  C   UNL     1      -0.515  -1.648  -2.108  0.00  0.00    -0.078 C 
ATOM      5  C   UNL     1      -2.791  -2.065  -1.386  0.00  0.00    -0.069 C 
ATOM      6  N   UNL     1      -1.677  -1.093  -1.380  0.00  0.00    +0.383 N 
ATOM      7  H   UNL     1      -1.983  -0.232  -1.848  0.00  0.00    -0.081 HD
ENDROOT
BRANCH   1  13
ATOM      8  C   UNL     1      -5.631  -2.910  -3.368  0.00  0.00    +0.022 A 
ATOM      9  C   UNL     1      -6.655  -3.863  -3.366  0.00  0.00    +0.123 A 
ATOM     10  N   UNL     1      -6.411  -5.065  -2.879  0.00  0.00    -0.235 NA
ATOM     11  C   UNL     1      -5.215  -5.374  -2.397  0.00  0.00    +0.160 A 
ATOM     12  N   UNL     1      -4.217  -4.501  -2.387  0.00  0.00    -0.231 NA
ATOM     13  C   UNL     1      -4.384  -3.276  -2.851  0.00  0.00    +0.054 A 
BRANCH   8  17
ATOM     14  C   UNL     1      -6.290   0.997  -4.910  0.00  0.00    +0.000 A 
ATOM     15  C   UNL     1      -6.650  -0.109  -5.658  0.00  0.00    +0.001 A 
ATOM     16  C   UNL     1      -6.438  -1.380  -5.163  0.00  0.00    +0.008 A 
ATOM     17  C   UNL     1      -5.861  -1.548  -3.906  0.00  0.00    -0.015 A 
ATOM     18  C   UNL     1      -5.505  -0.429  -3.153  0.00  0.00    +0.008 A 
ATOM     19  C   UNL     1      -5.715   0.836  -3.661  0.00  0.00    +0.001 A 
ENDBRANCH   8  17
BRANCH  11  20
ATOM     20  C   UNL     1      -4.984  -6.738  -1.860  0.00  0.00    +0.022 A 
ATOM     21  C   UNL     1      -3.737  -7.107  -1.348  0.00  0.00    +0.031 A 
ATOM     22  C   UNL     1      -3.568  -8.384  -0.854  0.00  0.00    +0.111 A 
ATOM     23  N   UNL     1      -4.560  -9.253  -0.870  0.00  0.00    -0.263 NA
ATOM     24  C   UNL     1      -5.750  -8.948  -1.349  0.00  0.00    +0.111 A 
ATOM     25  C   UNL     1      -6.007  -7.691  -1.858  0.00  0.00    +0.031 A 
ENDBRANCH  11  20
ENDBRANCH   1  13
BRANCH   6  26
ATOM     26  C   UNL     1      -1.294  -0.772   0.011  0.00  0.00    -0.038 C 
BRANCH  26  27
ATOM     27  C   UNL     1       0.002  -0.004   0.002  0.00  0.00    +0.001 A 
ATOM     28  C   UNL     1      -0.016   1.352   0.009  0.00  0.00    +0.017 A 
ATOM     29  C   UNL     1       1.260   2.068   0.001  0.00  0.00    -0.001 A 
ATOM     30  C   UNL     1       1.305   3.467   0.008  0.00  0.00    +0.010 A 
ATOM     31  C   UNL     1       2.512   4.106   0.000  0.00  0.00    +0.001 A 
ATOM     32  C   UNL     1       3.696   3.380  -0.015  0.00  0.00    +0.002 A 
ATOM     33  C   UNL     1       3.676   2.002  -0.022  0.00  0.00    +0.026 A 
ATOM     34  C   UNL     1       2.458   1.329  -0.014  0.00  0.00    +0.049 A 
ATOM     35  N   UNL     1       2.408  -0.049  -0.022  0.00  0.00    -0.322 N 
ATOM     36  H   UNL     1       3.234  -0.557  -0.033  0.00  0.00    +0.169 HD
ATOM     37  C   UNL     1       1.231  -0.698  -0.013  0.00  0.00    +0.251 A 
ATOM     38  O   UNL     1       1.225  -1.917  -0.020  0.00  0.00    -0.268 OA
ENDBRANCH  26  27
ENDBRANCH   6  26
TORSDOF 5
