REMARK  Name = ZINC59749302
REMARK  5 active torsions:
REMARK  status: ('A' for Active; 'I' for Inactive)
REMARK    1  A    between atoms: C_1  and  O_2
REMARK    2  A    between atoms: O_2  and  C_3
REMARK    3  A    between atoms: C_3  and  C_4
REMARK    4  A    between atoms: C_9  and  C_12
REMARK    5  A    between atoms: N_14  and  C_15
REMARK                            x       y       z     vdW  Elec       q    Type
REMARK                         _______ _______ _______ _____ _____    ______ ____
ROOT
ATOM      1  C   UNL     1       0.752  -4.853  -5.706  0.00  0.00    +0.216 C 
ATOM      2  O   UNL     1       0.307  -4.107  -6.552  0.00  0.00    -0.276 OA
ATOM      3  N   UNL     1       0.741  -6.185  -5.908  0.00  0.00    -0.312 N 
ATOM      4  H   UNL     1       1.097  -6.782  -5.231  0.00  0.00    +0.149 HD
ENDROOT
BRANCH   1  10
ATOM      5  C   UNL     1       0.614  -2.074  -1.042  0.00  0.00    +0.241 C 
ATOM      6  O   UNL     1       0.082  -2.608  -0.092  0.00  0.00    -0.273 OA
ATOM      7  N   UNL     1       1.170  -2.825  -2.014  0.00  0.00    -0.300 N 
ATOM      8  C   UNL     1       1.823  -2.192  -3.168  0.00  0.00    +0.108 C 
ATOM      9  C   UNL     1       1.213  -2.763  -4.452  0.00  0.00    +0.032 C 
ATOM     10  C   UNL     1       1.320  -4.290  -4.428  0.00  0.00    +0.078 C 
ATOM     11  C   UNL     1       0.534  -4.839  -3.236  0.00  0.00    +0.032 C 
ATOM     12  C   UNL     1       1.141  -4.292  -1.935  0.00  0.00    +0.108 C 
BRANCH   5  13
ATOM     13  C   UNL     1       0.652  -0.570  -1.138  0.00  0.00    +0.255 C 
BRANCH  13  15
ATOM     14  C   UNL     1      -0.017   1.425   0.010  0.00  0.00    +0.194 C 
ATOM     15  O   UNL     1       0.002  -0.004   0.002  0.00  0.00    -0.374 OA
ENDBRANCH  13  15
ENDBRANCH   5  13
ENDBRANCH   1  10
BRANCH   3  16
ATOM     16  C   UNL     1       0.189  -6.733  -7.150  0.00  0.00    +0.073 C 
ATOM     17  C   UNL     1      -1.327  -6.888  -7.010  0.00  0.00    +0.022 C 
ATOM     18  C   UNL     1      -1.951  -7.072  -8.394  0.00  0.00    +0.002 C 
ATOM     19  C   UNL     1      -1.328  -6.074  -9.372  0.00  0.00    +0.000 C 
ATOM     20  C   UNL     1      -0.504  -6.829 -10.416  0.00  0.00    +0.000 C 
ATOM     21  C   UNL     1       0.816  -7.284  -9.791  0.00  0.00    +0.000 C 
ATOM     22  C   UNL     1       0.561  -8.491  -8.885  0.00  0.00    +0.002 C 
ATOM     23  C   UNL     1       0.818  -8.099  -7.429  0.00  0.00    +0.022 C 
ENDBRANCH   3  16
TORSDOF 4
