REMARK  Name = ZINC14058646
REMARK  7 active torsions:
REMARK  status: ('A' for Active; 'I' for Inactive)
REMARK    1  A    between atoms: C_1  and  C_2
REMARK    2  A    between atoms: C_2  and  N_3
REMARK    3  A    between atoms: N_14  and  C_15
REMARK    4  A    between atoms: C_15  and  C_17
REMARK    5  A    between atoms: C_17  and  S_18
REMARK    6  A    between atoms: S_18  and  C_21
REMARK    7  A    between atoms: C_24  and  C_27
REMARK                            x       y       z     vdW  Elec       q    Type
REMARK                         _______ _______ _______ _____ _____    ______ ____
ROOT
ATOM      1  N   UNL     1       1.028   8.501   4.378  0.00  0.00    -0.320 N 
ATOM      2  C   UNL     1       1.246   9.866   4.329  0.00  0.00    +0.076 A 
ATOM      3  C   UNL     1       1.111  10.439   3.056  0.00  0.00    +0.042 A 
ATOM      4  C   UNL     1       1.288  11.784   2.829  0.00  0.00    +0.037 A 
ATOM      5  C   UNL     1       1.612  12.618   3.886  0.00  0.00    +0.044 A 
ATOM      6  C   UNL     1       1.753  12.080   5.155  0.00  0.00    +0.042 A 
ATOM      7  C   UNL     1       1.576  10.735   5.382  0.00  0.00    +0.067 A 
ATOM      8 CL   UNL     1       1.762  10.104   6.988  0.00  0.00    -0.081 Cl
ATOM      9 CL   UNL     1       1.841  14.319   3.623  0.00  0.00    -0.083 Cl
ATOM     10  S   UNL     1       0.701   9.052   2.026  0.00  0.00    -0.052 S 
ATOM     11  C   UNL     1       0.720   7.818   3.245  0.00  0.00    +0.166 A 
ATOM     12  N   UNL     1       0.483   6.516   3.104  0.00  0.00    -0.155 NA
ENDROOT
BRANCH   1  14
ATOM     13  C   UNL     1       0.323   6.494   5.585  0.00  0.00    +0.027 C 
ATOM     14  C   UNL     1       1.133   7.790   5.655  0.00  0.00    +0.121 C 
ENDBRANCH   1  14
BRANCH  12  15
ATOM     15  C   UNL     1       0.188   6.020   1.907  0.00  0.00    +0.260 C 
ATOM     16  O   UNL     1       0.135   6.755   0.940  0.00  0.00    -0.272 OA
BRANCH  15  17
ATOM     17  C   UNL     1      -0.080   4.545   1.748  0.00  0.00    +0.269 C 
BRANCH  17  18
ATOM     18  S   UNL     1      -0.450   4.182   0.009  0.00  0.00    +0.005 S 
ATOM     19  O   UNL     1       0.709   4.378  -0.789  0.00  0.00    -0.169 OA
ATOM     20  O   UNL     1      -1.691   4.768  -0.359  0.00  0.00    -0.169 OA
BRANCH  18  21
ATOM     21  C   UNL     1      -0.741   2.445  -0.039  0.00  0.00    +0.089 A 
ATOM     22  C   UNL     1      -2.018   1.953   0.151  0.00  0.00    +0.027 A 
ATOM     23  C   UNL     1      -2.246   0.590   0.113  0.00  0.00    +0.005 A 
ATOM     24  C   UNL     1      -1.197  -0.281  -0.115  0.00  0.00    -0.050 A 
ATOM     25  C   UNL     1       0.081   0.212  -0.305  0.00  0.00    +0.005 A 
ATOM     26  C   UNL     1       0.309   1.575  -0.268  0.00  0.00    +0.027 A 
ATOM     27  C   UNL     1      -1.445  -1.766  -0.155  0.00  0.00    +0.044 C 
ENDBRANCH  18  21
ENDBRANCH  17  18
ENDBRANCH  15  17
ENDBRANCH  12  15
TORSDOF 5
