REMARK  Name = ZINC65191026
REMARK  9 active torsions:
REMARK  status: ('A' for Active; 'I' for Inactive)
REMARK    1  A    between atoms: C_1  and  C_2
REMARK    2  A    between atoms: C_2  and  N_3
REMARK    3  A    between atoms: N_6  and  N_7
REMARK    4  A    between atoms: C_8  and  C_10
REMARK    5  A    between atoms: N_13  and  S_16
REMARK    6  A    between atoms: S_16  and  C_19
REMARK    7  A    between atoms: C_20  and  C_27
REMARK    8  A    between atoms: C_22  and  C_26
REMARK    9  A    between atoms: C_24  and  C_25
REMARK                            x       y       z     vdW  Elec       q    Type
REMARK                         _______ _______ _______ _____ _____    ______ ____
ROOT
ATOM      1  C   UNL     1       2.589   0.239   5.439  0.00  0.00    +0.079 C 
ATOM      2  C   UNL     1       1.726   1.158   6.306  0.00  0.00    +0.030 C 
ATOM      3  C   UNL     1       2.598   1.798   7.391  0.00  0.00    +0.110 C 
ATOM      4  N   UNL     1       3.283   0.733   8.136  0.00  0.00    -0.177 NA
ATOM      5  C   UNL     1       4.067  -0.260   7.390  0.00  0.00    +0.110 C 
ATOM      6  C   UNL     1       3.179  -0.877   6.305  0.00  0.00    +0.030 C 
ENDROOT
BRANCH   1   8
ATOM      7  N   UNL     1       1.117   0.431   3.460  0.00  0.00    -0.233 N 
ATOM      8  C   UNL     1       1.741  -0.366   4.350  0.00  0.00    +0.232 C 
ATOM      9  O   UNL     1       1.620  -1.570   4.274  0.00  0.00    -0.274 OA
ATOM     10  H   UNL     1       1.214   1.395   3.521  0.00  0.00    +0.173 HD
BRANCH   7  14
ATOM     11  N   UNL     1      -0.161   2.005   1.643  0.00  0.00    -0.298 N 
ATOM     12  C   UNL     1      -0.295   0.666   1.558  0.00  0.00    +0.316 C 
ATOM     13  O   UNL     1      -0.980   0.178   0.680  0.00  0.00    -0.251 OA
ATOM     14  N   UNL     1       0.329  -0.131   2.448  0.00  0.00    -0.218 N 
ATOM     15  H   UNL     1       0.385   2.394   2.344  0.00  0.00    +0.150 HD
ATOM     16  H   UNL     1       0.232  -1.094   2.387  0.00  0.00    +0.174 HD
BRANCH  11  18
ATOM     17  C   UNL     1      -0.524   4.335   0.994  0.00  0.00    +0.024 C 
ATOM     18  C   UNL     1      -0.840   2.872   0.676  0.00  0.00    +0.102 C 
ENDBRANCH  11  18
ENDBRANCH   7  14
ENDBRANCH   1   8
BRANCH   4  19
ATOM     19  S   UNL     1       3.172   0.653   9.787  0.00  0.00    +0.061 S 
ATOM     20  O   UNL     1       4.375   0.052  10.245  0.00  0.00    -0.153 OA
ATOM     21  O   UNL     1       2.745   1.935  10.228  0.00  0.00    -0.153 OA
BRANCH  19  22
ATOM     22  C   UNL     1       1.870  -0.471  10.168  0.00  0.00    +0.111 A 
ATOM     23  C   UNL     1       2.161  -1.787  10.475  0.00  0.00    -0.024 A 
ATOM     24  C   UNL     1       1.139  -2.669  10.774  0.00  0.00    +0.008 A 
ATOM     25  C   UNL     1      -0.173  -2.235  10.767  0.00  0.00    -0.050 A 
ATOM     26  C   UNL     1      -0.464  -0.918  10.461  0.00  0.00    +0.008 A 
ATOM     27  C   UNL     1       0.558  -0.035  10.166  0.00  0.00    -0.024 A 
ATOM     28  C   UNL     1       0.242   1.401   9.838  0.00  0.00    +0.046 C 
ATOM     29  C   UNL     1      -1.287  -3.196  11.092  0.00  0.00    +0.044 C 
ATOM     30  C   UNL     1       3.591  -2.261  10.483  0.00  0.00    +0.046 C 
ENDBRANCH  19  22
ENDBRANCH   4  19
TORSDOF 5
