REMARK  Name = ZINC02113951
REMARK  14 active torsions:
REMARK  status: ('A' for Active; 'I' for Inactive)
REMARK    1  A    between atoms: C_1  and  C_2
REMARK    2  A    between atoms: C_6  and  C_32
REMARK    3  A    between atoms: C_10  and  C_31
REMARK    4  A    between atoms: C_15  and  C_16
REMARK    5  A    between atoms: C_16  and  C_17
REMARK    6  A    between atoms: N_19  and  CA_20
REMARK    7  A    between atoms: CA_20  and  C_22
REMARK    8  A    between atoms: CA_20  and  C_29
REMARK    9  A    between atoms: C_22  and  C_23
REMARK   10  A    between atoms: C_23  and  C_24
REMARK   11  A    between atoms: C_24  and  N_25
REMARK   12  A    between atoms: C_32  and  C_33
REMARK   13  A    between atoms: C_32  and  C_34
REMARK   14  A    between atoms: C_32  and  C_35
REMARK                            x       y       z     vdW  Elec       q    Type
REMARK                         _______ _______ _______ _____ _____    ______ ____
ROOT
ATOM      1  C   UNL     1       0.093  -4.618   3.497  0.00  0.00    +0.045 C 
ATOM      2  C   UNL     1       0.744  -5.800   2.827  0.00  0.00    -0.029 A 
ATOM      3  C   UNL     1       0.341  -7.170   3.160  0.00  0.00    +0.022 A 
ATOM      4  C   UNL     1      -0.655  -7.411   4.106  0.00  0.00    +0.023 A 
ATOM      5  C   UNL     1      -1.009  -8.720   4.402  0.00  0.00    +0.025 A 
ATOM      6  C   UNL     1      -1.984  -9.334   5.315  0.00  0.00    +0.003 A 
ATOM      7  C   UNL     1      -1.861 -10.657   5.156  0.00  0.00    +0.200 A 
ATOM      8  O   UNL     1      -0.914 -10.931   4.241  0.00  0.00    -0.462 OA
ATOM      9  C   UNL     1      -0.369  -9.797   3.756  0.00  0.00    +0.141 A 
ATOM     10  C   UNL     1       0.621  -9.549   2.817  0.00  0.00    +0.035 A 
ATOM     11  C   UNL     1       0.981  -8.248   2.514  0.00  0.00    +0.146 A 
ATOM     12  O   UNL     1       1.947  -8.002   1.600  0.00  0.00    -0.422 OA
ATOM     13  C   UNL     1       2.315  -6.750   1.288  0.00  0.00    +0.341 A 
ATOM     14  O   UNL     1       3.190  -6.578   0.459  0.00  0.00    -0.245 OA
ATOM     15  C   UNL     1       1.717  -5.626   1.897  0.00  0.00    +0.049 A 
ATOM     16  C   UNL     1       1.306 -10.700   2.125  0.00  0.00    +0.051 C 
ENDROOT
BRANCH   6  17
ATOM     17  C   UNL     1      -2.930  -8.617   6.243  0.00  0.00    -0.009 C 
ATOM     18  C   UNL     1      -3.767  -9.644   7.010  0.00  0.00    +0.015 C 
ATOM     19  C   UNL     1      -2.130  -7.770   7.234  0.00  0.00    +0.015 C 
ATOM     20  C   UNL     1      -3.856  -7.712   5.429  0.00  0.00    +0.015 C 
ENDBRANCH   6  17
BRANCH  15  21
ATOM     21  C   UNL     1       2.161  -4.236   1.519  0.00  0.00    +0.138 C 
BRANCH  21  22
ATOM     22  C   UNL     1       1.328  -3.739   0.366  0.00  0.00    +0.218 C 
ATOM     23  O   UNL     1       0.460  -4.443  -0.103  0.00  0.00    -0.275 OA
ATOM     24  N   UNL     1       1.548  -2.511  -0.144  0.00  0.00    -0.302 N 
ATOM     25  H   UNL     1       2.243  -1.947   0.231  0.00  0.00    +0.150 HD
BRANCH  24  26
ATOM     26  CA  UNL     1       0.739  -2.027  -1.265  0.00  0.00    +0.186 C 
BRANCH  26  27
ATOM     27  C   UNL     1       1.334  -2.514  -2.561  0.00  0.00    +0.376 C 
ATOM     28  O   UNL     1       2.332  -3.196  -2.550  0.00  0.00    -0.244 OA
ATOM     29  OXT UNL     1       0.755  -2.192  -3.729  0.00  0.00    -0.244 OA
ENDBRANCH  26  27
BRANCH  26  30
ATOM     30  C   UNL     1       0.718  -0.497  -1.257  0.00  0.00    +0.035 C 
BRANCH  30  31
ATOM     31  C   UNL     1       0.002  -0.004   0.002  0.00  0.00    +0.021 C 
BRANCH  31  32
ATOM     32  C   UNL     1      -0.019   1.526   0.010  0.00  0.00    +0.106 C 
BRANCH  32  33
ATOM     33  N   UNL     1      -0.704   1.998   1.216  0.00  0.00    -0.300 N 
ATOM     34  C   UNL     1      -0.843   3.320   1.438  0.00  0.00    +0.297 C 
ATOM     35  O   UNL     1      -0.400   4.121   0.637  0.00  0.00    -0.253 OA
ATOM     36  N   UNL     1      -1.474   3.755   2.546  0.00  0.00    -0.313 N 
ATOM     37  H   UNL     1      -1.058   1.359   1.854  0.00  0.00    +0.150 HD
ATOM     38  H   UNL     1      -1.828   3.116   3.185  0.00  0.00    +0.146 HD
ATOM     39  H   UNL     1      -1.574   4.707   2.706  0.00  0.00    +0.146 HD
ENDBRANCH  32  33
ENDBRANCH  31  32
ENDBRANCH  30  31
ENDBRANCH  26  30
ENDBRANCH  24  26
ENDBRANCH  21  22
ENDBRANCH  15  21
TORSDOF 9
