REMARK  Name = ZINC36028192
REMARK  11 active torsions:
REMARK  status: ('A' for Active; 'I' for Inactive)
REMARK    1  A    between atoms: C_1  and  C_2
REMARK    2  A    between atoms: C_2  and  C_3
REMARK    3  A    between atoms: C_3  and  C_5
REMARK    4  A    between atoms: C_3  and  C_6
REMARK    5  A    between atoms: C_6  and  N_7
REMARK    6  A    between atoms: C_10  and  C_29
REMARK    7  A    between atoms: N_16  and  S_19
REMARK    8  A    between atoms: S_19  and  C_22
REMARK    9  A    between atoms: C_29  and  C_31
REMARK   10  A    between atoms: C_29  and  C_32
REMARK   11  A    between atoms: C_32  and  C_33
REMARK                            x       y       z     vdW  Elec       q    Type
REMARK                         _______ _______ _______ _____ _____    ______ ____
ROOT
ATOM      1  N   UNL     1       1.448  -2.486  -2.362  0.00  0.00    -0.313 N 
ATOM      2  C   UNL     1       0.935  -2.653  -3.599  0.00  0.00    +0.201 C 
ATOM      3  O   UNL     1      -0.212  -2.437  -3.925  0.00  0.00    -0.277 OA
ATOM      4  C   UNL     1       2.034  -3.156  -4.510  0.00  0.00    +0.022 C 
ATOM      5  N   UNL     1       3.292  -2.866  -3.781  0.00  0.00    +0.401 N 
ATOM      6  C   UNL     1       2.867  -2.853  -2.368  0.00  0.00    +0.006 C 
ATOM      7  C   UNL     1       3.057  -4.243  -1.763  0.00  0.00    +0.023 C 
ATOM      8  C   UNL     1       2.580  -4.233  -0.307  0.00  0.00    +0.109 C 
ATOM      9  N   UNL     1       3.272  -3.154   0.410  0.00  0.00    -0.177 NA
ATOM     10  C   UNL     1       3.211  -1.791  -0.134  0.00  0.00    +0.109 C 
ATOM     11  C   UNL     1       3.683  -1.820  -1.592  0.00  0.00    +0.023 C 
ATOM     12  H   UNL     1       3.974  -3.593  -3.944  0.00  0.00    -0.082 HD
ATOM     13  H   UNL     1       3.659  -1.965  -4.048  0.00  0.00    -0.082 HD
ENDROOT
BRANCH   9  14
ATOM     14  S   UNL     1       4.106  -3.468   1.806  0.00  0.00    +0.061 S 
ATOM     15  O   UNL     1       4.166  -2.245   2.527  0.00  0.00    -0.153 OA
ATOM     16  O   UNL     1       3.544  -4.651   2.357  0.00  0.00    -0.153 OA
BRANCH  14  17
ATOM     17  C   UNL     1       5.761  -3.864   1.347  0.00  0.00    +0.107 A 
ATOM     18  C   UNL     1       6.109  -5.175   1.080  0.00  0.00    +0.028 A 
ATOM     19  C   UNL     1       7.407  -5.486   0.720  0.00  0.00    +0.003 A 
ATOM     20  C   UNL     1       8.357  -4.487   0.627  0.00  0.00    +0.020 A 
ATOM     21  C   UNL     1       8.009  -3.175   0.894  0.00  0.00    +0.043 A 
ATOM     22  C   UNL     1       6.708  -2.863   1.249  0.00  0.00    +0.048 A 
ATOM     23 CL   UNL     1       9.202  -1.919   0.778  0.00  0.00    -0.083 Cl
ENDBRANCH  14  17
ENDBRANCH   9  14
BRANCH   4  24
ATOM     24  C   UNL     1       2.003  -2.407  -5.844  0.00  0.00    -0.020 C 
ATOM     25  C   UNL     1       3.143  -2.905  -6.735  0.00  0.00    +0.006 C 
BRANCH  24  26
ATOM     26  C   UNL     1       0.665  -2.659  -6.540  0.00  0.00    -0.001 C 
ATOM     27  C   UNL     1       0.584  -1.813  -7.812  0.00  0.00    +0.004 C 
ENDBRANCH  24  26
ENDBRANCH   4  24
BRANCH   1  28
ATOM     28  C   UNL     1       0.704  -2.007  -1.195  0.00  0.00    +0.109 C 
BRANCH  28  29
ATOM     29  C   UNL     1       0.474  -0.500  -1.321  0.00  0.00    +0.003 C 
ATOM     30  C   UNL     1       1.805   0.196  -1.616  0.00  0.00    +0.009 C 
BRANCH  29  32
ATOM     31  C   UNL     1      -0.449   1.520  -0.176  0.00  0.00    +0.004 C 
ATOM     32  C   UNL     1      -0.103   0.039  -0.010  0.00  0.00    +0.001 C 
ENDBRANCH  29  32
ENDBRANCH  28  29
ENDBRANCH   1  28
TORSDOF 7
