REMARK  Name = ZINC24536364
REMARK  8 active torsions:
REMARK  status: ('A' for Active; 'I' for Inactive)
REMARK    1  A    between atoms: C_1  and  C_2
REMARK    2  A    between atoms: C_2  and  C_4
REMARK    3  A    between atoms: C_2  and  O_18
REMARK    4  A    between atoms: N_6  and  C_7
REMARK    5  A    between atoms: C_8  and  C_15
REMARK    6  A    between atoms: O_18  and  C_19
REMARK    7  A    between atoms: C_19  and  C_21
REMARK    8  A    between atoms: C_27  and  C_30
REMARK                            x       y       z     vdW  Elec       q    Type
REMARK                         _______ _______ _______ _____ _____    ______ ____
ROOT
ATOM      1  C   UNL     1      -4.197   2.467   0.997  0.00  0.00    +0.062 C 
ATOM      2  C   UNL     1      -3.686   2.171  -0.414  0.00  0.00    +0.259 C 
ENDROOT
BRANCH   2   3
ATOM      3  C   UNL     1      -4.721   1.373  -1.165  0.00  0.00    +0.258 C 
ATOM      4  O   UNL     1      -4.476   0.236  -1.511  0.00  0.00    -0.271 OA
ATOM      5  N   UNL     1      -5.917   1.921  -1.453  0.00  0.00    -0.276 N 
ATOM      6  H   UNL     1      -6.139   2.952  -1.140  0.00  0.00    +0.155 HD
BRANCH   5   7
ATOM      7  C   UNL     1      -6.869   1.187  -2.144  0.00  0.00    +0.084 A 
ATOM      8  C   UNL     1      -8.143   1.571  -2.524  0.00  0.00    +0.068 A 
ATOM      9  C   UNL     1      -8.954   0.599  -3.256  0.00  0.00    -0.023 A 
ATOM     10  C   UNL     1      -8.361  -0.589  -3.475  0.00  0.00    -0.004 A 
ATOM     11  S   UNL     1      -6.754  -0.436  -2.736  0.00  0.00    -0.077 S 
ATOM     12  C   UNL     1      -9.256  -1.535  -4.229  0.00  0.00    +0.043 C 
ATOM     13  C   UNL     1     -10.350  -0.632  -4.840  0.00  0.00    +0.010 C 
ATOM     14  C   UNL     1     -10.358   0.559  -3.861  0.00  0.00    +0.037 C 
BRANCH   8  15
ATOM     15  C   UNL     1      -8.661   2.906  -2.207  0.00  0.00    +0.244 C 
ATOM     16  O   UNL     1      -8.494   3.824  -2.988  0.00  0.00    -0.270 OA
ATOM     17  N   UNL     1      -9.320   3.116  -1.050  0.00  0.00    -0.325 N 
ATOM     18  H   UNL     1      -9.708   4.117  -0.812  0.00  0.00    +0.145 HD
ATOM     19  H   UNL     1      -9.470   2.286  -0.344  0.00  0.00    +0.145 HD
ENDBRANCH   8  15
ENDBRANCH   5   7
ENDBRANCH   2   3
BRANCH   2  20
ATOM     20  O   UNL     1      -2.453   1.409  -0.332  0.00  0.00    -0.449 OA
BRANCH  20  21
ATOM     21  C   UNL     1      -1.303   2.111  -0.284  0.00  0.00    +0.340 C 
ATOM     22  O   UNL     1      -1.330   3.326  -0.310  0.00  0.00    -0.245 OA
BRANCH  21  23
ATOM     23  C   UNL     1      -0.013   1.405  -0.200  0.00  0.00    +0.060 A 
ATOM     24  C   UNL     1       0.005  -0.005  -0.171  0.00  0.00    +0.017 A 
ATOM     25  C   UNL     1       1.163  -0.702  -0.100  0.00  0.00    +0.032 A 
ATOM     26  C   UNL     1       2.395  -0.013  -0.053  0.00  0.00    +0.114 A 
ATOM     27  C   UNL     1       2.382   1.466  -0.084  0.00  0.00    +0.050 A 
ATOM     28  C   UNL     1       1.164   2.139  -0.157  0.00  0.00    +0.028 A 
ATOM     29  C   UNL     1       3.739   1.793  -0.024  0.00  0.00    +0.175 A 
ATOM     30  O   UNL     1       4.394   0.622   0.033  0.00  0.00    -0.353 OA
ATOM     31  N   UNL     1       3.663  -0.342   0.016  0.00  0.00    -0.078 NA
BRANCH  29  32
ATOM     32  C   UNL     1       4.329   3.143  -0.022  0.00  0.00    +0.021 A 
ATOM     33  C   UNL     1       3.894   4.101  -0.943  0.00  0.00    +0.011 A 
ATOM     34  C   UNL     1       4.448   5.364  -0.932  0.00  0.00    +0.001 A 
ATOM     35  C   UNL     1       5.439   5.681  -0.020  0.00  0.00    +0.000 A 
ATOM     36  C   UNL     1       5.879   4.737   0.891  0.00  0.00    +0.001 A 
ATOM     37  C   UNL     1       5.331   3.471   0.896  0.00  0.00    +0.011 A 
ENDBRANCH  29  32
ENDBRANCH  21  23
ENDBRANCH  20  21
ENDBRANCH   2  20
TORSDOF 7
