REMARK  Name = ZINC35843689
REMARK  17 active torsions:
REMARK  status: ('A' for Active; 'I' for Inactive)
REMARK    1  A    between atoms: C_1  and  C_2
REMARK    2  A    between atoms: C_2  and  C_3
REMARK    3  A    between atoms: C_3  and  C_4
REMARK    4  A    between atoms: C_4  and  N_5
REMARK    5  A    between atoms: N_5  and  C_6
REMARK    6  A    between atoms: N_5  and  C_31
REMARK    7  A    between atoms: C_6  and  C_7
REMARK    8  A    between atoms: N_9  and  C_10
REMARK    9  A    between atoms: N_9  and  C_22
REMARK   10  A    between atoms: C_10  and  C_11
REMARK   11  A    between atoms: C_11  and  C_12
REMARK   12  A    between atoms: C_22  and  C_23
REMARK   13  A    between atoms: C_31  and  C_33
REMARK   14  A    between atoms: C_31  and  C_34
REMARK   15  A    between atoms: C_34  and  O_36
REMARK   16  A    between atoms: O_36  and  C_37
REMARK   17  A    between atoms: C_37  and  C_38
REMARK                            x       y       z     vdW  Elec       q    Type
REMARK                         _______ _______ _______ _____ _____    ______ ____
ROOT
ATOM      1  C   UNL     1      -2.429  -4.279   2.119  0.00  0.00    +0.199 C 
ATOM      2  O   UNL     1      -2.159  -3.282   2.755  0.00  0.00    -0.278 OA
ATOM      3  N   UNL     1      -2.278  -5.496   2.677  0.00  0.00    -0.298 N 
ENDROOT
BRANCH   1   4
ATOM      4  C   UNL     1      -2.932  -4.156   0.704  0.00  0.00    +0.020 C 
BRANCH   4   5
ATOM      5  N   UNL     1      -2.894  -2.747   0.290  0.00  0.00    +0.394 N 
ATOM      6  H   UNL     1      -3.384  -2.184   0.970  0.00  0.00    -0.080 HD
BRANCH   5   7
ATOM      7  C   UNL     1      -3.540  -2.604  -1.022  0.00  0.00    +0.040 C 
ATOM      8  C   UNL     1      -4.995  -3.065  -0.927  0.00  0.00    -0.002 C 
BRANCH   7   9
ATOM      9  C   UNL     1      -2.810  -3.447  -2.035  0.00  0.00    +0.293 C 
ATOM     10  O   UNL     1      -1.917  -4.180  -1.681  0.00  0.00    -0.253 OA
BRANCH   9  11
ATOM     11  O   UNL     1      -3.152  -3.384  -3.332  0.00  0.00    -0.466 OA
BRANCH  11  12
ATOM     12  C   UNL     1      -2.419  -4.211  -4.237  0.00  0.00    +0.228 C 
ATOM     13  C   UNL     1      -2.947  -4.005  -5.658  0.00  0.00    +0.048 C 
ENDBRANCH  11  12
ENDBRANCH   9  11
ENDBRANCH   7   9
ENDBRANCH   5   7
BRANCH   5  14
ATOM     14  C   UNL     1      -1.497  -2.301   0.200  0.00  0.00    -0.077 C 
BRANCH  14  15
ATOM     15  C   UNL     1      -1.460  -0.797  -0.083  0.00  0.00    -0.019 C 
BRANCH  15  17
ATOM     16  C   UNL     1       0.028   1.194  -0.333  0.00  0.00    +0.004 C 
ATOM     17  C   UNL     1      -0.010  -0.309  -0.051  0.00  0.00    -0.005 C 
ENDBRANCH  15  17
ENDBRANCH  14  15
ENDBRANCH   5  14
ENDBRANCH   4   5
ENDBRANCH   1   4
BRANCH   3  18
ATOM     18  C   UNL     1      -1.899  -5.612   4.088  0.00  0.00    +0.113 C 
BRANCH  18  19
ATOM     19  C   UNL     1      -3.160  -5.654   4.953  0.00  0.00    +0.056 C 
BRANCH  19  20
ATOM     20  C   UNL     1      -2.770  -5.774   6.404  0.00  0.00    -0.021 A 
ATOM     21  C   UNL     1      -2.671  -6.909   7.112  0.00  0.00    +0.087 A 
ATOM     22  N   UNL     1      -2.292  -6.626   8.397  0.00  0.00    -0.360 N 
ATOM     23  H   UNL     1      -2.155  -7.285   9.095  0.00  0.00    +0.165 HD
ATOM     24  C   UNL     1      -2.135  -5.267   8.550  0.00  0.00    +0.047 A 
ATOM     25  C   UNL     1      -2.422  -4.674   7.306  0.00  0.00    +0.003 A 
ATOM     26  C   UNL     1      -2.337  -3.288   7.160  0.00  0.00    +0.010 A 
ATOM     27  C   UNL     1      -1.974  -2.514   8.226  0.00  0.00    +0.001 A 
ATOM     28  C   UNL     1      -1.687  -3.095   9.453  0.00  0.00    +0.002 A 
ATOM     29  C   UNL     1      -1.772  -4.459   9.622  0.00  0.00    +0.026 A 
ENDBRANCH  19  20
ENDBRANCH  18  19
ENDBRANCH   3  18
BRANCH   3  30
ATOM     30  C   UNL     1      -2.493  -6.702   1.875  0.00  0.00    +0.142 C 
BRANCH  30  31
ATOM     31  C   UNL     1      -1.168  -7.212   1.369  0.00  0.00    -0.029 A 
ATOM     32  C   UNL     1      -0.632  -6.704   0.201  0.00  0.00    +0.007 A 
ATOM     33  C   UNL     1       0.583  -7.171  -0.264  0.00  0.00    +0.022 A 
ATOM     34  C   UNL     1       1.263  -8.148   0.440  0.00  0.00    +0.059 A 
ATOM     35  C   UNL     1       0.726  -8.657   1.611  0.00  0.00    +0.060 A 
ATOM     36  C   UNL     1      -0.487  -8.184   2.077  0.00  0.00    +0.026 A 
ATOM     37 CL   UNL     1       1.579  -9.884   2.496  0.00  0.00    -0.082 Cl
ATOM     38 CL   UNL     1       2.789  -8.736  -0.143  0.00  0.00    -0.082 Cl
ENDBRANCH  30  31
ENDBRANCH   3  30
TORSDOF 14
