REMARK  Name = ZINC12659589
REMARK  8 active torsions:
REMARK  status: ('A' for Active; 'I' for Inactive)
REMARK    1  A    between atoms: C_1  and  C_2
REMARK    2  A    between atoms: C_2  and  C_3
REMARK    3  A    between atoms: C_2  and  C_4
REMARK    4  A    between atoms: C_11  and  C_40
REMARK    5  A    between atoms: N_23  and  C_26
REMARK    6  A    between atoms: C_29  and  O_32
REMARK    7  A    between atoms: C_36  and  C_37
REMARK    8  A    between atoms: C_36  and  C_38
REMARK                            x       y       z     vdW  Elec       q    Type
REMARK                         _______ _______ _______ _____ _____    ______ ____
ROOT
ATOM      1  C   UNL     1      -3.362  -1.698  -0.001  0.00  0.00    -0.066 C 
ATOM      2  C   UNL     1      -3.944  -0.619  -0.528  0.00  0.00    -0.019 C 
ATOM      3  C   UNL     1      -5.194  -0.206   0.240  0.00  0.00    +0.004 C 
ATOM      4  C   UNL     1      -5.833   1.017  -0.399  0.00  0.00    +0.012 C 
ATOM      5  C   UNL     1      -7.104   1.363   0.385  0.00  0.00    +0.006 C 
ATOM      6  C   UNL     1      -8.125   0.228   0.299  0.00  0.00    +0.012 C 
ATOM      7  C   UNL     1      -7.538  -1.093   0.785  0.00  0.00    -0.025 C 
ATOM      8  C   UNL     1      -6.168  -1.371   0.168  0.00  0.00    +0.007 C 
ATOM      9  C   UNL     1      -5.522  -2.629   0.752  0.00  0.00    +0.013 C 
ATOM     10  C   UNL     1      -4.090  -2.281   1.200  0.00  0.00    +0.028 C 
ATOM     11  C   UNL     1      -4.186  -1.207   2.291  0.00  0.00    +0.096 C 
ATOM     12  C   UNL     1      -4.746   0.089   1.669  0.00  0.00    +0.098 C 
ATOM     13  C   UNL     1      -3.532   0.999   1.634  0.00  0.00    +0.231 C 
ATOM     14  O   UNL     1      -3.484   2.088   1.105  0.00  0.00    -0.274 OA
ATOM     15  N   UNL     1      -2.521   0.412   2.286  0.00  0.00    -0.210 N 
ATOM     16  C   UNL     1      -2.796  -0.817   2.740  0.00  0.00    +0.231 C 
ATOM     17  O   UNL     1      -2.052  -1.503   3.407  0.00  0.00    -0.274 OA
ATOM     18  C   UNL     1      -7.463  -1.161   2.307  0.00  0.00    +0.007 C 
ATOM     19  C   UNL     1      -8.835  -0.886   2.928  0.00  0.00    +0.002 C 
ATOM     20  C   UNL     1      -9.283   0.516   2.528  0.00  0.00    +0.018 C 
ATOM     21  C   UNL     1      -9.408   0.637   1.013  0.00  0.00    +0.072 C 
ATOM     22  C   UNL     1     -10.618  -0.167   0.525  0.00  0.00    +0.023 C 
ATOM     23  C   UNL     1      -8.427  -2.264   0.298  0.00  0.00    +0.012 C 
ENDROOT
BRANCH  15  24
ATOM     24  C   UNL     1      -1.278   1.033   2.480  0.00  0.00    +0.044 A 
ATOM     25  C   UNL     1      -0.871   1.386   3.759  0.00  0.00    +0.027 A 
ATOM     26  C   UNL     1       0.355   1.993   3.950  0.00  0.00    +0.047 A 
ATOM     27  C   UNL     1       1.177   2.254   2.863  0.00  0.00    +0.117 A 
ATOM     28  C   UNL     1       0.767   1.907   1.584  0.00  0.00    +0.047 A 
ATOM     29  C   UNL     1      -0.458   1.299   1.392  0.00  0.00    +0.027 A 
BRANCH  27  30
ATOM     30  O   UNL     1       2.383   2.852   3.051  0.00  0.00    -0.507 OA
ATOM     31  H   UNL     1       3.110   2.232   3.201  0.00  0.00    +0.292 HD
ENDBRANCH  27  30
ENDBRANCH  15  24
BRANCH   1  33
ATOM     32  C   UNL     1      -1.004  -2.279   0.509  0.00  0.00    +0.012 C 
ATOM     33  C   UNL     1      -2.097  -2.300  -0.562  0.00  0.00    +0.009 C 
ATOM     34  C   UNL     1      -2.366  -3.745  -0.988  0.00  0.00    +0.012 C 
ENDBRANCH   1  33
BRANCH  21  35
ATOM     35  C   UNL     1      -9.734   2.092   0.708  0.00  0.00    +0.362 C 
ATOM     36  O   UNL     1      -9.870   2.883   1.611  0.00  0.00    -0.246 OA
ATOM     37  O   UNL     1      -9.870   2.496  -0.565  0.00  0.00    -0.246 OA
ENDBRANCH  21  35
TORSDOF 4
