REMARK  Name = ZINC14247121
REMARK  7 active torsions:
REMARK  status: ('A' for Active; 'I' for Inactive)
REMARK    1  A    between atoms: C_1  and  C_2
REMARK    2  A    between atoms: C_2  and  C_4
REMARK    3  A    between atoms: C_2  and  S_16
REMARK    4  A    between atoms: N_6  and  C_7
REMARK    5  A    between atoms: S_16  and  C_17
REMARK    6  A    between atoms: C_17  and  C_18
REMARK    7  A    between atoms: C_24  and  C_29
REMARK                            x       y       z     vdW  Elec       q    Type
REMARK                         _______ _______ _______ _____ _____    ______ ____
ROOT
ATOM      1  C   UNL     1       8.946  -3.475   4.329  0.00  0.00    +0.144 C 
ENDROOT
BRANCH   1   2
ATOM      2  C   UNL     1       9.528  -4.861   4.449  0.00  0.00    +0.121 A 
ATOM      3  N   UNL     1      10.778  -5.018   4.955  0.00  0.00    -0.310 N 
ATOM      4  H   UNL     1      11.281  -4.236   5.231  0.00  0.00    +0.170 HD
ATOM      5  C   UNL     1      11.332  -6.238   5.085  0.00  0.00    +0.260 A 
ATOM      6  O   UNL     1      12.454  -6.362   5.545  0.00  0.00    -0.267 OA
ATOM      7  C   UNL     1      10.585  -7.386   4.669  0.00  0.00    +0.080 A 
ATOM      8  C   UNL     1      10.963  -8.794   4.702  0.00  0.00    +0.004 A 
ATOM      9  C   UNL     1      10.080  -9.716   4.249  0.00  0.00    +0.056 A 
ATOM     10  S   UNL     1       8.679  -8.735   3.748  0.00  0.00    -0.076 S 
ATOM     11  C   UNL     1       9.305  -7.125   4.154  0.00  0.00    +0.116 A 
ATOM     12  N   UNL     1       8.822  -5.889   4.061  0.00  0.00    -0.226 NA
BRANCH   8  13
ATOM     13  C   UNL     1      12.288  -9.208   5.222  0.00  0.00    -0.017 A 
ATOM     14  C   UNL     1      13.447  -8.591   4.755  0.00  0.00    +0.008 A 
ATOM     15  C   UNL     1      14.677  -8.977   5.247  0.00  0.00    +0.001 A 
ATOM     16  C   UNL     1      14.762  -9.982   6.193  0.00  0.00    +0.000 A 
ATOM     17  C   UNL     1      13.616 -10.602   6.657  0.00  0.00    +0.001 A 
ATOM     18  C   UNL     1      12.380 -10.220   6.177  0.00  0.00    +0.008 A 
ENDBRANCH   8  13
ENDBRANCH   1   2
BRANCH   1  19
ATOM     19  S   UNL     1       7.280  -3.579   3.619  0.00  0.00    -0.141 S 
BRANCH  19  21
ATOM     20  C   UNL     1       6.599  -1.294   4.959  0.00  0.00    +0.029 C 
ATOM     21  C   UNL     1       6.728  -1.853   3.541  0.00  0.00    +0.130 C 
BRANCH  21  22
ATOM     22  C   UNL     1       5.391  -1.784   2.850  0.00  0.00    +0.230 C 
ATOM     23  O   UNL     1       4.657  -2.749   2.852  0.00  0.00    -0.274 OA
ATOM     24  N   UNL     1       5.011  -0.649   2.230  0.00  0.00    -0.284 N 
ATOM     25  H   UNL     1       5.624   0.100   2.170  0.00  0.00    +0.155 HD
BRANCH  24  26
ATOM     26  C   UNL     1       3.729  -0.552   1.671  0.00  0.00    +0.037 A 
ATOM     27  C   UNL     1       3.138  -1.666   1.093  0.00  0.00    +0.027 A 
ATOM     28  C   UNL     1       1.874  -1.572   0.542  0.00  0.00    +0.051 A 
ATOM     29  C   UNL     1       1.194  -0.365   0.566  0.00  0.00    +0.166 A 
ATOM     30  C   UNL     1       1.785   0.755   1.145  0.00  0.00    +0.168 A 
ATOM     31  C   UNL     1       3.051   0.659   1.697  0.00  0.00    +0.072 A 
ATOM     32  O   UNL     1       0.921   1.807   1.042  0.00  0.00    -0.453 OA
ATOM     33  C   UNL     1      -0.365   1.223   0.761  0.00  0.00    +0.466 C 
ATOM     34  O   UNL     1      -0.041  -0.014   0.099  0.00  0.00    -0.453 OA
ENDBRANCH  24  26
ENDBRANCH  21  22
ENDBRANCH  19  21
ENDBRANCH   1  19
TORSDOF 6
