REMARK  Name = ZINC44784469
REMARK  5 active torsions:
REMARK  status: ('A' for Active; 'I' for Inactive)
REMARK    1  A    between atoms: C_1  and  C_2
REMARK    2  A    between atoms: C_5  and  C_21
REMARK    3  A    between atoms: C_10  and  C_12
REMARK    4  A    between atoms: C_12  and  C_17
REMARK    5  A    between atoms: N_18  and  O_19
REMARK                            x       y       z     vdW  Elec       q    Type
REMARK                         _______ _______ _______ _____ _____    ______ ____
ROOT
ATOM      1  C   UNL     1       1.919   1.024   3.344  0.00  0.00    +0.105 C 
ATOM      2  C   UNL     1       2.799   1.825   4.319  0.00  0.00    +0.024 C 
ATOM      3  C   UNL     1       2.783   1.060   5.658  0.00  0.00    +0.001 C 
ATOM      4  C   UNL     1       2.435  -0.396   5.259  0.00  0.00    +0.001 C 
ATOM      5  C   UNL     1       1.399  -0.201   4.125  0.00  0.00    +0.024 C 
ENDROOT
BRANCH   1  13
ATOM      6  C   UNL     1      -0.090   1.259   0.006  0.00  0.00    +0.009 C 
ATOM      7  C   UNL     1       0.007  -0.266   0.086  0.00  0.00    +0.004 C 
ATOM      8  C   UNL     1       0.732  -0.798  -1.152  0.00  0.00    +0.009 C 
ATOM      9  C   UNL     1       2.127  -0.174  -1.235  0.00  0.00    +0.004 C 
ATOM     10  C   UNL     1       2.934  -0.571   0.005  0.00  0.00    +0.111 C 
ATOM     11  N   UNL     1       2.174  -0.192   1.205  0.00  0.00    -0.300 N 
ATOM     12  C   UNL     1       0.788  -0.663   1.342  0.00  0.00    +0.111 C 
ATOM     13  C   UNL     1       2.737   0.573   2.161  0.00  0.00    +0.229 C 
ATOM     14  O   UNL     1       3.902   0.898   2.070  0.00  0.00    -0.275 OA
ATOM     15  C   UNL     1       2.839  -0.681  -2.491  0.00  0.00    +0.009 C 
ENDBRANCH   1  13
BRANCH   1  16
ATOM     16  C   UNL     1       0.761   1.869   2.878  0.00  0.00    +0.147 C 
ATOM     17  N   UNL     1      -0.445   1.557   3.220  0.00  0.00    -0.076 NA
ATOM     18  N   UNL     1       0.989   2.973   2.087  0.00  0.00    -0.343 N 
ATOM     19  H   UNL     1       1.897   3.248   1.889  0.00  0.00    +0.144 HD
ATOM     20  H   UNL     1       0.240   3.476   1.730  0.00  0.00    +0.144 HD
BRANCH  17  21
ATOM     21  O   UNL     1      -1.533   2.351   2.783  0.00  0.00    -0.408 OA
ATOM     22  H   UNL     1      -2.395   2.039   3.089  0.00  0.00    +0.328 HD
ENDBRANCH  17  21
ENDBRANCH   1  16
TORSDOF 3
