REMARK  Name = ZINC06863135
REMARK  6 active torsions:
REMARK  status: ('A' for Active; 'I' for Inactive)
REMARK    1  A    between atoms: C_3  and  C_26
REMARK    2  A    between atoms: C_5  and  N_7
REMARK    3  A    between atoms: C_8  and  N_25
REMARK    4  A    between atoms: C_9  and  N_16
REMARK    5  A    between atoms: C_10  and  C_14
REMARK    6  A    between atoms: C_17  and  C_18
REMARK                            x       y       z     vdW  Elec       q    Type
REMARK                         _______ _______ _______ _____ _____    ______ ____
ROOT
ATOM      1  N   UNL     1      -0.096   5.258   0.247  0.00  0.00    -0.247 N 
ATOM      2  C   UNL     1      -1.284   5.921   0.151  0.00  0.00    +0.134 A 
ATOM      3  C   UNL     1      -1.264   7.313  -0.043  0.00  0.00    +0.138 A 
ATOM      4  C   UNL     1      -0.013   7.960  -0.129  0.00  0.00    +0.174 A 
ATOM      5  N   UNL     1       1.103   7.244  -0.025  0.00  0.00    -0.180 NA
ATOM      6  C   UNL     1       1.066   5.929   0.163  0.00  0.00    +0.356 A 
ATOM      7  O   UNL     1       2.115   5.313   0.258  0.00  0.00    -0.244 OA
ENDROOT
BRANCH   1  12
ATOM      8  C   UNL     1      -0.528   1.964   1.827  0.00  0.00    +0.003 A 
ATOM      9  C   UNL     1      -0.070   1.131   0.823  0.00  0.00    +0.012 A 
ATOM     10  C   UNL     1       0.374   1.663  -0.373  0.00  0.00    +0.057 A 
ATOM     11  C   UNL     1       0.366   3.031  -0.567  0.00  0.00    +0.038 A 
ATOM     12  C   UNL     1      -0.087   3.871   0.441  0.00  0.00    +0.053 A 
ATOM     13  C   UNL     1      -0.532   3.333   1.642  0.00  0.00    +0.026 A 
BRANCH  10  14
ATOM     14  C   UNL     1       0.866   0.750  -1.467  0.00  0.00    +0.417 C 
ATOM     15  F   UNL     1       0.777  -0.579  -1.040  0.00  0.00    -0.166 F 
ATOM     16  F   UNL     1       0.079   0.926  -2.610  0.00  0.00    -0.166 F 
ATOM     17  F   UNL     1       2.197   1.056  -1.766  0.00  0.00    -0.166 F 
ENDBRANCH  10  14
ENDBRANCH   1  12
BRANCH   2  18
ATOM     18  N   UNL     1      -2.470   5.246   0.240  0.00  0.00    -0.342 N 
ATOM     19  H   UNL     1      -2.473   4.298   0.443  0.00  0.00    +0.144 HD
ATOM     20  H   UNL     1      -3.307   5.716   0.101  0.00  0.00    +0.144 HD
ENDBRANCH   2  18
BRANCH   4  21
ATOM     21  C   UNL     1       0.054   9.377  -0.325  0.00  0.00    +0.122 C 
ATOM     22  N   UNL     1       0.108  10.501  -0.481  0.00  0.00    -0.189 NA
ENDBRANCH   4  21
BRANCH   3  23
ATOM     23  N   UNL     1      -2.426   8.021  -0.146  0.00  0.00    -0.249 NA
ATOM     24  C   UNL     1      -2.602   9.093   0.575  0.00  0.00    +0.119 C 
BRANCH  24  25
ATOM     25  C   UNL     1      -3.812   9.911   0.394  0.00  0.00    -0.007 A 
ATOM     26  C   UNL     1      -4.771   9.545  -0.556  0.00  0.00    +0.012 A 
ATOM     27  C   UNL     1      -5.904  10.313  -0.718  0.00  0.00    +0.039 A 
ATOM     28  C   UNL     1      -6.089  11.453   0.051  0.00  0.00    +0.123 A 
ATOM     29  C   UNL     1      -5.139  11.824   0.990  0.00  0.00    +0.039 A 
ATOM     30  C   UNL     1      -4.004  11.062   1.166  0.00  0.00    +0.012 A 
ATOM     31  F   UNL     1      -7.198  12.204  -0.117  0.00  0.00    -0.205 F 
ENDBRANCH  24  25
ENDBRANCH   3  23
TORSDOF 6
