REMARK  Name = ZINC17088205
REMARK  5 active torsions:
REMARK  status: ('A' for Active; 'I' for Inactive)
REMARK    1  A    between atoms: C_1  and  C_2
REMARK    2  A    between atoms: C_2  and  C_27
REMARK    3  A    between atoms: C_6  and  C_16
REMARK    4  A    between atoms: C_11  and  S_13
REMARK    5  A    between atoms: S_13  and  C_14
REMARK                            x       y       z     vdW  Elec       q    Type
REMARK                         _______ _______ _______ _____ _____    ______ ____
ROOT
ATOM      1  C   UNL     1      -0.019   1.526   0.010  0.00  0.00    +0.011 C 
ATOM      2  C   UNL     1       0.002  -0.004   0.002  0.00  0.00    -0.023 C 
ATOM      3  C   UNL     1      -1.431  -0.539   0.041  0.00  0.00    +0.058 C 
ATOM      4  C   UNL     1      -1.409  -2.049   0.077  0.00  0.00    +0.020 C 
ATOM      5  C   UNL     1      -0.393  -2.714   0.667  0.00  0.00    +0.041 C 
ATOM      6  C   UNL     1      -0.342  -4.225   0.717  0.00  0.00    +0.175 C 
ATOM      7  N   UNL     1      -1.642  -4.780   0.360  0.00  0.00    -0.220 N 
ATOM      8  C   UNL     1      -2.629  -4.054  -0.221  0.00  0.00    +0.219 A 
ATOM      9  N   UNL     1      -3.651  -4.841  -0.415  0.00  0.00    -0.187 NA
ATOM     10  C   UNL     1      -3.361  -6.072   0.032  0.00  0.00    +0.210 A 
ATOM     11  N   UNL     1      -2.137  -6.074   0.516  0.00  0.00    -0.141 NA
ATOM     12  N   UNL     1      -2.463  -2.709  -0.507  0.00  0.00    -0.287 N 
ATOM     13  C   UNL     1       0.675  -2.019   1.263  0.00  0.00    +0.164 C 
ATOM     14  O   UNL     1       1.563  -2.646   1.806  0.00  0.00    -0.292 OA
ATOM     15  C   UNL     1       0.742  -0.517   1.242  0.00  0.00    +0.086 C 
ATOM     16  C   UNL     1       0.706  -0.503  -1.262  0.00  0.00    +0.011 C 
ATOM     17  H   UNL     1      -3.074  -2.246  -1.101  0.00  0.00    +0.155 HD
ENDROOT
BRANCH   6  18
ATOM     18  C   UNL     1       0.695  -4.724  -0.256  0.00  0.00    -0.017 A 
ATOM     19  C   UNL     1       0.577  -4.432  -1.602  0.00  0.00    +0.007 A 
ATOM     20  C   UNL     1       1.528  -4.889  -2.495  0.00  0.00    +0.022 A 
ATOM     21  C   UNL     1       2.599  -5.638  -2.042  0.00  0.00    +0.059 A 
ATOM     22  C   UNL     1       2.717  -5.930  -0.694  0.00  0.00    +0.060 A 
ATOM     23  C   UNL     1       1.768  -5.468   0.199  0.00  0.00    +0.027 A 
ATOM     24 CL   UNL     1       4.060  -6.871  -0.124  0.00  0.00    -0.082 Cl
ATOM     25 CL   UNL     1       3.793  -6.213  -3.163  0.00  0.00    -0.082 Cl
ENDBRANCH   6  18
BRANCH  10  26
ATOM     26  S   UNL     1      -4.443  -7.462  -0.021  0.00  0.00    -0.088 S 
ATOM     27  C   UNL     1      -5.952  -6.814  -0.792  0.00  0.00    +0.093 C 
ENDBRANCH  10  26
TORSDOF 2
