REMARK  Name = ZINC04509392
REMARK  4 active torsions:
REMARK  status: ('A' for Active; 'I' for Inactive)
REMARK    1  A    between atoms: C_6  and  C_7
REMARK    2  A    between atoms: C_10  and  N_11
REMARK    3  A    between atoms: N_11  and  C_12
REMARK    4  A    between atoms: C_17  and  C_18
REMARK                            x       y       z     vdW  Elec       q    Type
REMARK                         _______ _______ _______ _____ _____    ______ ____
ROOT
ATOM      1  C   UNL     1      -6.163  -0.747   0.170  0.00  0.00    +0.232 C 
ATOM      2  N   UNL     1      -5.191   0.119   0.122  0.00  0.00    -0.204 NA
ATOM      3  C   UNL     1      -3.998  -0.545   0.191  0.00  0.00    +0.165 C 
ATOM      4  C   UNL     1      -2.733   0.004   0.168  0.00  0.00    +0.107 C 
ATOM      5  C   UNL     1      -4.346  -1.967   0.300  0.00  0.00    +0.366 C 
ATOM      6  O   UNL     1      -3.582  -2.911   0.390  0.00  0.00    -0.243 OA
ATOM      7  O   UNL     1      -5.696  -2.006   0.280  0.00  0.00    -0.402 OA
ENDROOT
BRANCH   1  13
ATOM      8  C   UNL     1      -7.984   0.943   0.006  0.00  0.00    +0.014 A 
ATOM      9  C   UNL     1      -9.324   1.266  -0.049  0.00  0.00    +0.016 A 
ATOM     10  C   UNL     1     -10.283   0.270   0.015  0.00  0.00    +0.018 A 
ATOM     11  C   UNL     1      -9.904  -1.057   0.129  0.00  0.00    +0.016 A 
ATOM     12  C   UNL     1      -8.568  -1.394   0.179  0.00  0.00    +0.014 A 
ATOM     13  C   UNL     1      -7.596  -0.394   0.115  0.00  0.00    +0.037 A 
ATOM     14 BR   UNL     1     -12.118   0.723  -0.054  0.00  0.00    -0.050 Br
ENDBRANCH   1  13
BRANCH   4  15
ATOM     15  N   UNL     1      -2.579   1.353   0.061  0.00  0.00    -0.318 N 
ATOM     16  H   UNL     1      -3.359   1.927   0.001  0.00  0.00    +0.152 HD
BRANCH  15  17
ATOM     17  C   UNL     1      -1.304   1.908   0.038  0.00  0.00    +0.045 A 
ATOM     18  C   UNL     1      -0.186   1.085  -0.003  0.00  0.00    +0.025 A 
ATOM     19  C   UNL     1       1.078   1.638  -0.032  0.00  0.00    +0.017 A 
ATOM     20  C   UNL     1       1.244   3.014  -0.014  0.00  0.00    +0.019 A 
ATOM     21  C   UNL     1       0.146   3.847   0.033  0.00  0.00    +0.032 A 
ATOM     22  C   UNL     1      -1.141   3.302   0.062  0.00  0.00    +0.085 A 
ATOM     23 BR   UNL     1       2.984   3.753  -0.053  0.00  0.00    -0.050 Br
BRANCH  22  24
ATOM     24  C   UNL     1      -2.319   4.186   0.113  0.00  0.00    +0.388 C 
ATOM     25  O   UNL     1      -3.436   3.715   0.032  0.00  0.00    -0.241 OA
ATOM     26  O   UNL     1      -2.158   5.517   0.249  0.00  0.00    -0.241 OA
ENDBRANCH  22  24
ENDBRANCH  15  17
ENDBRANCH   4  15
TORSDOF 4
