REMARK  Name = ZINC35069186
REMARK  16 active torsions:
REMARK  status: ('A' for Active; 'I' for Inactive)
REMARK    1  A    between atoms: C_1  and  C_2
REMARK    2  A    between atoms: C_2  and  C_3
REMARK    3  A    between atoms: C_3  and  C_4
REMARK    4  A    between atoms: C_4  and  C_5
REMARK    5  A    between atoms: C_8  and  C_11
REMARK    6  A    between atoms: N_13  and  C_14
REMARK    7  A    between atoms: N_13  and  C_19
REMARK    8  A    between atoms: C_14  and  C_15
REMARK    9  A    between atoms: C_15  and  N_16
REMARK   10  A    between atoms: N_16  and  C_17
REMARK   11  A    between atoms: N_16  and  C_18
REMARK   12  A    between atoms: C_19  and  C_21
REMARK   13  A    between atoms: C_19  and  C_22
REMARK   14  A    between atoms: N_32  and  C_33
REMARK   15  A    between atoms: C_36  and  C_40
REMARK   16  A    between atoms: C_37  and  C_39
REMARK                            x       y       z     vdW  Elec       q    Type
REMARK                         _______ _______ _______ _____ _____    ______ ____
ROOT
ATOM      1  C   UNL     1      -8.367  -4.251  -0.317  0.00  0.00    +0.140 C 
ATOM      2  C   UNL     1      -8.170  -5.764  -0.433  0.00  0.00    +0.036 C 
ENDROOT
BRANCH   1   3
ATOM      3  C   UNL     1      -9.254  -3.773  -1.438  0.00  0.00    +0.138 A 
ATOM      4  N   UNL     1      -8.937  -4.095  -2.655  0.00  0.00    -0.231 NA
ATOM      5  C   UNL     1      -9.688  -3.701  -3.713  0.00  0.00    +0.078 A 
ATOM      6  C   UNL     1      -9.349  -4.048  -5.023  0.00  0.00    +0.028 A 
ATOM      7  C   UNL     1     -10.140  -3.626  -6.067  0.00  0.00    +0.002 A 
ATOM      8  C   UNL     1     -11.274  -2.857  -5.836  0.00  0.00    +0.001 A 
ATOM      9  C   UNL     1     -11.629  -2.502  -4.553  0.00  0.00    +0.015 A 
ATOM     10  C   UNL     1     -10.842  -2.920  -3.482  0.00  0.00    +0.065 A 
ATOM     11  C   UNL     1     -11.173  -2.571  -2.092  0.00  0.00    +0.266 A 
ATOM     12  O   UNL     1     -12.153  -1.901  -1.825  0.00  0.00    -0.267 OA
ATOM     13  N   UNL     1     -10.348  -3.030  -1.122  0.00  0.00    -0.263 N 
BRANCH  13  14
ATOM     14  C   UNL     1     -10.621  -2.731   0.219  0.00  0.00    +0.051 A 
ATOM     15  C   UNL     1     -10.501  -1.426   0.680  0.00  0.00    +0.026 A 
ATOM     16  C   UNL     1     -10.771  -1.135   2.002  0.00  0.00    +0.005 A 
ATOM     17  C   UNL     1     -11.161  -2.140   2.868  0.00  0.00    -0.047 A 
ATOM     18  C   UNL     1     -11.281  -3.440   2.412  0.00  0.00    -0.046 A 
ATOM     19  C   UNL     1     -11.018  -3.737   1.089  0.00  0.00    +0.030 A 
ATOM     20  C   UNL     1     -11.706  -4.533   3.359  0.00  0.00    +0.044 C 
ATOM     21  C   UNL     1     -11.455  -1.819   4.311  0.00  0.00    +0.044 C 
ENDBRANCH  13  14
ENDBRANCH   1   3
BRANCH   1  24
ATOM     22  C   UNL     1      -6.630  -2.821   0.618  0.00  0.00    +0.247 C 
ATOM     23  O   UNL     1      -7.259  -2.781   1.658  0.00  0.00    -0.270 OA
ATOM     24  N   UNL     1      -7.066  -3.583  -0.405  0.00  0.00    -0.290 N 
BRANCH  22  28
ATOM     25  C   UNL     1      -3.060  -0.556   0.209  0.00  0.00    -0.047 A 
ATOM     26  C   UNL     1      -4.067  -0.109   1.046  0.00  0.00    +0.004 A 
ATOM     27  C   UNL     1      -5.229  -0.839   1.183  0.00  0.00    +0.013 A 
ATOM     28  C   UNL     1      -5.388  -2.032   0.476  0.00  0.00    +0.037 A 
ATOM     29  C   UNL     1      -4.368  -2.478  -0.366  0.00  0.00    +0.013 A 
ATOM     30  C   UNL     1      -3.213  -1.735  -0.499  0.00  0.00    +0.004 A 
BRANCH  25  31
ATOM     31  C   UNL     1      -1.793   0.247   0.065  0.00  0.00    +0.035 C 
BRANCH  31  32
ATOM     32  C   UNL     1      -1.954   1.252  -1.078  0.00  0.00    +0.004 C 
BRANCH  32  34
ATOM     33  C   UNL     1      -0.829   3.072  -2.367  0.00  0.00    +0.004 C 
ATOM     34  C   UNL     1      -0.668   2.067  -1.225  0.00  0.00    -0.003 C 
ENDBRANCH  32  34
ENDBRANCH  31  32
ENDBRANCH  25  31
ENDBRANCH  22  28
BRANCH  24  35
ATOM     35  C   UNL     1      -6.239  -3.742  -1.603  0.00  0.00    +0.090 C 
BRANCH  35  36
ATOM     36  C   UNL     1      -5.473  -5.064  -1.523  0.00  0.00    -0.060 C 
BRANCH  36  37
ATOM     37  N   UNL     1      -4.734  -5.278  -2.774  0.00  0.00    +0.377 N 
ATOM     38  C   UNL     1      -3.690  -4.253  -2.908  0.00  0.00    -0.097 C 
ATOM     39  C   UNL     1      -4.113  -6.609  -2.754  0.00  0.00    -0.097 C 
ATOM     40  H   UNL     1      -5.369  -5.215  -3.555  0.00  0.00    -0.083 HD
ENDBRANCH  36  37
ENDBRANCH  35  36
ENDBRANCH  24  35
ENDBRANCH   1  24
TORSDOF 10
