REMARK  Name = ZINC66331831
REMARK  8 active torsions:
REMARK  status: ('A' for Active; 'I' for Inactive)
REMARK    1  A    between atoms: C_1  and  C_2
REMARK    2  A    between atoms: C_2  and  O_4
REMARK    3  A    between atoms: O_4  and  C_5
REMARK    4  A    between atoms: C_5  and  C_6
REMARK    5  A    between atoms: C_6  and  C_8
REMARK    6  A    between atoms: C_14  and  C_33
REMARK    7  A    between atoms: C_16  and  O_32
REMARK    8  A    between atoms: C_29  and  C_30
REMARK                            x       y       z     vdW  Elec       q    Type
REMARK                         _______ _______ _______ _____ _____    ______ ____
ROOT
ATOM      1  C   UNL     1      -2.721  -4.187  -0.040  0.00  0.00    +0.165 C 
ATOM      2  C   UNL     1      -2.855  -4.800   1.297  0.00  0.00    +0.162 C 
ATOM      3  C   UNL     1      -4.197  -5.466   1.409  0.00  0.00    +0.039 C 
ATOM      4  C   UNL     1      -5.059  -4.983   0.310  0.00  0.00    +0.007 C 
ATOM      5  C   UNL     1      -4.019  -4.511  -0.814  0.00  0.00    +0.012 C 
ATOM      6  C   UNL     1      -4.549  -3.543  -1.806  0.00  0.00    +0.044 C 
ATOM      7  C   UNL     1      -5.519  -2.480  -1.252  0.00  0.00    +0.154 C 
ATOM      8  C   UNL     1      -6.649  -3.047  -0.408  0.00  0.00    +0.153 C 
ATOM      9  C   UNL     1      -5.926  -3.842   0.742  0.00  0.00    +0.034 C 
ATOM     10  C   UNL     1      -5.385  -2.845   1.745  0.00  0.00    +0.011 C 
ATOM     11  C   UNL     1      -6.521  -2.222   2.485  0.00  0.00    +0.032 C 
ATOM     12  C   UNL     1      -7.572  -1.830   1.610  0.00  0.00    -0.053 C 
ATOM     13  C   UNL     1      -8.632  -1.190   2.131  0.00  0.00    +0.051 C 
ATOM     14  C   UNL     1      -9.787  -0.822   1.200  0.00  0.00    +0.179 C 
ATOM     15  O   UNL     1     -10.369   0.216   1.242  0.00  0.00    -0.288 OA
ATOM     16  C   UNL     1     -10.129  -1.870   0.196  0.00  0.00    +0.047 C 
ATOM     17  C   UNL     1      -9.020  -2.591  -0.265  0.00  0.00    -0.009 C 
ATOM     18  C   UNL     1      -7.660  -2.111   0.146  0.00  0.00    +0.044 C 
ATOM     19  C   UNL     1      -7.495  -0.768  -0.593  0.00  0.00    +0.023 C 
ATOM     20  F   UNL     1      -7.290  -4.096  -1.182  0.00  0.00    -0.238 F 
ATOM     21  C   UNL     1      -3.679  -5.796  -1.631  0.00  0.00    +0.015 C 
ATOM     22  O   UNL     1      -1.797  -5.795   1.339  0.00  0.00    -0.342 OA
ATOM     23  C   UNL     1      -0.930  -5.366   0.316  0.00  0.00    +0.172 C 
ATOM     24  O   UNL     1      -1.626  -4.803  -0.750  0.00  0.00    -0.331 OA
ATOM     25  C   UNL     1       0.158  -4.399   0.909  0.00  0.00    +0.065 C 
ATOM     26  C   UNL     1       1.373  -5.218   1.185  0.00  0.00    +0.005 C 
ATOM     27  C   UNL     1       1.489  -6.207   0.049  0.00  0.00    +0.005 C 
ATOM     28  C   UNL     1      -0.055  -6.571  -0.242  0.00  0.00    +0.065 C 
ENDROOT
BRANCH   1  29
ATOM     29  C   UNL     1      -2.442  -2.712   0.011  0.00  0.00    +0.205 C 
ATOM     30  O   UNL     1      -2.779  -2.066   0.974  0.00  0.00    -0.291 OA
BRANCH  29  31
ATOM     31  C   UNL     1      -1.740  -2.038  -1.140  0.00  0.00    +0.309 C 
BRANCH  31  32
ATOM     32  O   UNL     1      -1.698  -0.627  -0.912  0.00  0.00    -0.457 OA
BRANCH  32  34
ATOM     33  C   UNL     1      -1.020   1.619  -1.680  0.00  0.00    +0.136 C 
ATOM     34  C   UNL     1      -1.102   0.124  -1.851  0.00  0.00    +0.304 C 
ATOM     35  O   UNL     1      -0.631  -0.398  -2.834  0.00  0.00    -0.251 OA
ENDBRANCH  32  34
ENDBRANCH  31  32
ENDBRANCH  29  31
ENDBRANCH   1  29
BRANCH   7  36
ATOM     36  O   UNL     1      -4.842  -1.355  -0.708  0.00  0.00    -0.389 OA
ATOM     37  H   UNL     1      -4.283  -0.888  -1.343  0.00  0.00    +0.210 HD
ENDBRANCH   7  36
TORSDOF 5
