REMARK  Name = ZINC01567431
REMARK  3 active torsions:
REMARK  status: ('A' for Active; 'I' for Inactive)
REMARK    1  A    between atoms: C_4  and  C_7
REMARK    2  A    between atoms: C_7  and  N_8
REMARK    3  A    between atoms: C_11  and  C_16
REMARK                            x       y       z     vdW  Elec       q    Type
REMARK                         _______ _______ _______ _____ _____    ______ ____
ROOT
ATOM      1  N   UNL     1      -0.090   5.843  -1.347  0.00  0.00    -0.255 N 
ATOM      2  C   UNL     1       1.065   6.076  -1.946  0.00  0.00    +0.236 C 
ATOM      3  O   UNL     1       2.130   5.894  -1.395  0.00  0.00    -0.274 OA
ATOM      4  C   UNL     1       0.967   6.586  -3.377  0.00  0.00    +0.161 C 
ATOM      5  S   UNL     1      -0.860   6.636  -3.568  0.00  0.00    -0.088 S 
ATOM      6  C   UNL     1      -1.283   6.044  -1.936  0.00  0.00    +0.116 C 
ATOM      7  S   UNL     1      -2.843   5.790  -1.277  0.00  0.00    -0.028 S 
ENDROOT
BRANCH   4   8
ATOM      8  C   UNL     1       1.579   7.982  -3.510  0.00  0.00    +0.159 C 
ATOM      9  C   UNL     1       1.272   8.540  -4.873  0.00  0.00    +0.232 C 
ATOM     10  O   UNL     1       2.096   8.393  -5.750  0.00  0.00    -0.274 OA
ATOM     11  N   UNL     1       0.148   9.186  -5.168  0.00  0.00    -0.284 N 
ATOM     12  C   UNL     1      -0.909   9.441  -4.299  0.00  0.00    +0.047 A 
ATOM     13  C   UNL     1      -2.171   9.713  -4.817  0.00  0.00    +0.024 A 
ATOM     14  C   UNL     1      -3.230   9.973  -3.969  0.00  0.00    +0.002 A 
ATOM     15  C   UNL     1      -3.048   9.965  -2.598  0.00  0.00    +0.001 A 
ATOM     16  C   UNL     1      -1.800   9.695  -2.069  0.00  0.00    +0.016 A 
ATOM     17  C   UNL     1      -0.735   9.433  -2.914  0.00  0.00    +0.030 A 
ATOM     18  S   UNL     1       0.864   9.083  -2.252  0.00  0.00    -0.109 S 
ATOM     19  H   UNL     1       0.055   9.511  -6.078  0.00  0.00    +0.155 HD
ENDBRANCH   4   8
BRANCH   1  20
ATOM     20  C   UNL     1      -0.070   5.347   0.032  0.00  0.00    +0.149 C 
BRANCH  20  24
ATOM     21  C   UNL     1      -0.013   1.076   0.008  0.00  0.00    +0.000 A 
ATOM     22  C   UNL     1      -1.219   1.751   0.017  0.00  0.00    +0.000 A 
ATOM     23  C   UNL     1      -1.238   3.133   0.030  0.00  0.00    +0.005 A 
ATOM     24  C   UNL     1      -0.050   3.840   0.023  0.00  0.00    -0.030 A 
ATOM     25  C   UNL     1       1.156   3.165   0.008  0.00  0.00    +0.005 A 
ATOM     26  C   UNL     1       1.175   1.783   0.000  0.00  0.00    +0.000 A 
ENDBRANCH  20  24
ENDBRANCH   1  20
TORSDOF 3
