REMARK  Name = ZINC28535035
REMARK  5 active torsions:
REMARK  status: ('A' for Active; 'I' for Inactive)
REMARK    1  A    between atoms: C_6  and  N_7
REMARK    2  A    between atoms: N_7  and  N_8
REMARK    3  A    between atoms: N_11  and  C_14
REMARK    4  A    between atoms: C_14  and  C_15
REMARK    5  A    between atoms: C_15  and  C_17
REMARK                            x       y       z     vdW  Elec       q    Type
REMARK                         _______ _______ _______ _____ _____    ______ ____
ROOT
ATOM      1  N   UNL     1       1.049   2.447  -0.205  0.00  0.00    -0.206 N 
ATOM      2  C   UNL     1       0.214   2.997   0.740  0.00  0.00    +0.231 A 
ATOM      3  N   UNL     1      -0.954   3.191   0.201  0.00  0.00    -0.133 NA
ATOM      4  N   UNL     1      -0.893   2.765  -1.133  0.00  0.00    -0.230 N 
ATOM      5  C   UNL     1       0.357   2.306  -1.353  0.00  0.00    +0.197 A 
ATOM      6  S   UNL     1       0.956   1.666  -2.823  0.00  0.00    -0.010 S 
ATOM      7  N   UNL     1       0.560   3.295   2.049  0.00  0.00    -0.326 N 
ATOM      8  H   UNL     1      -0.185   3.736   2.728  0.00  0.00    +0.145 HD
ATOM      9  H   UNL     1       1.579   3.091   2.409  0.00  0.00    +0.145 HD
ENDROOT
BRANCH   1  10
ATOM     10  N   UNL     1       2.390   2.094  -0.007  0.00  0.00    -0.249 N 
ATOM     11  H   UNL     1       3.185   2.837  -0.171  0.00  0.00    +0.173 HD
BRANCH  10  17
ATOM     12  C   UNL     1       1.723  -0.118   0.724  0.00  0.00    +0.042 A 
ATOM     13  C   UNL     1       2.090  -1.389   1.115  0.00  0.00    +0.084 A 
ATOM     14  N   UNL     1       3.361  -1.734   1.190  0.00  0.00    -0.367 N 
ATOM     15  C   UNL     1       4.332  -0.889   0.893  0.00  0.00    +0.084 A 
ATOM     16  C   UNL     1       4.050   0.398   0.488  0.00  0.00    +0.042 A 
ATOM     17  C   UNL     1       2.718   0.803   0.396  0.00  0.00    +0.050 A 
ATOM     18  H   UNL     1       3.638  -2.750   1.507  0.00  0.00    +0.165 HD
ENDBRANCH  10  17
ENDBRANCH   1  10
BRANCH   4  19
ATOM     19  C   UNL     1      -1.985   2.808  -2.109  0.00  0.00    +0.225 C 
BRANCH  19  20
ATOM     20  C   UNL     1      -2.767   1.521  -2.043  0.00  0.00    +0.184 C 
ATOM     21  O   UNL     1      -2.445   0.655  -1.259  0.00  0.00    -0.290 OA
BRANCH  20  22
ATOM     22  C   UNL     1      -3.923   1.317  -2.931  0.00  0.00    +0.022 A 
ATOM     23  C   UNL     1      -4.302   2.317  -3.833  0.00  0.00    +0.031 A 
ATOM     24  C   UNL     1      -5.384   2.116  -4.665  0.00  0.00    +0.043 A 
ATOM     25  C   UNL     1      -6.101   0.933  -4.602  0.00  0.00    +0.040 A 
ATOM     26  C   UNL     1      -5.735  -0.059  -3.708  0.00  0.00    +0.043 A 
ATOM     27  C   UNL     1      -4.652   0.125  -2.873  0.00  0.00    +0.031 A 
ATOM     28 CL   UNL     1      -6.641  -1.539  -3.638  0.00  0.00    -0.083 Cl
ATOM     29 CL   UNL     1      -5.852   3.353  -5.790  0.00  0.00    -0.083 Cl
ENDBRANCH  20  22
ENDBRANCH  19  20
ENDBRANCH   4  19
TORSDOF 5
