REMARK  Name = ZINC09336545
REMARK  8 active torsions:
REMARK  status: ('A' for Active; 'I' for Inactive)
REMARK    1  A    between atoms: C_1  and  C_2
REMARK    2  A    between atoms: C_2  and  C_4
REMARK    3  A    between atoms: C_2  and  N_58
REMARK    4  A    between atoms: C_10  and  C_15
REMARK    5  A    between atoms: C_20  and  N_58
REMARK    6  A    between atoms: C_21  and  C_22
REMARK    7  A    between atoms: C_21  and  N_58
REMARK    8  A    between atoms: C_27  and  N_28
REMARK                            x       y       z     vdW  Elec       q    Type
REMARK                         _______ _______ _______ _____ _____    ______ ____
ROOT
ATOM      1  C   UNL     1      -1.681  -1.645   3.696  0.00  0.00    -0.005 C 
ATOM      2  C   UNL     1      -0.591  -0.781   3.057  0.00  0.00    -0.004 C 
ENDROOT
BRANCH   2   3
ATOM      3  C   UNL     1       0.764  -1.299   3.466  0.00  0.00    +0.097 A 
ATOM      4  N   UNL     1       1.078  -2.600   3.239  0.00  0.00    -0.312 N 
ATOM      5  H   UNL     1       0.424  -3.180   2.817  0.00  0.00    +0.170 HD
ATOM      6  C   UNL     1       2.277  -3.102   3.588  0.00  0.00    +0.260 A 
ATOM      7  O   UNL     1       2.543  -4.273   3.378  0.00  0.00    -0.267 OA
ATOM      8  C   UNL     1       3.235  -2.240   4.210  0.00  0.00    +0.080 A 
ATOM      9  C   UNL     1       4.584  -2.542   4.674  0.00  0.00    +0.010 A 
ATOM     10  C   UNL     1       5.316  -1.550   5.241  0.00  0.00    +0.057 A 
ATOM     11  S   UNL     1       4.221  -0.144   5.180  0.00  0.00    -0.076 S 
ATOM     12  C   UNL     1       2.822  -0.911   4.404  0.00  0.00    +0.116 A 
ATOM     13  N   UNL     1       1.619  -0.486   4.027  0.00  0.00    -0.228 NA
BRANCH   9  14
ATOM     14  C   UNL     1       5.143  -3.903   4.531  0.00  0.00    +0.021 A 
ATOM     15  C   UNL     1       6.345  -4.291   4.002  0.00  0.00    +0.016 A 
ATOM     16  C   UNL     1       6.656  -5.634   3.979  0.00  0.00    +0.008 A 
ATOM     17  C   UNL     1       5.760  -6.528   4.468  0.00  0.00    +0.046 A 
ATOM     18  S   UNL     1       4.423  -5.469   4.995  0.00  0.00    -0.097 S 
ENDBRANCH   9  14
ENDBRANCH   2   3
BRANCH   2  20
ATOM     19  C   UNL     1      -0.646   0.700   4.971  0.00  0.00    -0.095 C 
ATOM     20  N   UNL     1      -0.719   0.624   3.497  0.00  0.00    +0.387 N 
ATOM     21  H   UNL     1       0.052   1.171   3.096  0.00  0.00    -0.081 HD
BRANCH  20  22
ATOM     22  C   UNL     1      -2.002   1.186   3.025  0.00  0.00    -0.041 C 
BRANCH  22  23
ATOM     23  C   UNL     1      -2.011   2.669   3.293  0.00  0.00    -0.043 A 
ATOM     24  C   UNL     1      -2.762   3.179   4.334  0.00  0.00    +0.003 A 
ATOM     25  C   UNL     1      -2.775   4.540   4.577  0.00  0.00    +0.000 A 
ATOM     26  C   UNL     1      -2.033   5.395   3.782  0.00  0.00    +0.002 A 
ATOM     27  C   UNL     1      -1.276   4.891   2.743  0.00  0.00    +0.023 A 
ATOM     28  C   UNL     1      -1.261   3.524   2.496  0.00  0.00    +0.031 A 
BRANCH  28  29
ATOM     29  N   UNL     1      -0.497   3.011   1.445  0.00  0.00    -0.325 N 
ATOM     30  C   UNL     1      -0.920   3.583   0.158  0.00  0.00    +0.133 C 
ATOM     31  C   UNL     1      -0.099   2.952  -0.969  0.00  0.00    +0.178 C 
ATOM     32  O   UNL     1       1.293   3.160  -0.714  0.00  0.00    -0.377 OA
ATOM     33  C   UNL     1       1.738   2.614   0.531  0.00  0.00    +0.178 C 
ATOM     34  C   UNL     1       0.936   3.243   1.673  0.00  0.00    +0.133 C 
ENDBRANCH  28  29
ENDBRANCH  22  23
ENDBRANCH  20  22
ENDBRANCH   2  20
TORSDOF 6
