REMARK  Name = ZINC35427386
REMARK  5 active torsions:
REMARK  status: ('A' for Active; 'I' for Inactive)
REMARK    1  A    between atoms: C_1  and  N_2
REMARK    2  A    between atoms: C_16  and  C_31
REMARK    3  A    between atoms: N_22  and  C_23
REMARK    4  A    between atoms: C_27  and  S_29
REMARK    5  A    between atoms: S_29  and  C_30
REMARK                            x       y       z     vdW  Elec       q    Type
REMARK                         _______ _______ _______ _____ _____    ______ ____
ROOT
ATOM      1  C   UNL     1      -0.322   1.346  -1.317  0.00  0.00    -0.096 C 
ATOM      2  N   UNL     1      -0.282  -0.100  -1.059  0.00  0.00    +0.381 N 
ATOM      3  C   UNL     1      -1.649  -0.603  -0.875  0.00  0.00    -0.074 C 
ATOM      4  C   UNL     1      -1.664  -2.134  -0.922  0.00  0.00    +0.018 C 
ATOM      5  C   UNL     1      -0.632  -2.645   0.081  0.00  0.00    -0.034 A 
ATOM      6  C   UNL     1      -0.619  -3.968   0.560  0.00  0.00    +0.004 A 
ATOM      7  C   UNL     1       0.351  -4.281   1.463  0.00  0.00    +0.090 A 
ATOM      8  S   UNL     1       1.277  -2.788   1.656  0.00  0.00    -0.077 S 
ATOM      9  C   UNL     1       0.326  -1.794   0.538  0.00  0.00    -0.021 A 
ATOM     10  C   UNL     1       0.506  -0.360   0.161  0.00  0.00    -0.036 C 
ATOM     11  N   UNL     1       0.485  -5.528   2.059  0.00  0.00    -0.312 N 
ATOM     12  C   UNL     1       1.570  -6.309   2.268  0.00  0.00    +0.092 A 
ATOM     13  C   UNL     1       1.152  -7.466   2.830  0.00  0.00    +0.020 A 
ATOM     14  C   UNL     1      -0.248  -7.380   2.988  0.00  0.00    +0.025 A 
ATOM     15  C   UNL     1      -0.631  -6.178   2.533  0.00  0.00    +0.049 A 
ATOM     16  C   UNL     1      -1.991  -5.546   2.539  0.00  0.00    +0.155 C 
ATOM     17  N   UNL     1      -2.545  -5.417   1.169  0.00  0.00    -0.268 N 
ATOM     18  C   UNL     1      -1.604  -5.022   0.106  0.00  0.00    +0.148 C 
ATOM     19  C   UNL     1      -3.847  -5.651   0.909  0.00  0.00    +0.308 C 
ATOM     20  O   UNL     1      -4.598  -5.975   1.809  0.00  0.00    -0.252 OA
ATOM     21  N   UNL     1      -4.316  -5.524  -0.348  0.00  0.00    -0.269 N 
ATOM     22  H   UNL     1      -3.705  -5.332  -1.076  0.00  0.00    +0.156 HD
ATOM     23  H   UNL     1       0.147  -0.570  -1.843  0.00  0.00    -0.082 HD
ENDROOT
BRANCH  21  24
ATOM     24  C   UNL     1      -5.684  -5.671  -0.602  0.00  0.00    +0.036 A 
ATOM     25  C   UNL     1      -6.298  -4.892  -1.575  0.00  0.00    +0.023 A 
ATOM     26  C   UNL     1      -7.649  -5.036  -1.827  0.00  0.00    +0.003 A 
ATOM     27  C   UNL     1      -8.394  -5.953  -1.112  0.00  0.00    +0.015 A 
ATOM     28  C   UNL     1      -7.787  -6.735  -0.137  0.00  0.00    +0.009 A 
ATOM     29  C   UNL     1      -6.428  -6.597   0.114  0.00  0.00    +0.038 A 
BRANCH  28  30
ATOM     30  S   UNL     1      -8.738  -7.904   0.776  0.00  0.00    -0.129 S 
ATOM     31  C   UNL     1     -10.413  -7.728   0.103  0.00  0.00    +0.090 C 
ENDBRANCH  28  30
ENDBRANCH  21  24
BRANCH  16  32
ATOM     32  C   UNL     1      -1.893  -4.175   3.158  0.00  0.00    -0.021 A 
ATOM     33  C   UNL     1      -2.693  -3.148   2.693  0.00  0.00    +0.006 A 
ATOM     34  C   UNL     1      -2.603  -1.891   3.261  0.00  0.00    +0.000 A 
ATOM     35  C   UNL     1      -1.713  -1.661   4.293  0.00  0.00    +0.000 A 
ATOM     36  C   UNL     1      -0.913  -2.688   4.758  0.00  0.00    +0.000 A 
ATOM     37  C   UNL     1      -1.006  -3.946   4.193  0.00  0.00    +0.006 A 
ENDBRANCH  16  32
TORSDOF 3
