REMARK  Name = ZINC09945366
REMARK  8 active torsions:
REMARK  status: ('A' for Active; 'I' for Inactive)
REMARK    1  A    between atoms: C_1  and  O_2
REMARK    2  A    between atoms: O_2  and  C_3
REMARK    3  A    between atoms: C_8  and  C_9
REMARK    4  A    between atoms: C_9  and  C_11
REMARK    5  A    between atoms: C_9  and  N_57
REMARK    6  A    between atoms: C_11  and  N_12
REMARK    7  A    between atoms: N_12  and  C_13
REMARK    8  A    between atoms: C_24  and  C_27
REMARK                            x       y       z     vdW  Elec       q    Type
REMARK                         _______ _______ _______ _____ _____    ______ ____
ROOT
ATOM      1  N   UNL     1      -3.407   6.279   8.515  0.00  0.00    -0.343 N 
ATOM      2  H   UNL     1      -3.123   6.657   9.362  0.00  0.00    +0.146 HD
ENDROOT
BRANCH   1   3
ATOM      3  C   UNL     1      -2.528   6.237   7.446  0.00  0.00    +0.071 A 
ATOM      4  C   UNL     1      -2.934   5.689   6.210  0.00  0.00    +0.158 A 
ATOM      5  N   UNL     1      -2.110   5.654   5.201  0.00  0.00    -0.168 NA
ATOM      6  N   UNL     1      -0.805   6.144   5.319  0.00  0.00    -0.177 N 
ATOM      7  C   UNL     1      -0.375   6.676   6.480  0.00  0.00    +0.293 A 
ATOM      8  O   UNL     1       0.765   7.106   6.574  0.00  0.00    -0.264 OA
ATOM      9  C   UNL     1      -1.243   6.732   7.580  0.00  0.00    +0.129 A 
ATOM     10 CL   UNL     1      -0.713   7.412   9.086  0.00  0.00    -0.076 Cl
ATOM     11  C   UNL     1       0.057   6.087   4.222  0.00  0.00    +0.158 A 
ATOM     12  C   UNL     1      -0.387   5.539   3.025  0.00  0.00    +0.049 A 
ATOM     13  C   UNL     1       0.476   5.493   1.944  0.00  0.00    +0.017 A 
ATOM     14  C   UNL     1       1.762   5.991   2.102  0.00  0.00    +0.073 A 
ATOM     15  C   UNL     1       2.136   6.521   3.322  0.00  0.00    +0.125 A 
ATOM     16  N   UNL     1       1.290   6.556   4.332  0.00  0.00    -0.235 NA
BRANCH  14  17
ATOM     17  C   UNL     1       2.738   5.958   0.955  0.00  0.00    +0.419 C 
ATOM     18  F   UNL     1       3.954   6.518   1.360  0.00  0.00    -0.166 F 
ATOM     19  F   UNL     1       2.221   6.692  -0.118  0.00  0.00    -0.166 F 
ATOM     20  F   UNL     1       2.945   4.633   0.556  0.00  0.00    -0.166 F 
ENDBRANCH  14  17
ENDBRANCH   1   3
BRANCH   1  21
ATOM     21  C   UNL     1      -4.767   5.753   8.366  0.00  0.00    +0.091 C 
BRANCH  21  22
ATOM     22  C   UNL     1      -5.488   5.816   9.714  0.00  0.00    -0.017 C 
BRANCH  22  28
ATOM     23  C   UNL     1      -6.766   7.972   9.651  0.00  0.00    +0.122 A 
ATOM     24  C   UNL     1      -6.934   9.298  10.025  0.00  0.00    +0.046 A 
ATOM     25  C   UNL     1      -6.015   9.900  10.862  0.00  0.00    +0.004 A 
ATOM     26  C   UNL     1      -4.927   9.184  11.326  0.00  0.00    +0.000 A 
ATOM     27  C   UNL     1      -4.760   7.861  10.959  0.00  0.00    +0.005 A 
ATOM     28  C   UNL     1      -5.674   7.256  10.118  0.00  0.00    -0.018 A 
BRANCH  23  30
ATOM     29  C   UNL     1      -8.768   8.176   8.386  0.00  0.00    +0.277 C 
ATOM     30  O   UNL     1      -7.669   7.378   8.828  0.00  0.00    -0.495 OA
ENDBRANCH  23  30
ENDBRANCH  22  28
BRANCH  22  35
ATOM     31  C   UNL     1      -5.380   5.119  12.045  0.00  0.00    -0.078 C 
ATOM     32  C   UNL     1      -4.699   3.952  12.803  0.00  0.00    -0.020 C 
ATOM     33  C   UNL     1      -4.476   2.901  11.691  0.00  0.00    -0.020 C 
ATOM     34  C   UNL     1      -4.495   3.699  10.374  0.00  0.00    -0.078 C 
ATOM     35  N   UNL     1      -4.682   5.101  10.749  0.00  0.00    +0.385 N 
ATOM     36  H   UNL     1      -3.769   5.560  10.841  0.00  0.00    -0.081 HD
ENDBRANCH  22  35
ENDBRANCH  21  22
ENDBRANCH   1  21
TORSDOF 7
