REMARK  Name = ZINC04326887
REMARK  4 active torsions:
REMARK  status: ('A' for Active; 'I' for Inactive)
REMARK    1  A    between atoms: C_10  and  C_12
REMARK    2  A    between atoms: C_12  and  S_13
REMARK    3  A    between atoms: S_13  and  C_14
REMARK    4  A    between atoms: C_20  and  C_23
REMARK                            x       y       z     vdW  Elec       q    Type
REMARK                         _______ _______ _______ _____ _____    ______ ____
ROOT
ATOM      1  C   UNL     1       6.618  -2.255   0.141  0.00  0.00    +0.118 A 
ATOM      2  C   UNL     1       7.548  -2.674   1.112  0.00  0.00    +0.040 A 
ATOM      3  C   UNL     1       8.027  -3.947   1.095  0.00  0.00    +0.053 A 
ATOM      4  C   UNL     1       7.590  -4.830   0.090  0.00  0.00    +0.178 A 
ATOM      5  N   UNL     1       7.864  -6.095  -0.198  0.00  0.00    -0.128 NA
ATOM      6  N   UNL     1       7.195  -6.457  -1.236  0.00  0.00    -0.125 NA
ATOM      7  C   UNL     1       6.459  -5.450  -1.673  0.00  0.00    +0.203 A 
ATOM      8  N   UNL     1       6.688  -4.391  -0.845  0.00  0.00    -0.190 N 
ATOM      9  N   UNL     1       6.210  -3.080  -0.797  0.00  0.00    -0.157 NA
ENDROOT
BRANCH   7  10
ATOM     10  C   UNL     1       5.555  -5.469  -2.841  0.00  0.00    +0.110 A 
ATOM     11  C   UNL     1       5.343  -6.663  -3.533  0.00  0.00    +0.031 A 
ATOM     12  C   UNL     1       4.493  -6.664  -4.624  0.00  0.00    +0.004 A 
ATOM     13  C   UNL     1       3.882  -5.472  -4.990  0.00  0.00    +0.020 A 
ATOM     14  C   UNL     1       4.137  -4.326  -4.261  0.00  0.00    +0.111 A 
ATOM     15  N   UNL     1       4.946  -4.351  -3.222  0.00  0.00    -0.252 NA
ENDBRANCH   7  10
BRANCH   1  16
ATOM     16  S   UNL     1       6.000  -0.606   0.180  0.00  0.00    -0.095 S 
BRANCH  16  17
ATOM     17  C   UNL     1       4.198  -0.813   0.210  0.00  0.00    +0.172 C 
BRANCH  17  27
ATOM     18  C   UNL     1      -0.742  -2.288   0.603  0.00  0.00    +0.000 A 
ATOM     19  C   UNL     1       0.567  -2.721   0.488  0.00  0.00    +0.002 A 
ATOM     20  C   UNL     1       1.592  -1.807   0.367  0.00  0.00    +0.024 A 
ATOM     21  C   UNL     1       1.317  -0.438   0.360  0.00  0.00    +0.040 A 
ATOM     22  C   UNL     1       0.003  -0.015   0.475  0.00  0.00    -0.024 A 
ATOM     23  C   UNL     1      -1.021  -0.934   0.597  0.00  0.00    +0.005 A 
ATOM     24  C   UNL     1      -0.021   1.497   0.440  0.00  0.00    +0.056 C 
ATOM     25  C   UNL     1       1.454   1.904   0.288  0.00  0.00    +0.118 C 
ATOM     26  N   UNL     1       2.198   0.642   0.248  0.00  0.00    -0.270 N 
ATOM     27  C   UNL     1       3.536   0.538   0.122  0.00  0.00    +0.230 C 
ATOM     28  O   UNL     1       4.207   1.532  -0.061  0.00  0.00    -0.274 OA
ENDBRANCH  17  27
ENDBRANCH  16  17
ENDBRANCH   1  16
TORSDOF 4
