REMARK  Name = ZINC20879310
REMARK  10 active torsions:
REMARK  status: ('A' for Active; 'I' for Inactive)
REMARK    1  A    between atoms: C_1  and  C_2
REMARK    2  A    between atoms: C_5  and  C_8
REMARK    3  A    between atoms: C_8  and  O_9
REMARK    4  A    between atoms: O_9  and  C_10
REMARK    5  A    between atoms: C_11  and  O_29
REMARK    6  A    between atoms: C_13  and  C_17
REMARK    7  A    between atoms: C_17  and  N_18
REMARK    8  A    between atoms: N_18  and  C_19
REMARK    9  A    between atoms: C_22  and  C_26
REMARK   10  A    between atoms: O_29  and  C_30
REMARK                            x       y       z     vdW  Elec       q    Type
REMARK                         _______ _______ _______ _____ _____    ______ ____
ROOT
ATOM      1  C   UNL     1      -1.427   3.411   2.468  0.00  0.00    +0.176 A 
ATOM      2  C   UNL     1      -0.787   2.893   1.346  0.00  0.00    +0.163 A 
ATOM      3  C   UNL     1      -0.254   3.751   0.398  0.00  0.00    +0.054 A 
ATOM      4  C   UNL     1      -0.366   5.119   0.562  0.00  0.00    -0.026 A 
ATOM      5  C   UNL     1      -1.001   5.635   1.676  0.00  0.00    +0.024 A 
ATOM      6  C   UNL     1      -1.532   4.784   2.630  0.00  0.00    +0.063 A 
ATOM      7 BR   UNL     1      -2.400   5.494   4.152  0.00  0.00    -0.046 Br
ENDROOT
BRANCH   2   8
ATOM      8  O   UNL     1      -0.682   1.547   1.184  0.00  0.00    -0.491 OA
ATOM      9  C   UNL     1      -0.013   1.086   0.008  0.00  0.00    +0.277 C 
ENDBRANCH   2   8
BRANCH   1  10
ATOM     10  O   UNL     1      -1.947   2.573   3.405  0.00  0.00    -0.483 OA
BRANCH  10  11
ATOM     11  C   UNL     1      -1.086   2.185   4.478  0.00  0.00    +0.264 C 
BRANCH  11  16
ATOM     12  C   UNL     1      -3.936  -1.352   8.050  0.00  0.00    +0.044 C 
ATOM     13  C   UNL     1      -3.193  -0.430   7.119  0.00  0.00    -0.050 A 
ATOM     14  C   UNL     1      -2.482  -0.949   6.053  0.00  0.00    +0.004 A 
ATOM     15  C   UNL     1      -1.800  -0.103   5.198  0.00  0.00    +0.007 A 
ATOM     16  C   UNL     1      -1.830   1.263   5.409  0.00  0.00    -0.010 A 
ATOM     17  C   UNL     1      -2.536   1.782   6.478  0.00  0.00    +0.007 A 
ATOM     18  C   UNL     1      -3.221   0.936   7.330  0.00  0.00    +0.004 A 
ENDBRANCH  11  16
ENDBRANCH  10  11
ENDBRANCH   1  10
BRANCH   4  19
ATOM     19  C   UNL     1       0.209   6.050  -0.473  0.00  0.00    +0.137 C 
BRANCH  19  20
ATOM     20  N   UNL     1       1.599   6.364  -0.129  0.00  0.00    -0.340 N 
ATOM     21  H   UNL     1       2.053   5.930   0.773  0.00  0.00    +0.146 HD
BRANCH  20  22
ATOM     22  C   UNL     1       2.342   7.211  -0.944  0.00  0.00    +0.029 A 
ATOM     23  C   UNL     1       1.766   7.755  -2.089  0.00  0.00    +0.024 A 
ATOM     24  C   UNL     1       2.489   8.591  -2.891  0.00  0.00    +0.018 A 
ATOM     25  C   UNL     1       3.815   8.897  -2.570  0.00  0.00    +0.082 A 
ATOM     26  C   UNL     1       4.399   8.347  -1.422  0.00  0.00    +0.057 A 
ATOM     27  C   UNL     1       3.661   7.508  -0.615  0.00  0.00    +0.043 A 
ATOM     28 CL   UNL     1       6.044   8.722  -1.016  0.00  0.00    -0.083 Cl
BRANCH  25  29
ATOM     29  C   UNL     1       4.597   9.795  -3.438  0.00  0.00    +0.388 C 
ATOM     30  O   UNL     1       5.749  10.060  -3.157  0.00  0.00    -0.241 OA
ATOM     31  O   UNL     1       4.034  10.323  -4.542  0.00  0.00    -0.241 OA
ENDBRANCH  25  29
ENDBRANCH  20  22
ENDBRANCH  19  20
ENDBRANCH   4  19
TORSDOF 8
