REMARK  Name = ZINC13749580
REMARK  8 active torsions:
REMARK  status: ('A' for Active; 'I' for Inactive)
REMARK    1  A    between atoms: C_1  and  C_2
REMARK    2  A    between atoms: C_2  and  C_8
REMARK    3  A    between atoms: N_3  and  N_4
REMARK    4  A    between atoms: C_11  and  C_12
REMARK    5  A    between atoms: C_11  and  C_13
REMARK    6  A    between atoms: C_13  and  C_14
REMARK    7  A    between atoms: C_13  and  C_15
REMARK    8  A    between atoms: C_13  and  C_16
REMARK                            x       y       z     vdW  Elec       q    Type
REMARK                         _______ _______ _______ _____ _____    ______ ____
ROOT
ATOM      1  C   UNL     1      -3.824   0.840   3.129  0.00  0.00    +0.062 C 
ATOM      2  C   UNL     1      -2.666   0.445   2.250  0.00  0.00    +0.037 C 
ATOM      3  N   UNL     1      -1.652  -0.151   2.755  0.00  0.00    -0.188 NA
ENDROOT
BRANCH   3   4
ATOM      4  N   UNL     1      -0.654  -0.668   1.919  0.00  0.00    -0.191 N 
ATOM      5  C   UNL     1       0.360  -1.385   2.443  0.00  0.00    +0.317 C 
ATOM      6  O   UNL     1       1.275  -1.754   1.732  0.00  0.00    -0.251 OA
ATOM      7  N   UNL     1       0.361  -1.692   3.755  0.00  0.00    -0.312 N 
ATOM      8  H   UNL     1      -0.692  -0.510   0.963  0.00  0.00    +0.179 HD
ATOM      9  H   UNL     1      -0.369  -1.397   4.323  0.00  0.00    +0.147 HD
ATOM     10  H   UNL     1       1.091  -2.208   4.133  0.00  0.00    +0.147 HD
ENDBRANCH   3   4
BRANCH   2  11
ATOM     11  C   UNL     1      -2.701   0.751   0.774  0.00  0.00    +0.042 C 
ATOM     12  C   UNL     1      -3.791   1.703   0.276  0.00  0.00    +0.017 C 
ATOM     13  C   UNL     1      -2.336   2.172   0.339  0.00  0.00    -0.019 C 
ATOM     14  C   UNL     1      -1.588   2.335  -0.986  0.00  0.00    +0.012 C 
BRANCH  13  15
ATOM     15  C   UNL     1      -1.964   3.173   1.435  0.00  0.00    -0.032 C 
ATOM     16  C   UNL     1      -1.089   4.278   0.840  0.00  0.00    +0.011 C 
ATOM     17  C   UNL     1      -1.193   2.453   2.543  0.00  0.00    +0.011 C 
ATOM     18  C   UNL     1      -3.237   3.789   2.017  0.00  0.00    +0.011 C 
ENDBRANCH  13  15
ENDBRANCH   2  11
TORSDOF 3
