REMARK  Name = ZINC08833737
REMARK  7 active torsions:
REMARK  status: ('A' for Active; 'I' for Inactive)
REMARK    1  A    between atoms: C_3  and  N_26
REMARK    2  A    between atoms: C_5  and  O_7
REMARK    3  A    between atoms: O_7  and  C_8
REMARK    4  A    between atoms: N_16  and  C_19
REMARK    5  A    between atoms: C_19  and  C_20
REMARK    6  A    between atoms: N_26  and  S_27
REMARK    7  A    between atoms: S_27  and  C_30
REMARK                            x       y       z     vdW  Elec       q    Type
REMARK                         _______ _______ _______ _____ _____    ______ ____
ROOT
ATOM      1  C   UNL     1       2.620   1.807  -4.013  0.00  0.00    +0.005 A 
ATOM      2  C   UNL     1       1.588   1.510  -3.144  0.00  0.00    +0.025 A 
ATOM      3  C   UNL     1       1.011   0.246  -3.157  0.00  0.00    +0.052 A 
ATOM      4  C   UNL     1       1.476  -0.719  -4.041  0.00  0.00    +0.070 A 
ATOM      5  C   UNL     1       2.507  -0.414  -4.915  0.00  0.00    +0.130 A 
ATOM      6  C   UNL     1       3.080   0.850  -4.897  0.00  0.00    +0.046 A 
ENDROOT
BRANCH   3   7
ATOM      7  N   UNL     1      -0.033  -0.055  -2.279  0.00  0.00    -0.216 N 
ATOM      8  H   UNL     1      -0.029  -0.894  -1.792  0.00  0.00    +0.174 HD
BRANCH   7   9
ATOM      9  S   UNL     1      -1.275   1.020  -2.069  0.00  0.00    +0.072 S 
ATOM     10  O   UNL     1      -0.679   2.289  -1.837  0.00  0.00    -0.150 OA
ATOM     11  O   UNL     1      -2.178   0.422  -1.149  0.00  0.00    -0.150 OA
BRANCH   9  12
ATOM     12  C   UNL     1      -2.127   1.137  -3.606  0.00  0.00    +0.109 A 
ATOM     13  C   UNL     1      -3.182   0.286  -3.878  0.00  0.00    +0.030 A 
ATOM     14  C   UNL     1      -3.852   0.378  -5.084  0.00  0.00    +0.022 A 
ATOM     15  C   UNL     1      -3.466   1.322  -6.019  0.00  0.00    +0.041 A 
ATOM     16  C   UNL     1      -2.409   2.173  -5.747  0.00  0.00    +0.022 A 
ATOM     17  C   UNL     1      -1.741   2.080  -4.540  0.00  0.00    +0.030 A 
ATOM     18 CL   UNL     1      -4.306   1.438  -7.534  0.00  0.00    -0.084 Cl
ENDBRANCH   9  12
ENDBRANCH   7   9
ENDBRANCH   3   7
BRANCH   5  19
ATOM     19  O   UNL     1       2.961  -1.354  -5.785  0.00  0.00    -0.456 OA
BRANCH  19  20
ATOM     20  C   UNL     1       3.985  -1.018  -6.609  0.00  0.00    +0.129 A 
ATOM     21  C   UNL     1       5.296  -1.230  -6.205  0.00  0.00    +0.047 A 
ATOM     22  C   UNL     1       6.349  -0.891  -7.035  0.00  0.00    +0.017 A 
ATOM     23  C   UNL     1       6.093  -0.336  -8.281  0.00  0.00    +0.050 A 
ATOM     24  C   UNL     1       4.762  -0.120  -8.696  0.00  0.00    +0.053 A 
ATOM     25  C   UNL     1       3.715  -0.467  -7.860  0.00  0.00    +0.060 A 
ATOM     26  C   UNL     1       4.851   0.472 -10.048  0.00  0.00    +0.254 C 
ATOM     27  O   UNL     1       3.910   0.801 -10.741  0.00  0.00    -0.270 OA
ATOM     28  N   UNL     1       6.149   0.585 -10.380  0.00  0.00    -0.232 N 
ATOM     29  C   UNL     1       6.943   0.132  -9.394  0.00  0.00    +0.254 C 
ATOM     30  O   UNL     1       8.158   0.110  -9.415  0.00  0.00    -0.270 OA
BRANCH  28  31
ATOM     31  C   UNL     1       6.635   1.131 -11.650  0.00  0.00    +0.148 C 
BRANCH  31  32
ATOM     32  C   UNL     1       6.838   2.642 -11.511  0.00  0.00    +0.136 C 
ATOM     33  C   UNL     1       7.284   3.251 -12.864  0.00  0.00    +0.035 C 
ATOM     34  C   UNL     1       6.809   4.720 -12.697  0.00  0.00    +0.031 C 
ATOM     35  C   UNL     1       5.520   4.555 -11.863  0.00  0.00    +0.160 C 
ATOM     36  O   UNL     1       5.592   3.286 -11.202  0.00  0.00    -0.375 OA
ENDBRANCH  31  32
ENDBRANCH  28  31
ENDBRANCH  19  20
ENDBRANCH   5  19
TORSDOF 7
