REMARK  Name = ZINC22802236
REMARK  8 active torsions:
REMARK  status: ('A' for Active; 'I' for Inactive)
REMARK    1  A    between atoms: C_1  and  C_2
REMARK    2  A    between atoms: C_11  and  N_15
REMARK    3  A    between atoms: N_15  and  C_16
REMARK    4  A    between atoms: C_16  and  C_17
REMARK    5  A    between atoms: C_17  and  C_18
REMARK    6  A    between atoms: C_18  and  C_19
REMARK    7  A    between atoms: C_20  and  C_26
REMARK    8  A    between atoms: C_21  and  N_25
REMARK                            x       y       z     vdW  Elec       q    Type
REMARK                         _______ _______ _______ _____ _____    ______ ____
ROOT
ATOM      1  N   UNL     1       3.483  -0.816  -0.036  0.00  0.00    -0.328 N 
ATOM      2  H   UNL     1       4.455  -0.309  -0.126  0.00  0.00    +0.147 HD
ENDROOT
BRANCH   1  12
ATOM      3  C   UNL     1       6.798   5.059  -0.029  0.00  0.00    +0.008 C 
ATOM      4  C   UNL     1       5.689   4.051  -0.336  0.00  0.00    -0.009 C 
ATOM      5  C   UNL     1       5.914   2.775   0.481  0.00  0.00    +0.008 C 
ATOM      6  C   UNL     1       4.963   1.678   0.003  0.00  0.00    +0.037 C 
ATOM      7  C   UNL     1       3.537   2.223   0.013  0.00  0.00    -0.025 A 
ATOM      8  C   UNL     1       3.308   3.552   0.035  0.00  0.00    -0.004 A 
ATOM      9  S   UNL     1       1.543   3.716   0.042  0.00  0.00    -0.073 S 
ATOM     10  C   UNL     1       1.114   1.996   0.015  0.00  0.00    +0.114 A 
ATOM     11  C   UNL     1       2.365   1.347   0.002  0.00  0.00    +0.051 A 
ATOM     12  C   UNL     1       2.316  -0.074  -0.021  0.00  0.00    +0.130 A 
ATOM     13  N   UNL     1       1.138  -0.678  -0.027  0.00  0.00    -0.220 NA
ATOM     14  C   UNL     1       0.002  -0.004  -0.012  0.00  0.00    +0.224 A 
ATOM     15  N   UNL     1      -0.016   1.315   0.008  0.00  0.00    -0.228 NA
ATOM     16  C   UNL     1       4.329   4.649   0.050  0.00  0.00    +0.046 C 
ENDBRANCH   1  12
BRANCH   1  17
ATOM     17  C   UNL     1       3.425  -2.276   0.067  0.00  0.00    +0.103 C 
BRANCH  17  18
ATOM     18  C   UNL     1       4.844  -2.847   0.025  0.00  0.00    +0.025 C 
BRANCH  18  19
ATOM     19  C   UNL     1       4.783  -4.372   0.133  0.00  0.00    +0.060 C 
BRANCH  19  20
ATOM     20  C   UNL     1       6.180  -4.935   0.092  0.00  0.00    +0.082 A 
ATOM     21  C   UNL     1       7.013  -5.167   1.211  0.00  0.00    +0.113 A 
ATOM     22  C   UNL     1       8.210  -5.689   0.727  0.00  0.00    +0.129 A 
ATOM     23  N   UNL     1       8.095  -5.765  -0.616  0.00  0.00    -0.263 N 
ATOM     24  H   UNL     1       8.931  -6.150  -1.218  0.00  0.00    +0.190 HD
ATOM     25  N   UNL     1       6.828  -5.297  -0.980  0.00  0.00    -0.176 NA
BRANCH  22  26
ATOM     26  N   UNL     1       9.308  -6.060   1.479  0.00  0.00    -0.342 N 
ATOM     27  H   UNL     1      10.203  -6.463   0.983  0.00  0.00    +0.144 HD
ATOM     28  H   UNL     1       9.287  -5.952   2.573  0.00  0.00    +0.144 HD
ENDBRANCH  22  26
BRANCH  21  29
ATOM     29  C   UNL     1       6.689  -4.912   2.582  0.00  0.00    +0.104 C 
ATOM     30  N   UNL     1       6.431  -4.710   3.670  0.00  0.00    -0.191 NA
ENDBRANCH  21  29
ENDBRANCH  19  20
ENDBRANCH  18  19
ENDBRANCH  17  18
ENDBRANCH   1  17
TORSDOF 7
