REMARK  Name = ZINC13070052
REMARK  6 active torsions:
REMARK  status: ('A' for Active; 'I' for Inactive)
REMARK    1  A    between atoms: C_1  and  N_40
REMARK    2  A    between atoms: C_2  and  C_3
REMARK    3  A    between atoms: C_2  and  N_40
REMARK    4  A    between atoms: N_5  and  C_6
REMARK    5  A    between atoms: C_13  and  N_14
REMARK    6  A    between atoms: C_13  and  N_40
REMARK                            x       y       z     vdW  Elec       q    Type
REMARK                         _______ _______ _______ _____ _____    ______ ____
ROOT
ATOM      1  C   UNL     1       0.066   1.595   2.448  0.00  0.00    -0.093 C 
ATOM      2  N   UNL     1      -0.713   1.924   1.235  0.00  0.00    +0.397 N 
ATOM      3  H   UNL     1      -1.621   1.447   1.282  0.00  0.00    -0.079 HD
ENDROOT
BRANCH   2   4
ATOM      4  C   UNL     1      -0.941   3.383   1.161  0.00  0.00    +0.021 C 
BRANCH   4   5
ATOM      5  C   UNL     1      -1.864   3.788   2.281  0.00  0.00    +0.201 C 
ATOM      6  O   UNL     1      -2.271   2.954   3.063  0.00  0.00    -0.278 OA
ATOM      7  N   UNL     1      -2.237   5.076   2.414  0.00  0.00    -0.286 N 
ATOM      8  H   UNL     1      -1.862   5.753   1.830  0.00  0.00    +0.155 HD
BRANCH   7   9
ATOM      9  C   UNL     1      -3.168   5.437   3.396  0.00  0.00    +0.052 A 
ATOM     10  C   UNL     1      -3.183   4.775   4.617  0.00  0.00    +0.025 A 
ATOM     11  C   UNL     1      -4.099   5.137   5.586  0.00  0.00    +0.002 A 
ATOM     12  C   UNL     1      -5.006   6.151   5.338  0.00  0.00    +0.002 A 
ATOM     13  C   UNL     1      -4.998   6.809   4.122  0.00  0.00    +0.022 A 
ATOM     14  C   UNL     1      -4.081   6.455   3.150  0.00  0.00    +0.062 A 
ATOM     15 CL   UNL     1      -4.070   7.281   1.623  0.00  0.00    -0.082 Cl
ENDBRANCH   7   9
ENDBRANCH   4   5
ENDBRANCH   2   4
BRANCH   2  16
ATOM     16  C   UNL     1       0.010   1.465   0.030  0.00  0.00    +0.072 C 
BRANCH  16  17
ATOM     17  N   UNL     1       0.035  -0.000   0.024  0.00  0.00    -0.257 N 
ATOM     18  C   UNL     1       0.994  -0.783   0.558  0.00  0.00    +0.181 A 
ATOM     19  S   UNL     1       2.403  -0.242   1.365  0.00  0.00    -0.011 S 
ATOM     20  N   UNL     1       0.645  -2.068   0.347  0.00  0.00    -0.276 N 
ATOM     21  C   UNL     1       1.259  -3.252   0.683  0.00  0.00    +0.115 A 
ATOM     22  C   UNL     1       0.706  -4.432   0.348  0.00  0.00    +0.059 A 
ATOM     23  C   UNL     1      -0.516  -4.478  -0.355  0.00  0.00    +0.045 A 
ATOM     24  C   UNL     1      -1.141  -3.324  -0.698  0.00  0.00    +0.087 A 
ATOM     25  C   UNL     1      -0.553  -2.083  -0.342  0.00  0.00    +0.178 A 
ATOM     26  N   UNL     1      -0.932  -0.842  -0.543  0.00  0.00    -0.151 NA
ATOM     27 CL   UNL     1      -2.646  -3.366  -1.562  0.00  0.00    -0.080 Cl
ATOM     28 CL   UNL     1       1.503  -5.911   0.786  0.00  0.00    -0.082 Cl
ENDBRANCH  16  17
ENDBRANCH   2  16
TORSDOF 5
