REMARK  Name = ZINC45962023
REMARK  6 active torsions:
REMARK  status: ('A' for Active; 'I' for Inactive)
REMARK    1  A    between atoms: C_1  and  C_2
REMARK    2  A    between atoms: C_3  and  S_9
REMARK    3  A    between atoms: S_9  and  N_12
REMARK    4  A    between atoms: N_12  and  C_13
REMARK    5  A    between atoms: C_14  and  N_24
REMARK    6  A    between atoms: N_24  and  C_25
REMARK                            x       y       z     vdW  Elec       q    Type
REMARK                         _______ _______ _______ _____ _____    ______ ____
ROOT
ATOM      1  C   UNL     1      -1.669   1.842  -1.422  0.00  0.00    +0.154 A 
ATOM      2  C   UNL     1      -0.841   1.767  -0.317  0.00  0.00    +0.068 A 
ATOM      3  C   UNL     1      -1.275   2.446   0.915  0.00  0.00    +0.040 A 
ATOM      4  C   UNL     1      -0.489   2.412   2.069  0.00  0.00    +0.013 A 
ATOM      5  C   UNL     1      -0.922   3.058   3.206  0.00  0.00    +0.001 A 
ATOM      6  C   UNL     1      -2.131   3.737   3.207  0.00  0.00    +0.004 A 
ATOM      7  C   UNL     1      -2.917   3.778   2.074  0.00  0.00    +0.047 A 
ATOM      8  C   UNL     1      -2.498   3.134   0.917  0.00  0.00    +0.141 A 
ATOM      9  O   UNL     1      -3.257   3.166  -0.200  0.00  0.00    -0.421 OA
ATOM     10  C   UNL     1      -2.876   2.558  -1.335  0.00  0.00    +0.362 A 
ATOM     11  O   UNL     1      -3.599   2.625  -2.314  0.00  0.00    -0.243 OA
ENDROOT
BRANCH   1  12
ATOM     12  N   UNL     1      -1.304   1.212  -2.626  0.00  0.00    -0.208 N 
ATOM     13  H   UNL     1      -0.435   0.789  -2.708  0.00  0.00    +0.174 HD
BRANCH  12  14
ATOM     14  S   UNL     1      -2.358   1.192  -3.903  0.00  0.00    +0.073 S 
ATOM     15  O   UNL     1      -1.777   0.358  -4.896  0.00  0.00    -0.150 OA
ATOM     16  O   UNL     1      -2.715   2.544  -4.156  0.00  0.00    -0.150 OA
BRANCH  14  19
ATOM     17  C   UNL     1      -2.446  -1.664  -2.909  0.00  0.00    +0.047 C 
ATOM     18  C   UNL     1      -3.763  -0.931  -2.919  0.00  0.00    -0.006 A 
ATOM     19  C   UNL     1      -3.822   0.379  -3.356  0.00  0.00    +0.113 A 
ATOM     20  C   UNL     1      -5.030   1.051  -3.365  0.00  0.00    +0.029 A 
ATOM     21  C   UNL     1      -6.180   0.413  -2.936  0.00  0.00    +0.003 A 
ATOM     22  C   UNL     1      -6.122  -0.896  -2.499  0.00  0.00    +0.020 A 
ATOM     23  C   UNL     1      -4.914  -1.571  -2.495  0.00  0.00    +0.046 A 
ATOM     24 CL   UNL     1      -4.842  -3.218  -1.951  0.00  0.00    -0.083 Cl
ENDBRANCH  14  19
ENDBRANCH  12  14
ENDBRANCH   1  12
BRANCH   2  25
ATOM     25  N   UNL     1       0.356   1.076  -0.367  0.00  0.00    -0.339 N 
ATOM     26  H   UNL     1       0.365   0.137  -0.611  0.00  0.00    +0.146 HD
BRANCH  25  27
ATOM     27  C   UNL     1       1.612   1.762  -0.053  0.00  0.00    +0.070 C 
ATOM     28  C   UNL     1       2.153   2.477  -1.309  0.00  0.00    +0.022 C 
ATOM     29  C   UNL     1       3.689   2.302  -1.214  0.00  0.00    +0.002 C 
ATOM     30  C   UNL     1       3.835   0.866  -0.652  0.00  0.00    +0.002 C 
ATOM     31  C   UNL     1       2.682   0.738   0.365  0.00  0.00    +0.022 C 
ENDBRANCH  25  27
ENDBRANCH   2  25
TORSDOF 5
