REMARK  Name = ZINC44807107
REMARK  8 active torsions:
REMARK  status: ('A' for Active; 'I' for Inactive)
REMARK    1  A    between atoms: C_1  and  C_2
REMARK    2  A    between atoms: C_2  and  C_3
REMARK    3  A    between atoms: C_2  and  C_4
REMARK    4  A    between atoms: C_4  and  C_6
REMARK    5  A    between atoms: C_4  and  C_8
REMARK    6  A    between atoms: C_6  and  N_7
REMARK    7  A    between atoms: C_15  and  C_17
REMARK    8  A    between atoms: N_19  and  C_20
REMARK                            x       y       z     vdW  Elec       q    Type
REMARK                         _______ _______ _______ _____ _____    ______ ____
ROOT
ATOM      1  C   UNL     1      -2.569   0.235  -0.786  0.00  0.00    +0.218 C 
ATOM      2  O   UNL     1      -3.211  -0.506  -1.499  0.00  0.00    -0.275 OA
ATOM      3  N   UNL     1      -2.351   1.511  -1.162  0.00  0.00    -0.290 N 
ATOM      4  C   UNL     1      -1.491   2.391  -0.360  0.00  0.00    +0.108 C 
ATOM      5  C   UNL     1      -0.410   2.987  -1.268  0.00  0.00    +0.019 C 
ATOM      6  C   UNL     1      -1.076   3.675  -2.462  0.00  0.00    +0.004 C 
ATOM      7  C   UNL     1      -1.872   2.646  -3.268  0.00  0.00    +0.032 C 
ATOM      8  C   UNL     1      -2.964   2.045  -2.386  0.00  0.00    +0.162 C 
ENDROOT
BRANCH   8   9
ATOM      9  C   UNL     1      -3.658   0.934  -3.130  0.00  0.00    +0.233 C 
ATOM     10  O   UNL     1      -3.009   0.030  -3.613  0.00  0.00    -0.274 OA
ATOM     11  N   UNL     1      -4.999   0.945  -3.260  0.00  0.00    -0.317 N 
ATOM     12  C   UNL     1      -5.674  -0.136  -3.984  0.00  0.00    +0.128 C 
ATOM     13  H   UNL     1      -5.518   1.668  -2.875  0.00  0.00    +0.148 HD
ENDBRANCH   8   9
BRANCH   1  14
ATOM     14  C   UNL     1      -2.014  -0.270   0.521  0.00  0.00    +0.060 C 
BRANCH  14  16
ATOM     15  C   UNL     1      -0.941  -2.152  -0.724  0.00  0.00    +0.008 C 
ATOM     16  C   UNL     1      -0.700  -1.010   0.266  0.00  0.00    -0.007 C 
ATOM     17  C   UNL     1       0.328  -0.038  -0.318  0.00  0.00    +0.008 C 
ENDBRANCH  14  16
BRANCH  14  18
ATOM     18  C   UNL     1      -3.020  -1.226   1.167  0.00  0.00    -0.073 C 
BRANCH  18  19
ATOM     19  N   UNL     1      -2.542  -1.613   2.500  0.00  0.00    +0.379 N 
ATOM     20  H   UNL     1      -1.623  -2.024   2.422  0.00  0.00    -0.090 HD
ATOM     21  H   UNL     1      -2.495  -0.796   3.091  0.00  0.00    -0.090 HD
ATOM     22  H   UNL     1      -3.177  -2.285   2.904  0.00  0.00    -0.090 HD
ENDBRANCH  18  19
ENDBRANCH  14  18
ENDBRANCH   1  14
TORSDOF 5
