REMARK  Name = ZINC39609046
REMARK  7 active torsions:
REMARK  status: ('A' for Active; 'I' for Inactive)
REMARK    1  A    between atoms: C_1  and  C_2
REMARK    2  A    between atoms: C_10  and  C_11
REMARK    3  A    between atoms: C_11  and  O_13
REMARK    4  A    between atoms: O_13  and  C_14
REMARK    5  A    between atoms: C_14  and  C_15
REMARK    6  A    between atoms: C_17  and  O_18
REMARK    7  A    between atoms: C_27  and  C_29
REMARK                            x       y       z     vdW  Elec       q    Type
REMARK                         _______ _______ _______ _____ _____    ______ ____
ROOT
ATOM      1  C   UNL     1       0.212  -1.978   5.854  0.00  0.00    +0.007 A 
ATOM      2  C   UNL     1      -0.050  -1.731   7.187  0.00  0.00    +0.095 A 
ATOM      3  C   UNL     1      -0.416  -2.774   8.024  0.00  0.00    +0.285 A 
ATOM      4  O   UNL     1      -0.524  -4.027   7.570  0.00  0.00    -0.425 OA
ATOM      5  C   UNL     1      -0.280  -4.324   6.277  0.00  0.00    +0.141 A 
ATOM      6  C   UNL     1       0.092  -3.300   5.377  0.00  0.00    +0.024 A 
ATOM      7  C   UNL     1       0.342  -3.604   4.027  0.00  0.00    +0.014 A 
ATOM      8  C   UNL     1       0.222  -4.884   3.587  0.00  0.00    +0.024 A 
ATOM      9  C   UNL     1      -0.153  -5.909   4.474  0.00  0.00    +0.037 A 
ATOM     10  C   UNL     1      -0.394  -5.624   5.819  0.00  0.00    +0.070 A 
ATOM     11  N   UNL     1      -0.271  -7.187   4.020  0.00  0.00    -0.286 N 
ATOM     12  C   UNL     1      -0.912  -8.086   4.742  0.00  0.00    +0.214 C 
ATOM     13  O   UNL     1      -1.502  -7.748   5.752  0.00  0.00    -0.276 OA
ATOM     14  C   UNL     1      -0.913  -9.532   4.316  0.00  0.00    +0.109 C 
ATOM     15  H   UNL     1       0.116  -7.436   3.167  0.00  0.00    +0.155 HD
ENDROOT
BRANCH   3  16
ATOM     16  O   UNL     1      -0.669  -2.520   9.323  0.00  0.00    -0.480 OA
ATOM     17  H   UNL     1      -0.917  -3.301   9.835  0.00  0.00    +0.295 HD
ENDBRANCH   3  16
BRANCH   1  18
ATOM     18  C   UNL     1       0.612  -0.858   4.927  0.00  0.00    +0.269 C 
BRANCH  18  19
ATOM     19  O   UNL     1       1.754  -0.184   5.459  0.00  0.00    -0.454 OA
BRANCH  19  20
ATOM     20  C   UNL     1       2.242   0.851   4.745  0.00  0.00    +0.375 C 
ATOM     21  O   UNL     1       1.711   1.172   3.700  0.00  0.00    -0.241 OA
BRANCH  20  31
ATOM     22  C   UNL     1       3.558   3.267   3.296  0.00  0.00    +0.048 C 
ATOM     23  C   UNL     1       3.990   2.646   4.598  0.00  0.00    +0.010 A 
ATOM     24  C   UNL     1       5.111   3.060   5.441  0.00  0.00    +0.025 A 
ATOM     25  C   UNL     1       6.076   4.067   5.353  0.00  0.00    +0.012 A 
ATOM     26  C   UNL     1       7.015   4.194   6.336  0.00  0.00    +0.002 A 
ATOM     27  C   UNL     1       7.018   3.329   7.422  0.00  0.00    +0.024 A 
ATOM     28  C   UNL     1       6.075   2.329   7.529  0.00  0.00    +0.084 A 
ATOM     29  C   UNL     1       5.108   2.181   6.540  0.00  0.00    +0.154 A 
ATOM     30  O   UNL     1       4.084   1.322   6.372  0.00  0.00    -0.446 OA
ATOM     31  C   UNL     1       3.414   1.590   5.231  0.00  0.00    +0.216 A 
ATOM     32 CL   UNL     1       6.094   1.256   8.894  0.00  0.00    -0.080 Cl
ENDBRANCH  20  31
ENDBRANCH  19  20
ENDBRANCH  18  19
ENDBRANCH   1  18
TORSDOF 5
