REMARK  Name = ZINC13135401
REMARK  10 active torsions:
REMARK  status: ('A' for Active; 'I' for Inactive)
REMARK    1  A    between atoms: C_1  and  C_2
REMARK    2  A    between atoms: C_2  and  O_3
REMARK    3  A    between atoms: O_3  and  C_4
REMARK    4  A    between atoms: C_4  and  C_6
REMARK    5  A    between atoms: C_7  and  C_19
REMARK    6  A    between atoms: C_12  and  C_14
REMARK    7  A    between atoms: C_19  and  O_20
REMARK    8  A    between atoms: O_20  and  C_21
REMARK    9  A    between atoms: C_21  and  C_23
REMARK   10  A    between atoms: C_30  and  C_33
REMARK                            x       y       z     vdW  Elec       q    Type
REMARK                         _______ _______ _______ _____ _____    ______ ____
ROOT
ATOM      1  C   UNL     1      -1.307   2.940  -0.087  0.00  0.00    +0.082 C 
ATOM      2  C   UNL     1      -1.220   1.593  -0.063  0.00  0.00    +0.061 C 
ATOM      3  N   UNL     1      -0.012   0.966   0.045  0.00  0.00    -0.269 N 
ATOM      4  C   UNL     1       1.157   1.615   0.124  0.00  0.00    +0.304 C 
ATOM      5  O   UNL     1       2.183   0.969   0.213  0.00  0.00    -0.252 OA
ATOM      6  N   UNL     1       1.232   2.961   0.108  0.00  0.00    -0.288 N 
ATOM      7  C   UNL     1      -0.017   3.732  -0.001  0.00  0.00    +0.150 C 
ATOM      8  H   UNL     1       0.001  -0.004   0.062  0.00  0.00    +0.156 HD
ATOM      9  H   UNL     1       2.090   3.410   0.166  0.00  0.00    +0.151 HD
ENDROOT
BRANCH   7  10
ATOM     10  C   UNL     1      -0.109   4.640   1.198  0.00  0.00    +0.015 A 
ATOM     11  C   UNL     1      -0.531   5.926   1.265  0.00  0.00    +0.013 A 
ATOM     12  C   UNL     1      -0.532   6.569   2.489  0.00  0.00    +0.008 A 
ATOM     13  C   UNL     1      -0.101   5.897   3.584  0.00  0.00    +0.045 A 
ATOM     14  S   UNL     1       0.319   4.303   2.899  0.00  0.00    -0.099 S 
ENDBRANCH   7  10
BRANCH   1  15
ATOM     15  C   UNL     1      -2.558   3.591  -0.194  0.00  0.00    +0.339 C 
ATOM     16  O   UNL     1      -2.922   4.038  -1.266  0.00  0.00    -0.245 OA
BRANCH  15  17
ATOM     17  O   UNL     1      -3.349   3.716   0.893  0.00  0.00    -0.462 OA
BRANCH  17  19
ATOM     18  C   UNL     1      -5.350   4.430   2.044  0.00  0.00    +0.048 C 
ATOM     19  C   UNL     1      -4.599   4.385   0.712  0.00  0.00    +0.229 C 
ENDBRANCH  17  19
ENDBRANCH  15  17
ENDBRANCH   1  15
BRANCH   2  20
ATOM     20  C   UNL     1      -2.478   0.768  -0.150  0.00  0.00    +0.283 C 
BRANCH  20  21
ATOM     21  O   UNL     1      -2.474   0.009  -1.389  0.00  0.00    -0.455 OA
BRANCH  21  22
ATOM     22  C   UNL     1      -3.538  -0.786  -1.623  0.00  0.00    +0.346 C 
ATOM     23  O   UNL     1      -4.444  -0.845  -0.814  0.00  0.00    -0.244 OA
BRANCH  22  24
ATOM     24  C   UNL     1      -3.602  -1.580  -2.852  0.00  0.00    +0.097 A 
ATOM     25  C   UNL     1      -4.590  -2.449  -3.279  0.00  0.00    +0.026 A 
ATOM     26  C   UNL     1      -4.417  -3.089  -4.495  0.00  0.00    -0.036 A 
ATOM     27  C   UNL     1      -3.269  -2.807  -5.181  0.00  0.00    -0.006 A 
ATOM     28  S   UNL     1      -2.428  -1.674  -4.193  0.00  0.00    -0.086 S 
ATOM     29  C   UNL     1      -2.849  -3.365  -6.505  0.00  0.00    +0.043 C 
ATOM     30  C   UNL     1      -3.723  -4.590  -6.814  0.00  0.00    +0.009 C 
ATOM     31  C   UNL     1      -5.189  -4.223  -6.566  0.00  0.00    -0.009 C 
ATOM     32  C   UNL     1      -5.441  -4.066  -5.066  0.00  0.00    +0.039 C 
ATOM     33  C   UNL     1      -6.090  -5.328  -7.120  0.00  0.00    +0.008 C 
ENDBRANCH  22  24
ENDBRANCH  21  22
ENDBRANCH  20  21
ENDBRANCH   2  20
TORSDOF 8
