REMARK  Name = ZINC39899266
REMARK  8 active torsions:
REMARK  status: ('A' for Active; 'I' for Inactive)
REMARK    1  A    between atoms: C_1  and  C_2
REMARK    2  A    between atoms: C_2  and  C_3
REMARK    3  A    between atoms: C_2  and  C_4
REMARK    4  A    between atoms: C_7  and  C_10
REMARK    5  A    between atoms: C_13  and  C_28
REMARK    6  A    between atoms: N_20  and  C_21
REMARK    7  A    between atoms: C_21  and  C_22
REMARK    8  A    between atoms: C_33  and  O_34
REMARK                            x       y       z     vdW  Elec       q    Type
REMARK                         _______ _______ _______ _____ _____    ______ ____
ROOT
ATOM      1  C   UNL     1       2.329  -1.778   4.526  0.00  0.00    +0.142 C 
ATOM      2  C   UNL     1       2.308  -0.967   5.793  0.00  0.00    +0.035 A 
ATOM      3  C   UNL     1       2.586   0.254   6.416  0.00  0.00    +0.102 A 
ATOM      4  N   UNL     1       2.240   0.139   7.683  0.00  0.00    -0.173 NA
ATOM      5  N   UNL     1       1.772  -1.034   7.921  0.00  0.00    -0.272 N 
ATOM      6  H   UNL     1       1.456  -1.343   8.785  0.00  0.00    +0.189 HD
ATOM      7  C   UNL     1       1.785  -1.782   6.778  0.00  0.00    +0.126 A 
ATOM      8  C   UNL     1       1.471  -3.087   6.186  0.00  0.00    +0.266 C 
ATOM      9  O   UNL     1       0.996  -4.028   6.793  0.00  0.00    -0.268 OA
ATOM     10  N   UNL     1       1.784  -3.096   4.877  0.00  0.00    -0.281 N 
ENDROOT
BRANCH   3  11
ATOM     11  C   UNL     1       3.164   1.459   5.769  0.00  0.00    +0.045 A 
ATOM     12  C   UNL     1       3.599   1.402   4.447  0.00  0.00    +0.033 A 
ATOM     13  C   UNL     1       4.137   2.526   3.850  0.00  0.00    +0.042 A 
ATOM     14  C   UNL     1       4.245   3.709   4.562  0.00  0.00    +0.023 A 
ATOM     15  C   UNL     1       3.817   3.774   5.875  0.00  0.00    +0.047 A 
ATOM     16  C   UNL     1       3.270   2.656   6.483  0.00  0.00    +0.126 A 
ATOM     17 CL   UNL     1       4.679   2.455   2.203  0.00  0.00    -0.084 Cl
BRANCH  16  18
ATOM     18  O   UNL     1       2.843   2.721   7.771  0.00  0.00    -0.506 OA
ATOM     19  H   UNL     1       3.524   2.503   8.423  0.00  0.00    +0.292 HD
ENDBRANCH  16  18
ENDBRANCH   3  11
BRANCH   1  23
ATOM     20  C   UNL     1      -0.109   0.079   1.552  0.00  0.00    -0.045 A 
ATOM     21  C   UNL     1      -0.693  -0.485   2.671  0.00  0.00    +0.004 A 
ATOM     22  C   UNL     1       0.096  -1.086   3.633  0.00  0.00    +0.006 A 
ATOM     23  C   UNL     1       1.469  -1.124   3.477  0.00  0.00    -0.022 A 
ATOM     24  C   UNL     1       2.053  -0.561   2.357  0.00  0.00    +0.006 A 
ATOM     25  C   UNL     1       1.263   0.037   1.392  0.00  0.00    +0.004 A 
BRANCH  20  27
ATOM     26  C   UNL     1      -1.953  -0.291  -0.065  0.00  0.00    +0.012 C 
ATOM     27  C   UNL     1      -0.970   0.735   0.502  0.00  0.00    +0.013 C 
ATOM     28  C   UNL     1      -1.747   1.893   1.131  0.00  0.00    +0.012 C 
ENDBRANCH  20  27
ENDBRANCH   1  23
BRANCH  10  29
ATOM     29  C   UNL     1       1.611  -4.225   3.959  0.00  0.00    +0.145 C 
BRANCH  29  30
ATOM     30  C   UNL     1       2.859  -5.069   3.959  0.00  0.00    -0.012 A 
ATOM     31  C   UNL     1       3.889  -4.801   3.069  0.00  0.00    +0.008 A 
ATOM     32  C   UNL     1       5.018  -5.604   3.105  0.00  0.00    +0.020 A 
ATOM     33  C   UNL     1       5.081  -6.638   4.021  0.00  0.00    +0.111 A 
ATOM     34  N   UNL     1       4.082  -6.864   4.852  0.00  0.00    -0.263 NA
ATOM     35  C   UNL     1       2.995  -6.117   4.850  0.00  0.00    +0.115 A 
ENDBRANCH  29  30
ENDBRANCH  10  29
TORSDOF 6
