REMARK  Name = ZINC09357620
REMARK  4 active torsions:
REMARK  status: ('A' for Active; 'I' for Inactive)
REMARK    1  A    between atoms: C_1  and  C_2
REMARK    2  A    between atoms: C_22  and  C_29
REMARK    3  A    between atoms: C_29  and  C_31
REMARK    4  A    between atoms: C_35  and  N_37
REMARK                            x       y       z     vdW  Elec       q    Type
REMARK                         _______ _______ _______ _____ _____    ______ ____
ROOT
ATOM      1  C   UNL     1       5.256  -1.490  -0.695  0.00  0.00    +0.044 C 
ATOM      2  C   UNL     1       3.801  -1.132  -0.528  0.00  0.00    -0.050 A 
ATOM      3  C   UNL     1       2.841  -2.127  -0.515  0.00  0.00    +0.005 A 
ATOM      4  C   UNL     1       1.510  -1.798  -0.371  0.00  0.00    +0.024 A 
ATOM      5  C   UNL     1       1.127  -0.465  -0.244  0.00  0.00    +0.036 A 
ATOM      6  C   UNL     1       2.100   0.535  -0.238  0.00  0.00    -0.026 A 
ATOM      7  C   UNL     1       3.425   0.192  -0.389  0.00  0.00    +0.008 A 
ATOM      8  C   UNL     1       1.361   1.828  -0.045  0.00  0.00    +0.060 C 
ATOM      9  C   UNL     1      -0.103   1.436  -0.094  0.00  0.00    +0.212 C 
ATOM     10  O   UNL     1      -1.050   2.191  -0.137  0.00  0.00    -0.277 OA
ATOM     11  N   UNL     1      -0.145   0.096  -0.117  0.00  0.00    -0.286 N 
ATOM     12  C   UNL     1       1.677   2.499   1.289  0.00  0.00    +0.085 C 
ATOM     13  C   UNL     1       2.724   1.767   2.083  0.00  0.00    -0.011 A 
ATOM     14  C   UNL     1       4.071   1.540   1.905  0.00  0.00    +0.006 A 
ATOM     15  C   UNL     1       4.779   0.789   2.827  0.00  0.00    +0.000 A 
ATOM     16  C   UNL     1       4.139   0.283   3.943  0.00  0.00    +0.002 A 
ATOM     17  C   UNL     1       2.800   0.548   4.152  0.00  0.00    +0.023 A 
ATOM     18  C   UNL     1       2.083   1.308   3.230  0.00  0.00    +0.038 A 
ATOM     19  N   UNL     1       0.754   1.734   3.244  0.00  0.00    -0.285 N 
ATOM     20  C   UNL     1       0.465   2.514   2.182  0.00  0.00    +0.228 C 
ATOM     21  O   UNL     1      -0.587   3.094   2.006  0.00  0.00    -0.275 OA
ATOM     22  C   UNL     1       2.158   3.914   0.941  0.00  0.00    +0.066 C 
ATOM     23  C   UNL     1       1.587   4.155  -0.473  0.00  0.00    -0.055 C 
ATOM     24  C   UNL     1       2.995   2.689  -1.659  0.00  0.00    -0.076 C 
ATOM     25  C   UNL     1       3.198   4.080  -2.320  0.00  0.00    -0.020 C 
ATOM     26  C   UNL     1       2.573   5.031  -1.270  0.00  0.00    -0.016 C 
ATOM     27  H   UNL     1      -0.961  -0.424  -0.052  0.00  0.00    +0.155 HD
ATOM     28  H   UNL     1       0.114   1.500   3.934  0.00  0.00    +0.155 HD
ATOM     29  N   UNL     1       1.639   2.848  -1.091  0.00  0.00    +0.395 N 
ATOM     30  H   UNL     1       0.939   2.775  -1.839  0.00  0.00    -0.079 HD
ENDROOT
BRANCH  22  31
ATOM     31  C   UNL     1       1.648   4.935   1.917  0.00  0.00    +0.166 C 
ATOM     32  O   UNL     1       0.607   5.517   1.697  0.00  0.00    -0.292 OA
BRANCH  31  33
ATOM     33  C   UNL     1       2.411   5.229   3.140  0.00  0.00    +0.020 A 
ATOM     34  C   UNL     1       3.669   4.651   3.341  0.00  0.00    +0.011 A 
ATOM     35  C   UNL     1       4.378   4.932   4.489  0.00  0.00    +0.003 A 
ATOM     36  C   UNL     1       3.848   5.784   5.443  0.00  0.00    +0.033 A 
ATOM     37  C   UNL     1       2.604   6.359   5.253  0.00  0.00    +0.127 A 
ATOM     38  C   UNL     1       1.885   6.093   4.106  0.00  0.00    +0.044 A 
BRANCH  37  39
ATOM     39  N   UNL     1       2.046   7.268   6.279  0.00  0.00    +0.056 N 
ATOM     40  O   UNL     1       2.682   7.508   7.290  0.00  0.00    -0.126 OA
ATOM     41  O   UNL     1       0.951   7.775   6.113  0.00  0.00    -0.126 OA
ENDBRANCH  37  39
ENDBRANCH  31  33
ENDBRANCH  22  31
TORSDOF 3
