REMARK  Name = ZINC36053161
REMARK  11 active torsions:
REMARK  status: ('A' for Active; 'I' for Inactive)
REMARK    1  A    between atoms: C_1  and  C_2
REMARK    2  A    between atoms: C_6  and  C_8
REMARK    3  A    between atoms: C_10  and  C_31
REMARK    4  A    between atoms: C_11  and  C_30
REMARK    5  A    between atoms: C_15  and  C_18
REMARK    6  A    between atoms: C_19  and  N_21
REMARK    7  A    between atoms: N_21  and  C_22
REMARK    8  A    between atoms: C_22  and  C_23
REMARK    9  A    between atoms: C_31  and  O_33
REMARK   10  A    between atoms: O_33  and  C_34
REMARK   11  A    between atoms: C_34  and  C_35
REMARK                            x       y       z     vdW  Elec       q    Type
REMARK                         _______ _______ _______ _____ _____    ______ ____
ROOT
ATOM      1  C   UNL     1      -0.246  -2.588   2.393  0.00  0.00    +0.150 C 
ATOM      2  C   UNL     1       1.227  -2.800   2.663  0.00  0.00    +0.082 C 
ATOM      3  C   UNL     1       1.686  -4.101   2.750  0.00  0.00    +0.053 C 
ATOM      4  N   UNL     1       0.852  -5.117   2.599  0.00  0.00    -0.230 NA
ATOM      5  C   UNL     1      -0.438  -5.002   2.362  0.00  0.00    +0.166 C 
ATOM      6  N   UNL     1      -1.087  -3.805   2.240  0.00  0.00    -0.267 N 
ATOM      7  C   UNL     1      -2.444  -3.852   1.990  0.00  0.00    +0.048 C 
ATOM      8  C   UNL     1      -3.021  -5.069   1.885  0.00  0.00    +0.072 C 
ATOM      9  S   UNL     1      -1.636  -6.157   2.143  0.00  0.00    -0.060 S 
ATOM     10  C   UNL     1       3.145  -4.363   3.018  0.00  0.00    +0.066 C 
ENDROOT
BRANCH   1  16
ATOM     11  C   UNL     1      -1.019   1.807   0.129  0.00  0.00    +0.044 C 
ATOM     12  C   UNL     1      -0.744   0.328   0.047  0.00  0.00    -0.050 A 
ATOM     13  C   UNL     1      -0.609  -0.283  -1.185  0.00  0.00    +0.003 A 
ATOM     14  C   UNL     1      -0.357  -1.640  -1.260  0.00  0.00    +0.001 A 
ATOM     15  C   UNL     1      -0.239  -2.386  -0.102  0.00  0.00    +0.006 A 
ATOM     16  C   UNL     1      -0.373  -1.775   1.130  0.00  0.00    -0.022 A 
ATOM     17  C   UNL     1      -0.621  -0.417   1.205  0.00  0.00    +0.009 A 
ENDBRANCH   1  16
BRANCH   7  18
ATOM     18  C   UNL     1      -3.233  -2.620   1.843  0.00  0.00    +0.091 C 
ATOM     19  C   UNL     1      -4.575  -2.688   1.742  0.00  0.00    +0.239 C 
ATOM     20  O   UNL     1      -5.208  -3.874   1.914  0.00  0.00    -0.271 OA
BRANCH  19  21
ATOM     21  N   UNL     1      -5.307  -1.546   1.463  0.00  0.00    -0.308 N 
ATOM     22  H   UNL     1      -4.850  -0.713   1.267  0.00  0.00    +0.149 HD
BRANCH  21  23
ATOM     23  C   UNL     1      -6.771  -1.597   1.464  0.00  0.00    +0.139 C 
BRANCH  23  24
ATOM     24  C   UNL     1      -7.319  -0.267   1.015  0.00  0.00    -0.030 A 
ATOM     25  C   UNL     1      -7.578   0.723   1.945  0.00  0.00    +0.008 A 
ATOM     26  C   UNL     1      -8.080   1.943   1.535  0.00  0.00    +0.038 A 
ATOM     27  C   UNL     1      -8.325   2.175   0.192  0.00  0.00    +0.123 A 
ATOM     28  C   UNL     1      -8.065   1.183  -0.739  0.00  0.00    +0.038 A 
ATOM     29  C   UNL     1      -7.558  -0.035  -0.327  0.00  0.00    +0.008 A 
ATOM     30  F   UNL     1      -8.816   3.367  -0.210  0.00  0.00    -0.205 F 
ENDBRANCH  23  24
ENDBRANCH  21  23
ENDBRANCH  19  21
ENDBRANCH   7  18
BRANCH   2  31
ATOM     31  C   UNL     1       2.097  -1.714   2.821  0.00  0.00    +0.339 C 
ATOM     32  O   UNL     1       3.294  -1.906   2.946  0.00  0.00    -0.245 OA
BRANCH  31  33
ATOM     33  O   UNL     1       1.609  -0.454   2.833  0.00  0.00    -0.457 OA
BRANCH  33  34
ATOM     34  C   UNL     1       2.554   0.606   2.997  0.00  0.00    +0.259 C 
BRANCH  34  35
ATOM     35  C   UNL     1       1.832   1.929   2.986  0.00  0.00    +0.006 C 
ATOM     36  C   UNL     1       2.126   2.843   3.876  0.00  0.00    +0.007 C 
ENDBRANCH  34  35
ENDBRANCH  33  34
ENDBRANCH  31  33
ENDBRANCH   2  31
TORSDOF 9
