REMARK  Name = ZINC56197330
REMARK  12 active torsions:
REMARK  status: ('A' for Active; 'I' for Inactive)
REMARK    1  A    between atoms: C_1  and  C_2
REMARK    2  A    between atoms: C_2  and  C_3
REMARK    3  A    between atoms: C_3  and  C_5
REMARK    4  A    between atoms: C_3  and  C_6
REMARK    5  A    between atoms: C_11  and  N_12
REMARK    6  A    between atoms: C_13  and  C_15
REMARK    7  A    between atoms: C_15  and  C_17
REMARK    8  A    between atoms: C_15  and  N_18
REMARK    9  A    between atoms: N_18  and  C_19
REMARK   10  A    between atoms: C_19  and  C_21
REMARK   11  A    between atoms: C_19  and  C_22
REMARK   12  A    between atoms: C_26  and  N_28
REMARK                            x       y       z     vdW  Elec       q    Type
REMARK                         _______ _______ _______ _____ _____    ______ ____
ROOT
ATOM      1  C   UNL     1       5.656  -1.331   0.928  0.00  0.00    +0.138 C 
ATOM      2  C   UNL     1       5.739  -0.714   2.325  0.00  0.00    +0.034 C 
ENDROOT
BRANCH   1   4
ATOM      3  N   UNL     1       3.212  -1.694   1.041  0.00  0.00    -0.284 N 
ATOM      4  C   UNL     1       4.438  -2.216   0.841  0.00  0.00    +0.234 C 
ATOM      5  O   UNL     1       4.563  -3.396   0.592  0.00  0.00    -0.274 OA
ATOM      6  H   UNL     1       3.107  -0.741   1.184  0.00  0.00    +0.155 HD
BRANCH   3  12
ATOM      7  C   UNL     1       0.949  -2.161   1.744  0.00  0.00    -0.023 A 
ATOM      8  C   UNL     1      -0.160  -2.985   1.738  0.00  0.00    +0.006 A 
ATOM      9  C   UNL     1      -0.134  -4.177   1.037  0.00  0.00    +0.000 A 
ATOM     10  C   UNL     1       1.001  -4.548   0.341  0.00  0.00    +0.002 A 
ATOM     11  C   UNL     1       2.113  -3.729   0.343  0.00  0.00    +0.023 A 
ATOM     12  C   UNL     1       2.088  -2.529   1.041  0.00  0.00    +0.037 A 
BRANCH   7  13
ATOM     13  C   UNL     1       0.919  -0.862   2.507  0.00  0.00    +0.017 C 
ATOM     14  C   UNL     1       0.546  -1.136   3.965  0.00  0.00    +0.012 C 
BRANCH  13  16
ATOM     15  C   UNL     1      -0.060   1.435   2.577  0.00  0.00    +0.004 C 
ATOM     16  C   UNL     1      -0.117   0.073   1.882  0.00  0.00    +0.004 C 
ENDBRANCH  13  16
ENDBRANCH   7  13
ENDBRANCH   3  12
ENDBRANCH   1   4
BRANCH   1  17
ATOM     17  N   UNL     1       6.861  -2.132   0.673  0.00  0.00    -0.299 NA
ATOM     18  H   UNL     1       7.641  -1.794   1.217  0.00  0.00    +0.123 HD
BRANCH  17  19
ATOM     19  C   UNL     1       7.187  -2.151  -0.759  0.00  0.00    +0.081 C 
ATOM     20  C   UNL     1       8.112  -0.977  -1.088  0.00  0.00    +0.029 C 
BRANCH  19  21
ATOM     21  C   UNL     1       7.879  -3.446  -1.100  0.00  0.00    -0.029 A 
ATOM     22  C   UNL     1       8.806  -3.985  -0.227  0.00  0.00    +0.005 A 
ATOM     23  C   UNL     1       9.440  -5.172  -0.539  0.00  0.00    +0.003 A 
ATOM     24  C   UNL     1       9.147  -5.822  -1.724  0.00  0.00    +0.033 A 
ATOM     25  C   UNL     1       8.219  -5.284  -2.596  0.00  0.00    +0.127 A 
ATOM     26  C   UNL     1       7.582  -4.098  -2.281  0.00  0.00    +0.038 A 
BRANCH  25  27
ATOM     27  N   UNL     1       7.905  -5.980  -3.864  0.00  0.00    +0.056 N 
ATOM     28  O   UNL     1       8.461  -7.018  -4.137  0.00  0.00    -0.126 OA
ATOM     29  O   UNL     1       7.094  -5.509  -4.627  0.00  0.00    -0.126 OA
ENDBRANCH  25  27
ENDBRANCH  19  21
ENDBRANCH  17  19
ENDBRANCH   1  17
TORSDOF 8
