REMARK  Name = ZINC31046835
REMARK  10 active torsions:
REMARK  status: ('A' for Active; 'I' for Inactive)
REMARK    1  A    between atoms: C_1  and  C_2
REMARK    2  A    between atoms: C_5  and  S_8
REMARK    3  A    between atoms: S_8  and  C_9
REMARK    4  A    between atoms: C_9  and  C_10
REMARK    5  A    between atoms: C_10  and  C_11
REMARK    6  A    between atoms: C_11  and  N_12
REMARK    7  A    between atoms: C_13  and  C_15
REMARK    8  A    between atoms: N_20  and  C_22
REMARK    9  A    between atoms: C_22  and  C_23
REMARK   10  A    between atoms: C_25  and  C_28
REMARK                            x       y       z     vdW  Elec       q    Type
REMARK                         _______ _______ _______ _____ _____    ______ ____
ROOT
ATOM      1  C   UNL     1      -3.112  -2.443  -2.852  0.00  0.00    +0.058 C 
ATOM      2  C   UNL     1      -1.931  -2.797  -3.760  0.00  0.00    +0.009 C 
ATOM      3  C   UNL     1      -0.873  -1.695  -3.661  0.00  0.00    -0.018 C 
ATOM      4  C   UNL     1      -0.437  -1.543  -2.202  0.00  0.00    -0.078 C 
ATOM      5  N   UNL     1      -1.601  -1.204  -1.374  0.00  0.00    +0.386 N 
ATOM      6  C   UNL     1      -2.611  -2.270  -1.416  0.00  0.00    -0.065 C 
ATOM      7  H   UNL     1      -2.056  -0.294  -1.792  0.00  0.00    -0.081 HD
ENDROOT
BRANCH   1   9
ATOM      8  N   UNL     1      -4.715  -3.882  -4.068  0.00  0.00    -0.315 N 
ATOM      9  C   UNL     1      -4.133  -3.550  -2.898  0.00  0.00    +0.214 C 
ATOM     10  O   UNL     1      -4.430  -4.144  -1.883  0.00  0.00    -0.276 OA
ATOM     11  H   UNL     1      -4.445  -3.344  -4.989  0.00  0.00    +0.149 HD
BRANCH   8  12
ATOM     12  C   UNL     1      -5.707  -4.959  -4.113  0.00  0.00    +0.105 C 
BRANCH  12  13
ATOM     13  C   UNL     1      -6.207  -5.131  -5.549  0.00  0.00    +0.030 C 
BRANCH  13  14
ATOM     14  C   UNL     1      -7.243  -6.256  -5.596  0.00  0.00    +0.076 C 
BRANCH  14  15
ATOM     15  S   UNL     1      -7.837  -6.461  -7.298  0.00  0.00    -0.125 S 
BRANCH  15  20
ATOM     16  C   UNL     1     -11.843 -10.960  -6.917  0.00  0.00    +0.044 C 
ATOM     17  C   UNL     1     -10.843  -9.836  -7.012  0.00  0.00    -0.050 A 
ATOM     18  C   UNL     1     -10.591  -9.238  -8.234  0.00  0.00    +0.004 A 
ATOM     19  C   UNL     1      -9.675  -8.209  -8.325  0.00  0.00    +0.015 A 
ATOM     20  C   UNL     1      -9.006  -7.774  -7.187  0.00  0.00    +0.008 A 
ATOM     21  C   UNL     1      -9.258  -8.380  -5.962  0.00  0.00    +0.015 A 
ATOM     22  C   UNL     1     -10.179  -9.406  -5.878  0.00  0.00    +0.004 A 
ENDBRANCH  15  20
ENDBRANCH  14  15
ENDBRANCH  13  14
ENDBRANCH  12  13
ENDBRANCH   8  12
ENDBRANCH   1   9
BRANCH   5  23
ATOM     23  C   UNL     1      -1.198  -0.915   0.009  0.00  0.00    +0.022 C 
BRANCH  23  24
ATOM     24  C   UNL     1       0.002  -0.004   0.002  0.00  0.00    +0.211 A 
ATOM     25  N   UNL     1      -0.016   1.306   0.009  0.00  0.00    -0.193 NA
ATOM     26  C   UNL     1       1.282   1.686  -0.001  0.00  0.00    +0.202 A 
ATOM     27  N   UNL     1       2.004   0.596  -0.014  0.00  0.00    -0.056 NA
ATOM     28  O   UNL     1       1.285  -0.380  -0.012  0.00  0.00    -0.340 OA
BRANCH  26  29
ATOM     29  C   UNL     1       1.791   3.080   0.001  0.00  0.00    +0.023 A 
ATOM     30  C   UNL     1       0.898   4.150   0.008  0.00  0.00    +0.013 A 
ATOM     31  C   UNL     1       1.376   5.445   0.015  0.00  0.00    +0.021 A 
ATOM     32  C   UNL     1       2.740   5.681   0.004  0.00  0.00    +0.041 A 
ATOM     33  C   UNL     1       3.631   4.622  -0.010  0.00  0.00    +0.021 A 
ATOM     34  C   UNL     1       3.163   3.324  -0.011  0.00  0.00    +0.013 A 
ATOM     35 CL   UNL     1       3.336   7.312   0.006  0.00  0.00    -0.084 Cl
ENDBRANCH  26  29
ENDBRANCH  23  24
ENDBRANCH   5  23
TORSDOF 9
